data_image0
_chemical_formula_structural       Zn4H50C78N6O18
_chemical_formula_sum              "Zn4 H50 C78 N6 O18"
_cell_length_a       15.33806
_cell_length_b       15.35467
_cell_length_c       16.05125
_cell_angle_alpha    98.79491
_cell_angle_beta     102.1952
_cell_angle_gamma    103.17827999999999

_symmetry_space_group_name_H-M    'P 1'
_symmetry_Int_Tables_number       1

loop_
  _symmetry_equiv_pos_as_xyz
  'x,y,z'

loop_
  _atom_site_type_symbol
  _atom_site_label
  _atom_site_symmetry_multiplicity
  _atom_site_fract_x
  _atom_site_fract_y
  _atom_site_fract_z
  _atom_site_occupancy
  Zn  Zn1       1.0  0.38506000000000007  0.8287599999999998  0.39495999999999987  1.0000
  Zn  Zn2       1.0  0.33538000000000007  0.7861  0.20955999999999994  1.0000
  Zn  Zn3       1.0  0.6149400000000003  0.17124  0.60503  1.0000
  Zn  Zn4       1.0  0.6646100000000004  0.21389000000000002  0.7904399999999999  1.0000
  H   H1        1.0  0.39047000000000004  0.11844999999999994  0.4492099999999999  1.0000
  H   H2        1.0  0.38094  0.2761599999999999  0.4456799999999999  1.0000
  H   H3        1.0  0.37072  0.22610999999999995  0.17141  1.0000
  H   H4        1.0  0.37188  0.06493  0.17512  1.0000
  H   H5        1.0  0.04435000000000002  0.80024  0.15175  1.0000
  H   H6        1.0  0.8905700000000001  0.82024  0.16020999999999994  1.0000
  H   H7        1.0  0.9599900000000003  0.81724  0.4344099999999999  1.0000
  H   H8        1.0  0.11548  0.80347  0.42489  1.0000
  H   H9        1.0  0.28354  0.4853899999999999  0.16577999999999996  1.0000
  H   H10       1.0  0.29129000000000005  0.3260799999999999  0.16976999999999995  1.0000
  H   H11       1.0  0.4421300000000001  0.41496  0.44032999999999994  1.0000
  H   H12       1.0  0.42903000000000024  0.57231  0.43561999999999995  1.0000
  H   H13       1.0  0.59911  0.78884  0.17434999999999995  1.0000
  H   H14       1.0  0.7564500000000002  0.78286  0.16441999999999996  1.0000
  H   H15       1.0  0.8548200000000001  0.87432  0.44382  1.0000
  H   H16       1.0  0.6965300000000002  0.8756  0.4522299999999999  1.0000
  H   H17       1.0  0.38704  0.70663  0.5214899999999999  1.0000
  H   H18       1.0  0.39121  0.71517  0.6795299999999997  1.0000
  H   H19       1.0  0.4020300000000001  0.0017199999999999618  0.70151  1.0000
  H   H20       1.0  0.39902  0.98166  0.54228  1.0000
  H   H21       1.0  0.4482700000000001  0.89801  0.12454999999999997  1.0000
  H   H22       1.0  0.46542  0.9150999999999999  0.9770599999999998  1.0000
  H   H23       1.0  0.23445000000000002  0.67358  0.8711699999999998  1.0000
  H   H24       1.0  0.22716  0.66642  0.02375  1.0000
  H   H25       1.0  0.31172  0.74746  0.77821  1.0000
  H   H26       1.0  0.6095200000000001  0.88154  0.5507799999999998  1.0000
  H   H27       1.0  0.61905  0.72383  0.5543199999999998  1.0000
  H   H28       1.0  0.6292700000000001  0.77388  0.82859  1.0000
  H   H29       1.0  0.62811  0.93507  0.8248799999999997  1.0000
  H   H30       1.0  0.9556400000000002  0.19975  0.84824  1.0000
  H   H31       1.0  0.10941999999999995  0.17974999999999994  0.8397799999999997  1.0000
  H   H32       1.0  0.039999999999999945  0.18274999999999994  0.5655899999999998  1.0000
  H   H33       1.0  0.8845100000000002  0.19652  0.57511  1.0000
  H   H34       1.0  0.7164499999999999  0.5146  0.83422  1.0000
  H   H35       1.0  0.7087000000000002  0.6739099999999999  0.83022  1.0000
  H   H36       1.0  0.55786  0.58503  0.55966  1.0000
  H   H37       1.0  0.5709599999999999  0.42767999999999995  0.5643699999999998  1.0000
  H   H38       1.0  0.40087999999999996  0.21115999999999993  0.8256399999999998  1.0000
  H   H39       1.0  0.24354  0.21713  0.83557  1.0000
  H   H40       1.0  0.14517  0.12568  0.55618  1.0000
  H   H41       1.0  0.3034600000000001  0.12439  0.54777  1.0000
  H   H42       1.0  0.6129600000000002  0.29336  0.47849999999999987  1.0000
  H   H43       1.0  0.6087800000000002  0.28482  0.32046  1.0000
  H   H44       1.0  0.5979600000000002  0.99827  0.29848  1.0000
  H   H45       1.0  0.6009700000000001  0.018329999999999975  0.4577099999999999  1.0000
  H   H46       1.0  0.5517200000000001  0.10198999999999994  0.8754499999999997  1.0000
  H   H47       1.0  0.53458  0.08489  0.02294  1.0000
  H   H48       1.0  0.7655500000000002  0.32641  0.12883  1.0000
  H   H49       1.0  0.77284  0.33357  0.9762399999999998  1.0000
  H   H50       1.0  0.6882700000000003  0.25253  0.22178999999999993  1.0000
  C   C1        1.0  0.37786999999999993  0.9833799999999999  0.31287  1.0000
  C   C2        1.0  0.3787300000000001  0.08088  0.31165  1.0000
  C   C3        1.0  0.3836700000000001  0.14179  0.38809  1.0000
  C   C4        1.0  0.3802700000000001  0.23133999999999993  0.38596999999999987  1.0000
  C   C5        1.0  0.3738600000000002  0.26350999999999997  0.3078299999999999  1.0000
  C   C6        1.0  0.37238  0.20236999999999997  0.23202999999999993  1.0000
  C   C7        1.0  0.3737200000000001  0.1123  0.23363  1.0000
  C   C8        1.0  0.18355  0.79095  0.28338  1.0000
  C   C9        1.0  0.08918000000000005  0.79948  0.28757  1.0000
  C   C10       1.0  0.024759999999999928  0.8040599999999998  0.21320999999999998  1.0000
  C   C11       1.0  0.93821  0.81476  0.21858999999999995  1.0000
  C   C12       1.0  0.9120700000000003  0.81955  0.2979999999999999  1.0000
  C   C13       1.0  0.9777400000000003  0.81498  0.3721799999999999  1.0000
  C   C14       1.0  0.06483000000000003  0.80596  0.3672699999999999  1.0000
  C   C15       1.0  0.35065000000000013  0.63501  0.29826999999999987  1.0000
  C   C16       1.0  0.3554200000000001  0.53884  0.3004399999999999  1.0000
  C   C17       1.0  0.3177500000000001  0.46879  0.22548999999999994  1.0000
  C   C18       1.0  0.32341  0.3798899999999999  0.22803  1.0000
  C   C19       1.0  0.3680500000000001  0.35802  0.30519  1.0000
  C   C20       1.0  0.4060900000000001  0.42915  0.3800099999999999  1.0000
  C   C21       1.0  0.3993700000000001  0.51768  0.37776  1.0000
  C   C22       1.0  0.5399200000000003  0.82956  0.31752  1.0000
  C   C23       1.0  0.6371500000000002  0.83155  0.31372  1.0000
  C   C24       1.0  0.6559600000000002  0.80716  0.23278999999999994  1.0000
  C   C25       1.0  0.7447700000000003  0.80458  0.22786999999999993  1.0000
  C   C26       1.0  0.8187000000000002  0.82698  0.30341  1.0000
  C   C27       1.0  0.79944  0.85409  0.3841  1.0000
  C   C28       1.0  0.71032  0.8558399999999996  0.38931  1.0000
  C   C29       1.0  0.3888300000000001  0.76981  0.56403  1.0000
  C   C30       1.0  0.38953  0.7752  0.65153  1.0000
  C   C31       1.0  0.3935600000000001  0.85962  0.7020299999999998  1.0000
  C   C32       1.0  0.3970200000000001  0.93527  0.66293  1.0000
  C   C33       1.0  0.3952400000000001  0.9243  0.57493  1.0000
  C   C34       1.0  0.40104999999999996  0.8750899999999999  0.79789  1.0000
  C   C35       1.0  0.4024500000000001  0.84953  0.06678  1.0000
  C   C36       1.0  0.4121100000000001  0.8591699999999999  0.9843999999999999  1.0000
  C   C37       1.0  0.35089  0.79585  0.9113799999999997  1.0000
  C   C38       1.0  0.2834199999999999  0.72458  0.9255599999999998  1.0000
  C   C39       1.0  0.27885  0.72027  0.01041  1.0000
  C   C40       1.0  0.6221200000000002  0.01661999999999996  0.6871299999999998  1.0000
  C   C41       1.0  0.6212600000000003  0.91911  0.6883499999999998  1.0000
  C   C42       1.0  0.61632  0.8582  0.61191  1.0000
  C   C43       1.0  0.61972  0.76865  0.6140299999999997  1.0000
  C   C44       1.0  0.6261299999999999  0.73648  0.6921599999999998  1.0000
  C   C45       1.0  0.6276100000000002  0.79762  0.7679599999999998  1.0000
  C   C46       1.0  0.6262700000000002  0.88769  0.7663699999999998  1.0000
  C   C47       1.0  0.8164400000000002  0.20903999999999992  0.7166099999999997  1.0000
  C   C48       1.0  0.91081  0.20052  0.71243  1.0000
  C   C49       1.0  0.9752300000000003  0.19593999999999998  0.7867899999999998  1.0000
  C   C50       1.0  0.06178  0.18524  0.7814  1.0000
  C   C51       1.0  0.08792999999999995  0.18043999999999996  0.7019999999999997  1.0000
  C   C52       1.0  0.022260000000000012  0.18501  0.62781  1.0000
  C   C53       1.0  0.9351600000000002  0.19403  0.63272  1.0000
  C   C54       1.0  0.6493400000000003  0.36497999999999997  0.7017199999999999  1.0000
  C   C55       1.0  0.6445700000000002  0.4611599999999999  0.6995499999999998  1.0000
  C   C56       1.0  0.68224  0.53121  0.7744999999999997  1.0000
  C   C57       1.0  0.6765800000000001  0.6201  0.7719699999999998  1.0000
  C   C58       1.0  0.6319400000000002  0.64198  0.6947999999999998  1.0000
  C   C59       1.0  0.5939  0.57084  0.61999  1.0000
  C   C60       1.0  0.60062  0.48231  0.6222299999999997  1.0000
  C   C61       1.0  0.46008  0.17043  0.68248  1.0000
  C   C62       1.0  0.36285000000000006  0.16843999999999995  0.6862799999999998  1.0000
  C   C63       1.0  0.34402999999999995  0.19282999999999995  0.7672099999999997  1.0000
  C   C64       1.0  0.25522  0.19540999999999994  0.7721299999999998  1.0000
  C   C65       1.0  0.18129  0.17302  0.69659  1.0000
  C   C66       1.0  0.20055000000000006  0.1459  0.61589  1.0000
  C   C67       1.0  0.2896700000000001  0.14414999999999997  0.61069  1.0000
  C   C68       1.0  0.6111600000000003  0.23018  0.4359599999999999  1.0000
  C   C69       1.0  0.61047  0.2248  0.34847  1.0000
  C   C70       1.0  0.6064300000000002  0.14037999999999995  0.2979699999999999  1.0000
  C   C71       1.0  0.60297  0.06471999999999997  0.33705999999999997  1.0000
  C   C72       1.0  0.6047500000000002  0.07568999999999998  0.42506  1.0000
  C   C73       1.0  0.5989400000000002  0.12489  0.20211  1.0000
  C   C74       1.0  0.5975500000000005  0.15047000000000002  0.93321  1.0000
  C   C75       1.0  0.5878800000000002  0.14083  0.015589999999999996  1.0000
  C   C76       1.0  0.6491000000000002  0.20414999999999997  0.08860999999999997  1.0000
  C   C77       1.0  0.7165700000000003  0.27542  0.07442999999999997  1.0000
  C   C78       1.0  0.7211400000000002  0.27971999999999986  0.9895799999999998  1.0000
  N   N1        1.0  0.3914300000000001  0.84284  0.52652  1.0000
  N   N2        1.0  0.3549400000000001  0.80042  0.82581  1.0000
  N   N3        1.0  0.33695000000000014  0.7819  0.08046999999999997  1.0000
  N   N4        1.0  0.6085600000000002  0.15716  0.4734799999999999  1.0000
  N   N5        1.0  0.64505  0.19957  0.17418999999999996  1.0000
  N   N6        1.0  0.66304  0.21809  0.91953  1.0000
  O   O1        1.0  0.36436  0.92975  0.23986999999999994  1.0000
  O   O2        1.0  0.39048999999999995  0.9612599999999999  0.3872699999999999  1.0000
  O   O3        1.0  0.24064000000000002  0.7969599999999999  0.35568  1.0000
  O   O4        1.0  0.20021000000000003  0.7794599999999999  0.20826  1.0000
  O   O5        1.0  0.3200900000000001  0.65306  0.22447999999999996  1.0000
  O   O6        1.0  0.37892  0.6919199999999998  0.3715099999999999  1.0000
  O   O7        1.0  0.52473  0.85273  0.3919299999999999  1.0000
  O   O8        1.0  0.47904000000000024  0.80469  0.24474999999999994  1.0000
  O   O9        1.0  0.44485999999999987  0.9489299999999999  0.8469199999999998  1.0000
  O   O10       1.0  0.6356300000000003  0.07024000000000002  0.76012  1.0000
  O   O11       1.0  0.60951  0.03873000000000001  0.61273  1.0000
  O   O12       1.0  0.7593500000000002  0.20302999999999993  0.6443199999999998  1.0000
  O   O13       1.0  0.79978  0.22052999999999995  0.7917399999999998  1.0000
  O   O14       1.0  0.6799  0.34692999999999996  0.7755099999999998  1.0000
  O   O15       1.0  0.6210800000000003  0.30806999999999995  0.6284799999999998  1.0000
  O   O16       1.0  0.47526  0.14726  0.60807  1.0000
  O   O17       1.0  0.52095  0.1952999999999999  0.7552499999999998  1.0000
  O   O18       1.0  0.55513  0.05106999999999999  0.15308  1.0000
