data_image0
_chemical_formula_structural       Co4H64C68S2N4O16
_chemical_formula_sum              "Co4 H64 C68 S2 N4 O16"
_cell_length_a       9.57137
_cell_length_b       12.56509
_cell_length_c       18.44672
_cell_angle_alpha    98.55097000000002
_cell_angle_beta     99.87482000000001
_cell_angle_gamma    104.48544

_symmetry_space_group_name_H-M    'P 1'
_symmetry_Int_Tables_number       1

loop_
  _symmetry_equiv_pos_as_xyz
  'x,y,z'

loop_
  _atom_site_type_symbol
  _atom_site_label
  _atom_site_symmetry_multiplicity
  _atom_site_fract_x
  _atom_site_fract_y
  _atom_site_fract_z
  _atom_site_occupancy
  Co  Co1       1.0  0.98364  0.41708000000000006  0.64875  1.0000
  Co  Co2       1.0  0.02426  0.58311  0.35133  1.0000
  Co  Co3       1.0  0.003860000000000022  0.49998  0.50008  1.0000
  Co  Co4       1.0  0.50206  0.00285  0.0014499999999999997  1.0000
  H   H1        1.0  0.15839  0.26362  0.22955  1.0000
  H   H2        1.0  0.13891  0.33999  0.3146  1.0000
  H   H3        1.0  0.30995  0.37292  0.28688  1.0000
  H   H4        1.0  0.17072  0.05622999999999999  0.35824  1.0000
  H   H5        1.0  0.04621  0.13982  0.35111  1.0000
  H   H6        1.0  0.08454  0.07188  0.26912  1.0000
  H   H7        1.0  0.32182  0.12813  0.23496  1.0000
  H   H8        1.0  0.46864  0.24449  0.28652999999999995  1.0000
  H   H9        1.0  0.42411  0.1198  0.32232  1.0000
  H   H10       1.0  0.50388  0.41978  0.62434  1.0000
  H   H11       1.0  0.5627700000000001  0.29832  0.4047199999999999  1.0000
  H   H12       1.0  0.12571  0.28259  0.44140999999999997  1.0000
  H   H13       1.0  0.72339  0.2631  0.20001  1.0000
  H   H14       1.0  0.57754  0.94002  0.25657  1.0000
  H   H15       1.0  0.8591400000000001  0.22306  0.42542999999999986  1.0000
  H   H16       1.0  0.7924400000000001  0.87409  0.341  1.0000
  H   H17       1.0  0.8210200000000002  0.8702099999999999  0.43807  1.0000
  H   H18       1.0  0.93571  0.98058  0.4062599999999999  1.0000
  H   H19       1.0  0.47582  0.96437  0.40463  1.0000
  H   H20       1.0  0.5565300000000001  0.86528  0.4419599999999999  1.0000
  H   H21       1.0  0.51973  0.8593399999999999  0.34418999999999994  1.0000
  H   H22       1.0  0.87616  0.11881  0.50255  1.0000
  H   H23       1.0  0.75044  0.010260000000000012  0.52906  1.0000
  H   H24       1.0  0.69052  0.12240999999999999  0.4986999999999999  1.0000
  H   H25       1.0  0.15887999999999988  0.2957599999999999  0.7368199999999998  1.0000
  H   H26       1.0  0.1221199999999999  0.17255999999999994  0.8303399999999997  1.0000
  H   H27       1.0  0.67143  0.19362999999999994  0.8015899999999999  1.0000
  H   H28       1.0  0.7267399999999999  0.31120999999999993  0.7055899999999998  1.0000
  H   H29       1.0  0.12191999999999992  0.23022  0.9947  1.0000
  H   H30       1.0  0.35775000000000007  0.18251000000000003  0.04151  1.0000
  H   H31       1.0  0.19376999999999997  0.86058  0.9138799999999999  1.0000
  H   H32       1.0  0.95222  0.89381  0.86168  1.0000
  H   H33       1.0  0.8461600000000001  0.73773  0.77156  1.0000
  H   H34       1.0  0.8717699999999999  0.66407  0.68708  1.0000
  H   H35       1.0  0.69863  0.62678  0.7125599999999999  1.0000
  H   H36       1.0  0.83657  0.9454299999999999  0.64306  1.0000
  H   H37       1.0  0.96108  0.86174  0.65089  1.0000
  H   H38       1.0  0.9205600000000002  0.92907  0.73251  1.0000
  H   H39       1.0  0.6839499999999998  0.8718699999999999  0.7657499999999999  1.0000
  H   H40       1.0  0.53753  0.75523  0.7141  1.0000
  H   H41       1.0  0.58095  0.88037  0.6786099999999999  1.0000
  H   H42       1.0  0.50479  0.58048  0.37627  1.0000
  H   H43       1.0  0.4444999999999999  0.70191  0.5955199999999999  1.0000
  H   H44       1.0  0.8822500000000001  0.71862  0.55946  1.0000
  H   H45       1.0  0.28315  0.73801  0.8016  1.0000
  H   H46       1.0  0.4229  0.06268000000000003  0.7466  1.0000
  H   H47       1.0  0.14973999999999996  0.7779  0.5760299999999999  1.0000
  H   H48       1.0  0.21136999999999995  0.12828999999999996  0.6608399999999999  1.0000
  H   H49       1.0  0.18239  0.13148  0.5637599999999999  1.0000
  H   H50       1.0  0.06779000000000002  0.02168  0.59597  1.0000
  H   H51       1.0  0.52764  0.03807999999999993  0.5969299999999997  1.0000
  H   H52       1.0  0.44623000000000007  0.13673  0.55947  1.0000
  H   H53       1.0  0.48352  0.14304999999999995  0.6573099999999997  1.0000
  H   H54       1.0  0.1274  0.8830800000000001  0.49923999999999996  1.0000
  H   H55       1.0  0.2527900000000001  0.99207  0.47283  1.0000
  H   H56       1.0  0.3131699999999999  0.87998  0.5029899999999999  1.0000
  H   H57       1.0  0.84897  0.70412  0.26473  1.0000
  H   H58       1.0  0.8824700000000001  0.82742  0.17112999999999998  1.0000
  H   H59       1.0  0.33301  0.80728  0.1964  1.0000
  H   H60       1.0  0.28139  0.6893500000000001  0.2928299999999999  1.0000
  H   H61       1.0  0.8781400000000001  0.7717  0.00638  1.0000
  H   H62       1.0  0.64327  0.82115  0.9603399999999999  1.0000
  H   H63       1.0  0.8102  0.14195999999999998  0.08985999999999997  1.0000
  H   H64       1.0  0.05057999999999997  0.10641999999999997  0.14138999999999993  1.0000
  C   C1        1.0  0.21459999999999993  0.3035599999999999  0.2879699999999999  1.0000
  C   C2        1.0  0.13407  0.11628  0.3274  1.0000
  C   C3        1.0  0.37687000000000004  0.17583000000000001  0.29191  1.0000
  C   C4        1.0  0.3042  0.35332  0.53723  1.0000
  C   C5        1.0  0.45760000000000006  0.38142  0.56543  1.0000
  C   C6        1.0  0.54925  0.36299000000000003  0.51643  1.0000
  C   C7        1.0  0.48742  0.31130000000000013  0.44076  1.0000
  C   C8        1.0  0.33454999999999996  0.27724  0.4126299999999999  1.0000
  C   C9        1.0  0.24450000000000002  0.30207  0.46162  1.0000
  C   C10       1.0  0.20682  0.37552  0.58922  1.0000
  C   C11       1.0  0.71389  0.39946  0.54131  1.0000
  C   C12       1.0  0.26583  0.21832  0.33054  1.0000
  C   C13       1.0  0.80344  0.25253  0.31436999999999987  1.0000
  C   C14       1.0  0.7219700000000001  0.2094  0.24105  1.0000
  C   C15       1.0  0.63941  0.09649999999999997  0.22100999999999996  1.0000
  C   C16       1.0  0.63979  0.028079999999999997  0.2746  1.0000
  C   C17       1.0  0.7158  0.07142  0.34973  1.0000
  C   C18       1.0  0.79769  0.1847  0.3683799999999999  1.0000
  C   C19       1.0  0.8981700000000001  0.36977999999999994  0.33528999999999987  1.0000
  C   C20       1.0  0.5578  0.0517  0.14169  1.0000
  C   C21       1.0  0.7134500000000001  0.99666  0.4084399999999999  1.0000
  C   C22       1.0  0.8224500000000001  0.9262999999999999  0.39767999999999987  1.0000
  C   C23       1.0  0.55697  0.9171300000000001  0.39894999999999997  1.0000
  C   C24       1.0  0.7607  0.06696  0.4891  1.0000
  C   C25       1.0  0.05314999999999997  0.27  0.75294  1.0000
  C   C26       1.0  0.03151  0.20219  0.80523  1.0000
  C   C27       1.0  0.89311  0.1739499999999999  0.8245099999999997  1.0000
  C   C28       1.0  0.7805300000000002  0.21392  0.78842  1.0000
  C   C29       1.0  0.81058  0.2796  0.73583  1.0000
  C   C30       1.0  0.01945000000000003  0.06548999999999999  0.92352  1.0000
  C   C31       1.0  0.13436999999999996  0.14777000000000007  0.97509  1.0000
  C   C32       1.0  0.26498  0.12226000000000001  0.00116  1.0000
  C   C33       1.0  0.17280000000000004  0.94089  0.93037  1.0000
  C   C34       1.0  0.03915999999999994  0.9599799999999999  0.9013299999999999  1.0000
  C   C35       1.0  0.79291  0.69787  0.71276  1.0000
  C   C36       1.0  0.87249  0.8852000000000001  0.67398  1.0000
  C   C37       1.0  0.62885  0.82433  0.7087499999999998  1.0000
  C   C38       1.0  0.7038699999999999  0.64742  0.46343999999999996  1.0000
  C   C39       1.0  0.55048  0.61908  0.43518  1.0000
  C   C40       1.0  0.4584500000000001  0.63735  0.48396999999999996  1.0000
  C   C41       1.0  0.5201599999999998  0.68926  0.5596199999999998  1.0000
  C   C42       1.0  0.6730300000000002  0.7238400000000001  0.58793  1.0000
  C   C43       1.0  0.76346  0.69899  0.5390799999999999  1.0000
  C   C44       1.0  0.8006699999999999  0.6247  0.4111199999999999  1.0000
  C   C45       1.0  0.29374  0.60074  0.45893  1.0000
  C   C46       1.0  0.74074  0.78276  0.67015  1.0000
  C   C47       1.0  0.2049200000000001  0.7484400000000001  0.687  1.0000
  C   C48       1.0  0.28435999999999995  0.7919999999999999  0.7607199999999997  1.0000
  C   C49       1.0  0.36395  0.9057  0.78128  1.0000
  C   C50       1.0  0.36311000000000004  0.9742100000000001  0.72773  1.0000
  C   C51       1.0  0.28919  0.9305800000000001  0.65227  1.0000
  C   C52       1.0  0.21022999999999997  0.8166599999999999  0.6332  1.0000
  C   C53       1.0  0.11082999999999998  0.6308399999999998  0.66532  1.0000
  C   C54       1.0  0.44294999999999984  0.9520699999999999  0.8609599999999997  1.0000
  C   C55       1.0  0.29019  0.005330000000000011  0.5935  1.0000
  C   C56       1.0  0.18113999999999997  0.07563000000000002  0.60431  1.0000
  C   C57       1.0  0.44631000000000004  0.08511999999999993  0.6026199999999998  1.0000
  C   C58       1.0  0.24274999999999988  0.9352100000000001  0.5127299999999998  1.0000
  C   C59       1.0  0.9539400000000001  0.7300999999999999  0.24789999999999998  1.0000
  C   C60       1.0  0.97376  0.79797  0.19555  1.0000
  C   C61       1.0  0.11125999999999994  0.82653  0.17538999999999993  1.0000
  C   C62       1.0  0.22476000000000002  0.78658  0.21052999999999997  1.0000
  C   C63       1.0  0.19655  0.7207600000000001  0.26327999999999996  1.0000
  C   C64       1.0  0.98221  0.93581  0.07803  1.0000
  C   C65       1.0  0.86652  0.85429  0.0264  1.0000
  C   C66       1.0  0.7363500000000001  0.88078  0.00087  1.0000
  C   C67       1.0  0.83006  0.06141  0.07274  1.0000
  C   C68       1.0  0.9632300000000001  0.04124  0.10125999999999998  1.0000
  S   S1        1.0  0.8471199999999995  0.08992000000000001  0.88991  1.0000
  S   S2        1.0  0.15501000000000006  0.9110700000000002  0.11003  1.0000
  N   N1        1.0  0.9453000000000001  0.30891  0.71823  1.0000
  N   N2        1.0  0.28486  0.020710000000000013  0.97883  1.0000
  N   N3        1.0  0.06270000000000002  0.69134  0.28184  1.0000
  N   N4        1.0  0.71748  0.98256  0.02384  1.0000
  O   O1        1.0  0.06996999999999992  0.3755099999999999  0.5598999999999998  1.0000
  O   O2        1.0  0.25014  0.39116  0.65868  1.0000
  O   O3        1.0  0.77073  0.40233  0.61046  1.0000
  O   O4        1.0  0.7856500000000001  0.4234200000000001  0.49121999999999993  1.0000
  O   O5        1.0  0.89702  0.43478000000000006  0.28810999999999987  1.0000
  O   O6        1.0  0.98536  0.4026099999999999  0.4003199999999999  1.0000
  O   O7        1.0  0.55714  0.12268  0.09716  1.0000
  O   O8        1.0  0.49968  0.94746  0.11576999999999998  1.0000
  O   O9        1.0  0.93745  0.6243199999999999  0.4400999999999999  1.0000
  O   O10       1.0  0.7567099999999998  0.6089099999999997  0.34164999999999995  1.0000
  O   O11       1.0  0.23689  0.59772  0.38972  1.0000
  O   O12       1.0  0.22188  0.57692  0.50898  1.0000
  O   O13       1.0  0.11000000000000003  0.56557  0.7124  1.0000
  O   O14       1.0  0.025490000000000002  0.59797  0.59981  1.0000
  O   O15       1.0  0.44388  0.88196  0.9060599999999999  1.0000
  O   O16       1.0  0.49965  0.05659999999999993  0.8867799999999998  1.0000
