data_image0
_chemical_formula_structural       Zn8H48C80O40
_chemical_formula_sum              "Zn8 H48 C80 O40"
_cell_length_a       13.71332
_cell_length_b       13.51136
_cell_length_c       17.17722
_cell_angle_alpha    67.11053
_cell_angle_beta     87.64511
_cell_angle_gamma    89.79175

_symmetry_space_group_name_H-M    'P 1'
_symmetry_Int_Tables_number       1

loop_
  _symmetry_equiv_pos_as_xyz
  'x,y,z'

loop_
  _atom_site_type_symbol
  _atom_site_label
  _atom_site_symmetry_multiplicity
  _atom_site_fract_x
  _atom_site_fract_y
  _atom_site_fract_z
  _atom_site_occupancy
  Zn  Zn1       1.0  0.28732  0.84006  0.37279  1.0000
  Zn  Zn2       1.0  0.90218  0.43564  0.30034  1.0000
  Zn  Zn3       1.0  0.78863  0.5819600000000001  0.17157000000000006  1.0000
  Zn  Zn4       1.0  0.41122  0.98136  0.23939000000000005  1.0000
  Zn  Zn5       1.0  0.71268  0.15994999999999998  0.62721  1.0000
  Zn  Zn6       1.0  0.09781  0.5643699999999999  0.6996600000000002  1.0000
  Zn  Zn7       1.0  0.21136  0.4180399999999999  0.8284300000000002  1.0000
  Zn  Zn8       1.0  0.58878  0.01863999999999997  0.76061  1.0000
  H   H1        1.0  0.07962000000000001  0.73016  0.24768  1.0000
  H   H2        1.0  0.98764  0.8243200000000002  0.99175  1.0000
  H   H3        1.0  0.23586  0.9809300000000001  0.04415  1.0000
  H   H4        1.0  0.17588999999999996  0.10870999999999999  0.92061  1.0000
  H   H5        1.0  0.26294  0.025779999999999876  0.8939900000000002  1.0000
  H   H6        1.0  0.08621999999999999  0.12735000000000002  0.78537  1.0000
  H   H7        1.0  0.17526  0.23261000000000004  0.27195  1.0000
  H   H8        1.0  0.10983  0.28578999999999993  0.4993900000000001  1.0000
  H   H9        1.0  0.31681999999999994  0.04334999999999999  0.50271  1.0000
  H   H10       1.0  0.22408  0.27415000000000006  0.61213  1.0000
  H   H11       1.0  0.11644000000000002  0.19172  0.63848  1.0000
  H   H12       1.0  0.30416  0.11536999999999992  0.7383500000000002  1.0000
  H   H13       1.0  0.57351  0.6829100000000001  0.30105  1.0000
  H   H14       1.0  0.74009  0.4688899999999999  0.50374  1.0000
  H   H15       1.0  0.4954  0.6365999999999999  0.5590000000000003  1.0000
  H   H16       1.0  0.71236  0.3703799999999998  0.6390500000000002  1.0000
  H   H17       1.0  0.78084  0.48713000000000023  0.62951  1.0000
  H   H18       1.0  0.65689  0.3427799999999999  0.78908  1.0000
  H   H19       1.0  0.8324299999999999  0.49805  0.75339  1.0000
  H   H20       1.0  0.76271  0.47518999999999995  0.90026  1.0000
  H   H21       1.0  0.8616099999999999  0.3896799999999999  0.9008800000000002  1.0000
  H   H22       1.0  0.8156599999999999  0.40389  0.026040000000000008  1.0000
  H   H23       1.0  0.68379  0.18447999999999998  0.2617400000000001  1.0000
  H   H24       1.0  0.61187  0.16067  0.02757  1.0000
  H   H25       1.0  0.92037  0.26983999999999997  0.75232  1.0000
  H   H26       1.0  0.01235  0.17568  0.00825  1.0000
  H   H27       1.0  0.76413  0.019079999999999982  0.95585  1.0000
  H   H28       1.0  0.82411  0.8912900000000001  0.07939  1.0000
  H   H29       1.0  0.73706  0.97423  0.10601  1.0000
  H   H30       1.0  0.91377  0.87265  0.21463  1.0000
  H   H31       1.0  0.8247300000000001  0.7673900000000001  0.72805  1.0000
  H   H32       1.0  0.89016  0.7142100000000001  0.50061  1.0000
  H   H33       1.0  0.68317  0.95665  0.4972900000000001  1.0000
  H   H34       1.0  0.77592  0.7258499999999999  0.3878700000000001  1.0000
  H   H35       1.0  0.88355  0.80828  0.36152  1.0000
  H   H36       1.0  0.69584  0.8846300000000001  0.2616500000000001  1.0000
  H   H37       1.0  0.42648  0.3170899999999999  0.69895  1.0000
  H   H38       1.0  0.2599  0.5311200000000001  0.4962600000000001  1.0000
  H   H39       1.0  0.5046  0.36339999999999995  0.4410000000000001  1.0000
  H   H40       1.0  0.28763  0.6296299999999999  0.3609500000000001  1.0000
  H   H41       1.0  0.21916  0.5128700000000003  0.37049  1.0000
  H   H42       1.0  0.34311  0.65722  0.21092000000000005  1.0000
  H   H43       1.0  0.16757000000000002  0.5019600000000002  0.24661  1.0000
  H   H44       1.0  0.23728999999999997  0.52482  0.09974  1.0000
  H   H45       1.0  0.13838000000000003  0.61032  0.09913  1.0000
  H   H46       1.0  0.18432999999999997  0.5961099999999999  0.9739600000000003  1.0000
  H   H47       1.0  0.3162100000000001  0.8155199999999999  0.7382600000000002  1.0000
  H   H48       1.0  0.38813  0.83933  0.97243  1.0000
  C   C1        1.0  0.22795  0.87486  0.21262000000000006  1.0000
  C   C2        1.0  0.94618  0.6865799999999999  0.15265000000000006  1.0000
  C   C3        1.0  0.16199  0.85935  0.15147  1.0000
  C   C4        1.0  0.08841  0.78076  0.18091  1.0000
  C   C5        1.0  0.02603  0.7681100000000001  0.12284  1.0000
  C   C6        1.0  0.03687  0.83317  0.03672  1.0000
  C   C7        1.0  0.11312  0.9094700000000002  0.007110000000000002  1.0000
  C   C8        1.0  0.176  0.92285  0.06464  1.0000
  C   C9        1.0  0.18749  0.05485000000000006  0.88671  1.0000
  C   C10       1.0  0.16328  0.10958  0.79605  1.0000
  C   C11       1.0  0.29705  0.05947999999999999  0.34492  1.0000
  C   C12       1.0  0.054879999999999984  0.3395700000000001  0.34272000000000014  1.0000
  C   C13       1.0  0.25362  0.13320999999999994  0.3821900000000001  1.0000
  C   C14       1.0  0.18932  0.21492  0.3377900000000001  1.0000
  C   C15       1.0  0.13697  0.26723  0.38213  1.0000
  C   C16       1.0  0.15319999999999998  0.24391000000000004  0.4678  1.0000
  C   C17       1.0  0.22005999999999998  0.16489  0.51042  1.0000
  C   C18       1.0  0.2688  0.10832  0.4678  1.0000
  C   C19       1.0  0.19651999999999994  0.19073999999999994  0.6410100000000002  1.0000
  C   C20       1.0  0.22707999999999998  0.13508999999999993  0.73005  1.0000
  C   C21       1.0  0.44549999999999995  0.74365  0.3966500000000001  1.0000
  C   C22       1.0  0.725  0.5456899999999999  0.33568  1.0000
  C   C23       1.0  0.52783  0.66924  0.4267700000000001  1.0000
  C   C24       1.0  0.58673  0.6454400000000002  0.36804  1.0000
  C   C25       1.0  0.66161  0.57157  0.3973000000000001  1.0000
  C   C26       1.0  0.68  0.5242899999999998  0.48398  1.0000
  C   C27       1.0  0.61988  0.5479400000000001  0.54223  1.0000
  C   C28       1.0  0.54262  0.6196600000000001  0.5134  1.0000
  C   C29       1.0  0.7146499999999999  0.43892000000000003  0.65853  1.0000
  C   C30       1.0  0.71244  0.40161999999999987  0.7524700000000002  1.0000
  C   C31       1.0  0.77768  0.4383900000000001  0.79075  1.0000
  C   C32       1.0  0.78506  0.40714999999999996  0.88341  1.0000
  C   C33       1.0  0.71909  0.28323  0.0158  1.0000
  C   C34       1.0  0.76908  0.33431  0.05915  1.0000
  C   C35       1.0  0.75631  0.29900000000000004  0.14768  1.0000
  C   C36       1.0  0.69535  0.21116000000000001  0.19361  1.0000
  C   C37       1.0  0.64305  0.16235  0.14897  1.0000
  C   C38       1.0  0.65527  0.19737  0.06102  1.0000
  C   C39       1.0  0.79806  0.36898  0.18713  1.0000
  C   C40       1.0  0.56437  0.08168000000000006  0.19282  1.0000
  C   C41       1.0  0.77205  0.12514000000000003  0.78738  1.0000
  C   C42       1.0  0.05382  0.3134299999999999  0.84735  1.0000
  C   C43       1.0  0.838  0.1406499999999999  0.8485300000000002  1.0000
  C   C44       1.0  0.91159  0.21923999999999996  0.81909  1.0000
  C   C45       1.0  0.97396  0.23188999999999987  0.8771600000000003  1.0000
  C   C46       1.0  0.96312  0.16683  0.96328  1.0000
  C   C47       1.0  0.88688  0.0905299999999999  0.9928900000000003  1.0000
  C   C48       1.0  0.824  0.07714999999999993  0.9353600000000002  1.0000
  C   C49       1.0  0.81251  0.94516  0.11329  1.0000
  C   C50       1.0  0.83671  0.89042  0.20395000000000005  1.0000
  C   C51       1.0  0.70294  0.9405200000000004  0.65508  1.0000
  C   C52       1.0  0.94511  0.6604299999999999  0.6572800000000002  1.0000
  C   C53       1.0  0.74638  0.8668  0.61781  1.0000
  C   C54       1.0  0.81068  0.7850899999999998  0.6622100000000002  1.0000
  C   C55       1.0  0.86302  0.7327799999999999  0.61787  1.0000
  C   C56       1.0  0.84679  0.75609  0.5322  1.0000
  C   C57       1.0  0.7799400000000001  0.8351099999999999  0.4895800000000001  1.0000
  C   C58       1.0  0.73119  0.89168  0.5322  1.0000
  C   C59       1.0  0.80347  0.80926  0.3589900000000001  1.0000
  C   C60       1.0  0.77291  0.86491  0.26995  1.0000
  C   C61       1.0  0.5544999999999999  0.2563499999999999  0.6033500000000003  1.0000
  C   C62       1.0  0.2749900000000001  0.4543200000000001  0.66432  1.0000
  C   C63       1.0  0.47217  0.33076  0.5732300000000002  1.0000
  C   C64       1.0  0.41326  0.35456000000000004  0.63196  1.0000
  C   C65       1.0  0.33837999999999996  0.4284299999999999  0.6027100000000002  1.0000
  C   C66       1.0  0.31999  0.47571  0.51602  1.0000
  C   C67       1.0  0.38012  0.45206999999999997  0.4577700000000001  1.0000
  C   C68       1.0  0.45736999999999994  0.38033999999999996  0.4866000000000001  1.0000
  C   C69       1.0  0.28535  0.56108  0.3414700000000001  1.0000
  C   C70       1.0  0.28755  0.5983799999999999  0.24753000000000006  1.0000
  C   C71       1.0  0.22231  0.5616199999999999  0.20925000000000005  1.0000
  C   C72       1.0  0.21492999999999998  0.59285  0.11659  1.0000
  C   C73       1.0  0.2809100000000001  0.7167800000000004  0.9842  1.0000
  C   C74       1.0  0.23091  0.6656999999999997  0.9408500000000002  1.0000
  C   C75       1.0  0.24368  0.7010099999999999  0.8523200000000002  1.0000
  C   C76       1.0  0.30465  0.7888399999999999  0.8064000000000002  1.0000
  C   C77       1.0  0.35695000000000005  0.83765  0.8510300000000002  1.0000
  C   C78       1.0  0.34472  0.80263  0.9389800000000003  1.0000
  C   C79       1.0  0.20194  0.6310199999999999  0.81288  1.0000
  C   C80       1.0  0.43563  0.91832  0.80718  1.0000
  O   O1        1.0  0.30565  0.92955  0.18401000000000006  1.0000
  O   O2        1.0  0.2002  0.8300900000000001  0.29217  1.0000
  O   O3        1.0  0.95185  0.6047699999999999  0.22192000000000006  1.0000
  O   O4        1.0  0.87145  0.7044  0.10537000000000003  1.0000
  O   O5        1.0  0.11903999999999999  0.96488  0.92184  1.0000
  O   O6        1.0  0.30833  0.96217  0.39995000000000014  1.0000
  O   O7        1.0  0.31979  0.08881000000000006  0.26689  1.0000
  O   O8        1.0  0.9971099999999999  0.36923999999999996  0.3912500000000001  1.0000
  O   O9        1.0  0.03835  0.3690200000000001  0.26469  1.0000
  O   O10       1.0  0.23902999999999996  0.1315199999999999  0.5940600000000003  1.0000
  O   O11       1.0  0.44738  0.81479  0.32091  1.0000
  O   O12       1.0  0.37076  0.73012  0.44829000000000013  1.0000
  O   O13       1.0  0.79985  0.48897999999999997  0.36215000000000014  1.0000
  O   O14       1.0  0.69918  0.5854200000000003  0.25781  1.0000
  O   O15       1.0  0.62913  0.5047699999999999  0.6277000000000003  1.0000
  O   O16       1.0  0.7240899999999999  0.3148499999999999  0.9297000000000002  1.0000
  O   O17       1.0  0.8135  0.46829000000000004  0.13475  1.0000
  O   O18       1.0  0.81483  0.33563  0.2651  1.0000
  O   O19       1.0  0.5139  0.04481999999999999  0.14731  1.0000
  O   O20       1.0  0.54269  0.05432000000000001  0.27091  1.0000
  O   O21       1.0  0.69434  0.07045999999999991  0.8159900000000002  1.0000
  O   O22       1.0  0.7998  0.16991000000000003  0.70783  1.0000
  O   O23       1.0  0.04815  0.39523000000000014  0.77808  1.0000
  O   O24       1.0  0.12854  0.29559999999999986  0.8946300000000003  1.0000
  O   O25       1.0  0.88095  0.03511999999999999  0.07816000000000002  1.0000
  O   O26       1.0  0.69167  0.03783  0.60005  1.0000
  O   O27       1.0  0.68021  0.9112000000000001  0.73311  1.0000
  O   O28       1.0  0.002879999999999993  0.6307699999999999  0.6087500000000002  1.0000
  O   O29       1.0  0.96164  0.63099  0.73531  1.0000
  O   O30       1.0  0.76097  0.86848  0.40594000000000013  1.0000
  O   O31       1.0  0.55262  0.18520999999999999  0.67909  1.0000
  O   O32       1.0  0.62924  0.2698800000000001  0.55171  1.0000
  O   O33       1.0  0.20014  0.51102  0.6378500000000003  1.0000
  O   O34       1.0  0.30082  0.41459000000000007  0.74219  1.0000
  O   O35       1.0  0.37087  0.49523000000000006  0.3723  1.0000
  O   O36       1.0  0.27591  0.6851500000000001  0.0703  1.0000
  O   O37       1.0  0.1865  0.5317099999999999  0.8652500000000002  1.0000
  O   O38       1.0  0.18516  0.66438  0.7349000000000002  1.0000
  O   O39       1.0  0.4861  0.9551799999999999  0.8526900000000002  1.0000
  O   O40       1.0  0.45731  0.9456800000000002  0.72909  1.0000
