data_image0
_chemical_formula_structural       Cu6H78C96N6O24
_chemical_formula_sum              "Cu6 H78 C96 N6 O24"
_cell_length_a       9.9828
_cell_length_b       24.3432
_cell_length_c       24.349
_cell_angle_alpha    118.3451
_cell_angle_beta     97.84465
_cell_angle_gamma    97.87233999999998

_space_group_name_H-M_alt    "P 1"
_space_group_IT_number       1

loop_
  _space_group_symop_operation_xyz
  'x, y, z'

loop_
  _atom_site_type_symbol
  _atom_site_label
  _atom_site_symmetry_multiplicity
  _atom_site_fract_x
  _atom_site_fract_y
  _atom_site_fract_z
  _atom_site_occupancy
  Cu  Cu1       1.0  0.08058  0.5536100000000002  0.5142  1.0000
  Cu  Cu2       1.0  0.52768  0.96073  0.44644999999999996  1.0000
  Cu  Cu3       1.0  0.5662599999999999  0.4855  0.03944  1.0000
  Cu  Cu4       1.0  0.91942  0.4463900000000001  0.4858  1.0000
  Cu  Cu5       1.0  0.4723199999999999  0.039269999999999985  0.55356  1.0000
  Cu  Cu6       1.0  0.43374  0.5145  0.96056  1.0000
  H   H1        1.0  0.21516  0.3257800000000001  0.44646  1.0000
  H   H2        1.0  0.41969  0.27676  0.42517  1.0000
  H   H3        1.0  0.6188799999999999  0.43257  0.40535  1.0000
  H   H4        1.0  0.41654000000000013  0.4825700000000001  0.4294299999999999  1.0000
  H   H5        1.0  0.62573  0.27087000000000006  0.38577  1.0000
  H   H6        1.0  0.69985  0.32761  0.36531  1.0000
  H   H7        1.0  0.72688  0.36873  0.50027  1.0000
  H   H8        1.0  0.9018699999999997  0.29305000000000003  0.42052999999999996  1.0000
  H   H9        1.0  0.9475999999999998  0.3393800000000001  0.50502  1.0000
  H   H10       1.0  0.7488899999999998  0.31505000000000005  0.56152  1.0000
  H   H11       1.0  0.6312200000000001  0.22355000000000005  0.57077  1.0000
  H   H12       1.0  0.6861499999999999  0.09048000000000003  0.38571  1.0000
  H   H13       1.0  0.8027099999999999  0.18165000000000003  0.37543  1.0000
  H   H14       1.0  0.8905  0.12108999999999996  0.67486  1.0000
  H   H15       1.0  0.14385999999999993  0.14864000000000005  0.72375  1.0000
  H   H16       1.0  0.18628  0.9724100000000002  0.56736  1.0000
  H   H17       1.0  0.9344000000000002  0.9466000000000002  0.5173  1.0000
  H   H18       1.0  0.35611  0.11516000000000005  0.72912  1.0000
  H   H19       1.0  0.3729  0.03761  0.6722  1.0000
  H   H20       1.0  0.35868000000000005  0.1316  0.63161  1.0000
  H   H21       1.0  0.60969  0.12721000000000002  0.70639  1.0000
  H   H22       1.0  0.6088799999999999  0.16545999999999988  0.6604099999999999  1.0000
  H   H23       1.0  0.43460000000000015  0.24640000000000006  0.68518  1.0000
  H   H24       1.0  0.40831  0.34744000000000014  0.77703  1.0000
  H   H25       1.0  0.59545  0.29533000000000004  0.90938  1.0000
  H   H26       1.0  0.62132  0.19358000000000006  0.8179099999999999  1.0000
  H   H27       1.0  0.76894  0.55359  0.87963  1.0000
  H   H28       1.0  0.9944499999999998  0.5748000000000001  0.8517599999999999  1.0000
  H   H29       1.0  0.21433999999999997  0.59472  0.027279999999999995  1.0000
  H   H30       1.0  0.98829  0.57061  0.05335  1.0000
  H   H31       1.0  0.24018000000000012  0.6141100000000003  0.8852  1.0000
  H   H32       1.0  0.3348299999999999  0.63477  0.96255  1.0000
  H   H33       1.0  0.22652999999999995  0.49975  0.8679599999999998  1.0000
  H   H34       1.0  0.48181999999999997  0.5795300000000001  0.87285  1.0000
  H   H35       1.0  0.44314  0.49505000000000005  0.83414  1.0000
  H   H36       1.0  0.1871699999999999  0.43859000000000004  0.7530999999999999  1.0000
  H   H37       1.0  0.06017999999999987  0.42941999999999997  0.6523899999999999  1.0000
  H   H38       1.0  0.30128000000000005  0.6142900000000001  0.70529  1.0000
  H   H39       1.0  0.4281199999999999  0.62454  0.8068  1.0000
  H   H40       1.0  0.78484  0.67422  0.55354  1.0000
  H   H41       1.0  0.5803  0.7232400000000001  0.57483  1.0000
  H   H42       1.0  0.38111999999999996  0.5674300000000001  0.59465  1.0000
  H   H43       1.0  0.58346  0.51743  0.57057  1.0000
  H   H44       1.0  0.3742700000000001  0.72912  0.61423  1.0000
  H   H45       1.0  0.30014  0.67239  0.63469  1.0000
  H   H46       1.0  0.2731199999999999  0.6312700000000001  0.49972999999999995  1.0000
  H   H47       1.0  0.09813  0.7069500000000001  0.57947  1.0000
  H   H48       1.0  0.05240000000000004  0.66062  0.49499  1.0000
  H   H49       1.0  0.25110999999999994  0.68495  0.43848999999999994  1.0000
  H   H50       1.0  0.36877999999999994  0.7764500000000002  0.4292299999999999  1.0000
  H   H51       1.0  0.31385  0.90952  0.61429  1.0000
  H   H52       1.0  0.1972899999999999  0.8183499999999999  0.6245699999999998  1.0000
  H   H53       1.0  0.10950000000000001  0.8789100000000002  0.32514  1.0000
  H   H54       1.0  0.85614  0.85136  0.27626  1.0000
  H   H55       1.0  0.8137199999999999  0.02759000000000002  0.43265  1.0000
  H   H56       1.0  0.0656  0.05338999999999998  0.4827  1.0000
  H   H57       1.0  0.64389  0.8848400000000002  0.27088  1.0000
  H   H58       1.0  0.6271  0.9623799999999999  0.3278  1.0000
  H   H59       1.0  0.64132  0.8684000000000002  0.36839  1.0000
  H   H60       1.0  0.3903  0.87279  0.29362  1.0000
  H   H61       1.0  0.39111999999999997  0.8345400000000001  0.33959999999999996  1.0000
  H   H62       1.0  0.5654  0.7536  0.31482  1.0000
  H   H63       1.0  0.5916900000000002  0.6525600000000001  0.22297999999999998  1.0000
  H   H64       1.0  0.40455  0.70467  0.09063  1.0000
  H   H65       1.0  0.37868  0.8064100000000001  0.1821  1.0000
  H   H66       1.0  0.23105999999999996  0.44641  0.12037  1.0000
  H   H67       1.0  0.005550000000000072  0.42520000000000024  0.14824  1.0000
  H   H68       1.0  0.78566  0.40527999999999986  0.9727199999999999  1.0000
  H   H69       1.0  0.011710000000000019  0.42939  0.9466499999999999  1.0000
  H   H70       1.0  0.7598099999999999  0.38589  0.1148  1.0000
  H   H71       1.0  0.6651599999999999  0.36523  0.03744999999999999  1.0000
  H   H72       1.0  0.77348  0.5002500000000001  0.13204  1.0000
  H   H73       1.0  0.51818  0.42048  0.12716  1.0000
  H   H74       1.0  0.55687  0.50495  0.16586  1.0000
  H   H75       1.0  0.81283  0.5614100000000001  0.24689999999999995  1.0000
  H   H76       1.0  0.93982  0.57058  0.34761  1.0000
  H   H77       1.0  0.69872  0.3857  0.29471  1.0000
  H   H78       1.0  0.57188  0.37546  0.1932  1.0000
  C   C1        1.0  0.18547  0.43863  0.45643  1.0000
  C   C2        1.0  0.30319  0.4069900000000001  0.43895  1.0000
  C   C3        1.0  0.30398  0.3486700000000001  0.43734  1.0000
  C   C4        1.0  0.41845  0.32146  0.42525  1.0000
  C   C5        1.0  0.53281  0.35132000000000013  0.41347  1.0000
  C   C6        1.0  0.53023  0.40904  0.41401  1.0000
  C   C7        1.0  0.4172  0.43696  0.4272  1.0000
  C   C8        1.0  0.65762  0.32236  0.40232  1.0000
  C   C9        1.0  0.8594  0.31028  0.46348  1.0000
  C   C10       1.0  0.78482  0.25458000000000003  0.46785  1.0000
  C   C11       1.0  0.73445  0.26593  0.52256  1.0000
  C   C12       1.0  0.6687099999999999  0.21517000000000003  0.52819  1.0000
  C   C13       1.0  0.6522399999999999  0.1516  0.47902  1.0000
  C   C14       1.0  0.7000399999999999  0.13986  0.42375  1.0000
  C   C15       1.0  0.76507  0.19101999999999997  0.41829  1.0000
  C   C16       1.0  0.5897099999999998  0.09706  0.4869  1.0000
  C   C17       1.0  0.74755  0.017700000000000018  0.56094  1.0000
  C   C18       1.0  0.89667  0.03202  0.59311  1.0000
  C   C19       1.0  0.9559499999999997  0.08882  0.65168  1.0000
  C   C20       1.0  0.09768  0.10389999999999999  0.6789  1.0000
  C   C21       1.0  0.18203000000000005  0.06212000000000007  0.64888  1.0000
  C   C22       1.0  0.12144000000000002  0.004770000000000024  0.59102  1.0000
  C   C23       1.0  0.98057  0.9901000000000001  0.56307  1.0000
  C   C24       1.0  0.33595  0.07996  0.67763  1.0000
  C   C25       1.0  0.55  0.15308000000000005  0.6895  1.0000
  C   C26       1.0  0.5311800000000001  0.21326000000000003  0.7453399999999999  1.0000
  C   C27       1.0  0.46935  0.25666  0.73422  1.0000
  C   C28       1.0  0.45414999999999994  0.31311000000000005  0.7850899999999998  1.0000
  C   C29       1.0  0.50116  0.32749000000000006  0.84852  1.0000
  C   C30       1.0  0.5603899999999999  0.2838800000000001  0.8600399999999999  1.0000
  C   C31       1.0  0.57456  0.22719999999999996  0.8087699999999999  1.0000
  C   C32       1.0  0.49359999999999976  0.39006  0.9031699999999999  1.0000
  C   C33       1.0  0.72965  0.54379  0.98265  1.0000
  C   C34       1.0  0.8648099999999999  0.5611800000000001  0.9683799999999999  1.0000
  C   C35       1.0  0.86696  0.56273  0.91164  1.0000
  C   C36       1.0  0.9933699999999999  0.57478  0.89642  1.0000
  C   C37       1.0  0.11968999999999998  0.58664  0.9380299999999999  1.0000
  C   C38       1.0  0.11685000000000001  0.5860700000000001  0.9951899999999999  1.0000
  C   C39       1.0  0.9908  0.57288  0.009999999999999998  1.0000
  C   C40       1.0  0.25551  0.59769  0.92013  1.0000
  C   C41       1.0  0.39636999999999994  0.5365300000000001  0.8467899999999999  1.0000
  C   C42       1.0  0.31749999999999995  0.53214  0.7867199999999999  1.0000
  C   C43       1.0  0.21203000000000002  0.4774999999999999  0.74312  1.0000
  C   C44       1.0  0.14049000000000003  0.4719700000000001  0.68681  1.0000
  C   C45       1.0  0.17349999999999993  0.52114  0.6727  1.0000
  C   C46       1.0  0.27691  0.57631  0.71646  1.0000
  C   C47       1.0  0.34751000000000004  0.5817000000000002  0.77303  1.0000
  C   C48       1.0  0.10293000000000002  0.51325  0.6103  1.0000
  C   C49       1.0  0.81453  0.5613700000000001  0.54357  1.0000
  C   C50       1.0  0.69681  0.59301  0.56105  1.0000
  C   C51       1.0  0.6960199999999999  0.65133  0.56266  1.0000
  C   C52       1.0  0.58154  0.6785400000000001  0.57475  1.0000
  C   C53       1.0  0.46718  0.6486800000000001  0.58653  1.0000
  C   C54       1.0  0.46976999999999997  0.59096  0.5859899999999999  1.0000
  C   C55       1.0  0.5827999999999999  0.56304  0.5728  1.0000
  C   C56       1.0  0.34237  0.67764  0.59768  1.0000
  C   C57       1.0  0.1405899999999999  0.68972  0.53652  1.0000
  C   C58       1.0  0.21518000000000004  0.7454200000000001  0.53215  1.0000
  C   C59       1.0  0.26555000000000006  0.7340700000000002  0.47744  1.0000
  C   C60       1.0  0.33129  0.7848300000000002  0.47181999999999996  1.0000
  C   C61       1.0  0.34776  0.8484  0.52099  1.0000
  C   C62       1.0  0.29997  0.86014  0.57625  1.0000
  C   C63       1.0  0.23492999999999997  0.80898  0.58171  1.0000
  C   C64       1.0  0.41029  0.9029400000000002  0.5131  1.0000
  C   C65       1.0  0.25245  0.9823000000000001  0.43905999999999995  1.0000
  C   C66       1.0  0.10332999999999994  0.96798  0.4068899999999999  1.0000
  C   C67       1.0  0.04405  0.91118  0.34832  1.0000
  C   C68       1.0  0.90232  0.8961  0.3211  1.0000
  C   C69       1.0  0.8179700000000002  0.9378800000000003  0.35111999999999993  1.0000
  C   C70       1.0  0.87856  0.9952300000000002  0.40898  1.0000
  C   C71       1.0  0.019429999999999982  0.009899999999999985  0.43692999999999993  1.0000
  C   C72       1.0  0.6640499999999999  0.9200400000000002  0.32237  1.0000
  C   C73       1.0  0.45  0.8469200000000001  0.31051  1.0000
  C   C74       1.0  0.46882000000000007  0.7867400000000001  0.25467  1.0000
  C   C75       1.0  0.53065  0.7433400000000002  0.26578  1.0000
  C   C76       1.0  0.54585  0.68689  0.21490999999999996  1.0000
  C   C77       1.0  0.49884  0.67251  0.15149  1.0000
  C   C78       1.0  0.43961000000000006  0.7161200000000002  0.13996  1.0000
  C   C79       1.0  0.42543999999999993  0.7727999999999999  0.19124  1.0000
  C   C80       1.0  0.50641  0.60994  0.09684  1.0000
  C   C81       1.0  0.2703499999999999  0.45621000000000006  0.01736  1.0000
  C   C82       1.0  0.13519  0.43882  0.03162  1.0000
  C   C83       1.0  0.13303999999999994  0.43727  0.08836  1.0000
  C   C84       1.0  0.006629999999999999  0.42521  0.10358  1.0000
  C   C85       1.0  0.88031  0.41336000000000006  0.06197  1.0000
  C   C86       1.0  0.8831499999999999  0.41393  0.00482  1.0000
  C   C87       1.0  0.009200000000000055  0.4271100000000001  0.99001  1.0000
  C   C88       1.0  0.74449  0.40231  0.07987  1.0000
  C   C89       1.0  0.60363  0.46348  0.15321  1.0000
  C   C90       1.0  0.6825  0.46786  0.21328  1.0000
  C   C91       1.0  0.78797  0.5225  0.25688999999999995  1.0000
  C   C92       1.0  0.85951  0.52803  0.3132  1.0000
  C   C93       1.0  0.8265  0.4788600000000001  0.3273  1.0000
  C   C94       1.0  0.72309  0.42369  0.28354  1.0000
  C   C95       1.0  0.65249  0.4183  0.22697  1.0000
  C   C96       1.0  0.8970699999999996  0.4867500000000001  0.38969999999999994  1.0000
  N   N1        1.0  0.77196  0.3545300000000001  0.46182  1.0000
  N   N2        1.0  0.41784  0.10714  0.6454  1.0000
  N   N3        1.0  0.31022000000000005  0.53815  0.89258  1.0000
  N   N4        1.0  0.22803999999999994  0.64547  0.53818  1.0000
  N   N5        1.0  0.5821599999999999  0.8928600000000002  0.3546  1.0000
  N   N6        1.0  0.68978  0.46185  0.10742  1.0000
  O   O1        1.0  0.20833999999999997  0.4983500000000001  0.47443  1.0000
  O   O2        1.0  0.07258999999999999  0.40438  0.45355999999999996  1.0000
  O   O3        1.0  0.54631  0.11083000000000004  0.53783  1.0000
  O   O4        1.0  0.5869999999999999  0.04065999999999993  0.4421499999999999  1.0000
  O   O5        1.0  0.71246  0.9764700000000001  0.50097  1.0000
  O   O6        1.0  0.6676099999999999  0.04836000000000001  0.59495  1.0000
  O   O7        1.0  0.43767999999999996  0.42749000000000004  0.8894799999999999  1.0000
  O   O8        1.0  0.5466499999999999  0.40157999999999994  0.9594799999999999  1.0000
  O   O9        1.0  0.7342699999999999  0.5251000000000001  0.02371  1.0000
  O   O10       1.0  0.6199200000000001  0.5473900000000002  0.95183  1.0000
  O   O11       1.0  0.00705  0.46269  0.5735  1.0000
  O   O12       1.0  0.14625000000000002  0.55739  0.59822  1.0000
  O   O13       1.0  0.79166  0.50165  0.52557  1.0000
  O   O14       1.0  0.9274  0.5956200000000001  0.5464399999999999  1.0000
  O   O15       1.0  0.45369  0.88917  0.46216999999999997  1.0000
  O   O16       1.0  0.4129999999999999  0.9593399999999999  0.55785  1.0000
  O   O17       1.0  0.28754  0.02353  0.49903  1.0000
  O   O18       1.0  0.3323900000000001  0.9516400000000005  0.40504999999999997  1.0000
  O   O19       1.0  0.56233  0.5725100000000001  0.11052999999999999  1.0000
  O   O20       1.0  0.45333999999999997  0.59842  0.04052  1.0000
  O   O21       1.0  0.26573  0.4749  0.97629  1.0000
  O   O22       1.0  0.38008000000000003  0.4526100000000001  0.04817  1.0000
  O   O23       1.0  0.9929499999999999  0.53731  0.4265  1.0000
  O   O24       1.0  0.85375  0.44261000000000006  0.40177999999999997  1.0000
