data_image0
_chemical_formula_structural       Zn8H60C108O40
_chemical_formula_sum              "Zn8 H60 C108 O40"
_cell_length_a       12.14776
_cell_length_b       16.58293
_cell_length_c       27.81403
_cell_angle_alpha    90.0
_cell_angle_beta     90.0
_cell_angle_gamma    101.34526000000001

_space_group_name_H-M_alt    "P 1"
_space_group_IT_number       1

loop_
  _space_group_symop_operation_xyz
  'x, y, z'

loop_
  _atom_site_type_symbol
  _atom_site_label
  _atom_site_symmetry_multiplicity
  _atom_site_fract_x
  _atom_site_fract_y
  _atom_site_fract_z
  _atom_site_occupancy
  Zn  Zn1       1.0  0.92424  0.98943  0.46054  1.0000
  Zn  Zn2       1.0  0.76872  0.98177  0.53904  1.0000
  Zn  Zn3       1.0  0.07576000000000001  0.51057  0.96054  1.0000
  Zn  Zn4       1.0  0.23127  0.51823  0.039040000000000005  1.0000
  Zn  Zn5       1.0  0.07576  0.01057  0.53946  1.0000
  Zn  Zn6       1.0  0.23127  0.01823  0.46096  1.0000
  Zn  Zn7       1.0  0.92424  0.48943  0.03946  1.0000
  Zn  Zn8       1.0  0.7687299999999999  0.48177  0.96096  1.0000
  H   H1        1.0  0.5304  0.09257  0.46217  1.0000
  H   H2        1.0  0.42591000000000007  0.18297  0.41602  1.0000
  H   H3        1.0  0.70539  0.24686000000000002  0.31896000000000013  1.0000
  H   H4        1.0  0.808  0.1523  0.36412000000000005  1.0000
  H   H5        1.0  0.59602  0.72158  0.52881  1.0000
  H   H6        1.0  0.54394  0.57047  0.51275  1.0000
  H   H7        1.0  0.8169199999999999  0.58994  0.41238  1.0000
  H   H8        1.0  0.86775  0.74271  0.42786  1.0000
  H   H9        1.0  0.45296  0.54866  0.15788  1.0000
  H   H10       1.0  0.5318799999999999  0.5791  0.24094  1.0000
  H   H11       1.0  0.21852  0.45657  0.30192  1.0000
  H   H12       1.0  0.13982  0.42557  0.2184  1.0000
  H   H13       1.0  0.62449  0.3421  0.41928  1.0000
  H   H14       1.0  0.5396  0.5805  0.39643  1.0000
  H   H15       1.0  0.41708999999999996  0.38093  0.29817  1.0000
  H   H16       1.0  0.4696  0.40743  0.9621700000000002  1.0000
  H   H17       1.0  0.57409  0.31703  0.91602  1.0000
  H   H18       1.0  0.29461  0.25314  0.81896  1.0000
  H   H19       1.0  0.192  0.3477  0.86412  1.0000
  H   H20       1.0  0.40398  0.77842  0.02881  1.0000
  H   H21       1.0  0.45606  0.92953  0.01275  1.0000
  H   H22       1.0  0.18308  0.91006  0.91238  1.0000
  H   H23       1.0  0.13225  0.75729  0.92786  1.0000
  H   H24       1.0  0.54704  0.95134  0.65788  1.0000
  H   H25       1.0  0.46811  0.9209  0.74094  1.0000
  H   H26       1.0  0.78148  0.04343  0.80192  1.0000
  H   H27       1.0  0.86018  0.07443  0.7184000000000003  1.0000
  H   H28       1.0  0.37550999999999995  0.1579  0.9192800000000002  1.0000
  H   H29       1.0  0.4604  0.9195  0.89643  1.0000
  H   H30       1.0  0.58291  0.11907  0.79817  1.0000
  H   H31       1.0  0.4696  0.90743  0.53783  1.0000
  H   H32       1.0  0.57409  0.81703  0.58398  1.0000
  H   H33       1.0  0.29461  0.75314  0.6810400000000002  1.0000
  H   H34       1.0  0.19199  0.8477  0.63588  1.0000
  H   H35       1.0  0.40398  0.27842  0.47119  1.0000
  H   H36       1.0  0.45606  0.42953  0.48725  1.0000
  H   H37       1.0  0.18308  0.41006  0.58762  1.0000
  H   H38       1.0  0.13225  0.25729  0.57214  1.0000
  H   H39       1.0  0.54704  0.45134  0.84212  1.0000
  H   H40       1.0  0.46812  0.4209  0.75906  1.0000
  H   H41       1.0  0.78148  0.54343  0.6980800000000001  1.0000
  H   H42       1.0  0.86018  0.57443  0.7816000000000002  1.0000
  H   H43       1.0  0.37551  0.6579  0.58072  1.0000
  H   H44       1.0  0.4604  0.4195  0.60357  1.0000
  H   H45       1.0  0.58291  0.61907  0.70183  1.0000
  H   H46       1.0  0.5304  0.59258  0.03783  1.0000
  H   H47       1.0  0.42589999999999995  0.68297  0.08398  1.0000
  H   H48       1.0  0.70539  0.74686  0.18104000000000003  1.0000
  H   H49       1.0  0.808  0.6523  0.13588  1.0000
  H   H50       1.0  0.59602  0.22158  0.97119  1.0000
  H   H51       1.0  0.54394  0.07047  0.98725  1.0000
  H   H52       1.0  0.8169199999999999  0.08994  0.08762  1.0000
  H   H53       1.0  0.86775  0.24271  0.07214  1.0000
  H   H54       1.0  0.45296  0.04866  0.34212  1.0000
  H   H55       1.0  0.53188  0.0791  0.25906  1.0000
  H   H56       1.0  0.21852  0.95657  0.19808  1.0000
  H   H57       1.0  0.13981999999999994  0.92558  0.2816  1.0000
  H   H58       1.0  0.62449  0.8421  0.08072000000000001  1.0000
  H   H59       1.0  0.5396  0.0805  0.10357  1.0000
  H   H60       1.0  0.41708999999999996  0.88093  0.20183000000000006  1.0000
  C   C1        1.0  0.74034  0.06674  0.44501  1.0000
  C   C2        1.0  0.67614  0.11813  0.4163100000000001  1.0000
  C   C3        1.0  0.56829  0.12632  0.43085  1.0000
  C   C4        1.0  0.51026  0.17736  0.4054500000000001  1.0000
  C   C5        1.0  0.56232  0.22085  0.36602  1.0000
  C   C6        1.0  0.6683  0.21212  0.3500800000000001  1.0000
  C   C7        1.0  0.72492  0.16  0.37528  1.0000
  C   C8        1.0  0.7653799999999998  0.83196  0.4871900000000001  1.0000
  C   C9        1.0  0.73451  0.74118  0.47895  1.0000
  C   C10       1.0  0.6442799999999999  0.69269  0.50346  1.0000
  C   C11       1.0  0.61512  0.6083  0.49474  1.0000
  C   C12       1.0  0.6778499999999998  0.57321  0.46162  1.0000
  C   C13       1.0  0.76942  0.61994  0.4375  1.0000
  C   C14       1.0  0.79727  0.70427  0.44613  1.0000
  C   C15       1.0  0.24147  0.47346  0.13379  1.0000
  C   C16       1.0  0.29146  0.48596  0.18346  1.0000
  C   C17       1.0  0.40243999999999996  0.52846  0.18947000000000003  1.0000
  C   C18       1.0  0.44643  0.54556  0.23548  1.0000
  C   C19       1.0  0.37849  0.51983  0.27516  1.0000
  C   C20       1.0  0.26853  0.47611  0.27008  1.0000
  C   C21       1.0  0.22530999999999998  0.459  0.22386  1.0000
  C   C22       1.0  0.5183  0.35311  0.35747000000000007  1.0000
  C   C23       1.0  0.58114  0.38147  0.39839  1.0000
  C   C24       1.0  0.58843  0.46384  0.4117900000000001  1.0000
  C   C25       1.0  0.5343199999999998  0.51686  0.38591  1.0000
  C   C26       1.0  0.47263  0.48602  0.3449  1.0000
  C   C27       1.0  0.46399  0.40474  0.33001  1.0000
  C   C28       1.0  0.25966  0.43326  0.94501  1.0000
  C   C29       1.0  0.32386  0.38187  0.91631  1.0000
  C   C30       1.0  0.4317099999999999  0.37368  0.93085  1.0000
  C   C31       1.0  0.48973999999999995  0.32265  0.90545  1.0000
  C   C32       1.0  0.43768  0.27916  0.86602  1.0000
  C   C33       1.0  0.3317  0.28788  0.85008  1.0000
  C   C34       1.0  0.27507  0.34  0.87528  1.0000
  C   C35       1.0  0.23460999999999999  0.66805  0.9871900000000002  1.0000
  C   C36       1.0  0.26549  0.75882  0.9789500000000002  1.0000
  C   C37       1.0  0.35572  0.80731  0.00346  1.0000
  C   C38       1.0  0.38487  0.89171  0.9947400000000001  1.0000
  C   C39       1.0  0.32215  0.92679  0.9616200000000001  1.0000
  C   C40       1.0  0.23058  0.88007  0.9375  1.0000
  C   C41       1.0  0.20273  0.79573  0.94613  1.0000
  C   C42       1.0  0.75853  0.02654  0.63379  1.0000
  C   C43       1.0  0.7085399999999998  0.01404  0.68346  1.0000
  C   C44       1.0  0.59755  0.97154  0.68947  1.0000
  C   C45       1.0  0.55357  0.95444  0.73548  1.0000
  C   C46       1.0  0.62151  0.98017  0.77516  1.0000
  C   C47       1.0  0.73147  0.02389  0.77008  1.0000
  C   C48       1.0  0.77469  0.041  0.72386  1.0000
  C   C49       1.0  0.48169999999999996  0.14689  0.85747  1.0000
  C   C50       1.0  0.41886  0.11853  0.89839  1.0000
  C   C51       1.0  0.41157  0.03616  0.91179  1.0000
  C   C52       1.0  0.46568  0.98314  0.88591  1.0000
  C   C53       1.0  0.52737  0.01398  0.8449  1.0000
  C   C54       1.0  0.53601  0.09526  0.83001  1.0000
  C   C55       1.0  0.25966  0.93326  0.55499  1.0000
  C   C56       1.0  0.32386  0.88187  0.58368  1.0000
  C   C57       1.0  0.43171  0.87368  0.56915  1.0000
  C   C58       1.0  0.48973999999999995  0.82265  0.59455  1.0000
  C   C59       1.0  0.43768  0.77916  0.63398  1.0000
  C   C60       1.0  0.3317  0.78788  0.6499200000000002  1.0000
  C   C61       1.0  0.27507  0.84  0.6247200000000002  1.0000
  C   C62       1.0  0.23460999999999999  0.16805  0.51281  1.0000
  C   C63       1.0  0.26549  0.25882  0.52105  1.0000
  C   C64       1.0  0.35572  0.30731  0.4965400000000001  1.0000
  C   C65       1.0  0.38487  0.3917  0.50526  1.0000
  C   C66       1.0  0.32215000000000005  0.42679  0.53838  1.0000
  C   C67       1.0  0.23058  0.38007  0.5625  1.0000
  C   C68       1.0  0.20273  0.29573  0.55386  1.0000
  C   C69       1.0  0.75853  0.52654  0.8662100000000003  1.0000
  C   C70       1.0  0.7085399999999998  0.51404  0.8165400000000003  1.0000
  C   C71       1.0  0.59755  0.47154  0.81053  1.0000
  C   C72       1.0  0.55357  0.45444  0.76452  1.0000
  C   C73       1.0  0.62151  0.48017  0.7248400000000003  1.0000
  C   C74       1.0  0.73147  0.52389  0.72992  1.0000
  C   C75       1.0  0.77469  0.541  0.77614  1.0000
  C   C76       1.0  0.48169999999999996  0.64689  0.64253  1.0000
  C   C77       1.0  0.41886  0.61853  0.60161  1.0000
  C   C78       1.0  0.41157  0.53616  0.58821  1.0000
  C   C79       1.0  0.46568  0.48314  0.61409  1.0000
  C   C80       1.0  0.52737  0.51398  0.6551  1.0000
  C   C81       1.0  0.536  0.59527  0.66999  1.0000
  C   C82       1.0  0.7403299999999999  0.56674  0.05499  1.0000
  C   C83       1.0  0.67614  0.61813  0.08368  1.0000
  C   C84       1.0  0.56829  0.62632  0.06915  1.0000
  C   C85       1.0  0.51026  0.67736  0.09455000000000002  1.0000
  C   C86       1.0  0.5623200000000002  0.72085  0.13398  1.0000
  C   C87       1.0  0.66829  0.71212  0.14992000000000005  1.0000
  C   C88       1.0  0.72492  0.66001  0.12472000000000003  1.0000
  C   C89       1.0  0.76539  0.33195  0.012810000000000004  1.0000
  C   C90       1.0  0.73451  0.24118  0.02105  1.0000
  C   C91       1.0  0.64428  0.19269  0.9965400000000002  1.0000
  C   C92       1.0  0.61513  0.1083  0.00526  1.0000
  C   C93       1.0  0.6778499999999998  0.07321  0.03838  1.0000
  C   C94       1.0  0.76942  0.11994  0.0625  1.0000
  C   C95       1.0  0.79727  0.20427  0.05386  1.0000
  C   C96       1.0  0.24147  0.97347  0.36621000000000004  1.0000
  C   C97       1.0  0.29145999999999994  0.9859599999999998  0.31654  1.0000
  C   C98       1.0  0.40243999999999996  0.02846  0.31053  1.0000
  C   C99       1.0  0.44643  0.04556  0.26452  1.0000
  C   C100      1.0  0.37849  0.01983  0.22484000000000007  1.0000
  C   C101      1.0  0.26853  0.97611  0.22992  1.0000
  C   C102      1.0  0.22530999999999998  0.959  0.27614  1.0000
  C   C103      1.0  0.5183  0.85311  0.14253  1.0000
  C   C104      1.0  0.58114  0.88147  0.10161000000000003  1.0000
  C   C105      1.0  0.58843  0.96384  0.08821  1.0000
  C   C106      1.0  0.53432  0.01686  0.11409  1.0000
  C   C107      1.0  0.47263  0.9860199999999999  0.1551  1.0000
  C   C108      1.0  0.46399  0.90474  0.16999  1.0000
  O   O1        1.0  0.8332  0.05531  0.4263500000000001  1.0000
  O   O2        1.0  0.69993  0.03924  0.48533000000000004  1.0000
  O   O3        1.0  0.50595  0.27375  0.34068  1.0000
  O   O4        1.0  0.8329399999999999  0.87314  0.45704000000000006  1.0000
  O   O5        1.0  0.7224  0.86129  0.52381  1.0000
  O   O6        1.0  0.64986  0.48825  0.45283  1.0000
  O   O7        1.0  0.14356  0.4335  0.12857  1.0000
  O   O8        1.0  0.30629  0.50869  0.0996  1.0000
  O   O9        1.0  0.42209  0.54178  0.32112  1.0000
  O   O10       1.0  0.9269  0.02356  0.53089  1.0000
  O   O11       1.0  0.16680000000000003  0.44469  0.9263500000000002  1.0000
  O   O12       1.0  0.3000700000000001  0.46076  0.98533  1.0000
  O   O13       1.0  0.49404  0.22625  0.84068  1.0000
  O   O14       1.0  0.16706  0.62687  0.95704  1.0000
  O   O15       1.0  0.2776  0.63872  0.02381  1.0000
  O   O16       1.0  0.35014000000000006  0.01175  0.95283  1.0000
  O   O17       1.0  0.85644  0.0665  0.62857  1.0000
  O   O18       1.0  0.6937099999999999  0.9913099999999999  0.5996000000000001  1.0000
  O   O19       1.0  0.5779  0.95822  0.82112  1.0000
  O   O20       1.0  0.0731  0.47644  0.030890000000000004  1.0000
  O   O21       1.0  0.16680000000000003  0.94469  0.57365  1.0000
  O   O22       1.0  0.30006  0.96076  0.51467  1.0000
  O   O23       1.0  0.49404  0.72626  0.6593200000000001  1.0000
  O   O24       1.0  0.16706  0.12686  0.54296  1.0000
  O   O25       1.0  0.2776  0.13871  0.47619  1.0000
  O   O26       1.0  0.35013  0.51175  0.54717  1.0000
  O   O27       1.0  0.8564400000000001  0.5665  0.8714300000000003  1.0000
  O   O28       1.0  0.6937099999999999  0.49131  0.9004  1.0000
  O   O29       1.0  0.5779  0.45822  0.67888  1.0000
  O   O30       1.0  0.0731  0.97644  0.46911000000000014  1.0000
  O   O31       1.0  0.8332  0.55531  0.07365  1.0000
  O   O32       1.0  0.69993  0.53924  0.01467  1.0000
  O   O33       1.0  0.50595  0.77375  0.15932  1.0000
  O   O34       1.0  0.8329399999999999  0.37314  0.04296  1.0000
  O   O35       1.0  0.7224  0.36129  0.97619  1.0000
  O   O36       1.0  0.6498599999999999  0.98825  0.04717  1.0000
  O   O37       1.0  0.14356000000000002  0.9335  0.37143  1.0000
  O   O38       1.0  0.30629  0.00869  0.4004  1.0000
  O   O39       1.0  0.4221  0.04178  0.17888  1.0000
  O   O40       1.0  0.9269  0.52356  0.9691100000000002  1.0000
