data_image0
_chemical_formula_structural       Mn8Ag16H32C80N48
_chemical_formula_sum              "Mn8 Ag16 H32 C80 N48"
_cell_length_a       7.50805
_cell_length_b       13.15487
_cell_length_c       31.14429
_cell_angle_alpha    90.0
_cell_angle_beta     90.0
_cell_angle_gamma    90.00182

_space_group_name_H-M_alt    "P 1"
_space_group_IT_number       1

loop_
  _space_group_symop_operation_xyz
  'x, y, z'

loop_
  _atom_site_type_symbol
  _atom_site_label
  _atom_site_symmetry_multiplicity
  _atom_site_fract_x
  _atom_site_fract_y
  _atom_site_fract_z
  _atom_site_occupancy
  Mn  Mn1       1.0  0.9388200000000002  0.08903  0.24999999999999994  1.0000
  Mn  Mn2       1.0  0.56112  0.58904  0.75  1.0000
  Mn  Mn3       1.0  0.06118  0.91098  0.75  1.0000
  Mn  Mn4       1.0  0.43888  0.41097000000000006  0.24999999999999994  1.0000
  Mn  Mn5       1.0  0.5  0.5  0.4999999999999999  1.0000
  Mn  Mn6       1.0  0.0  0.0  0.4999999999999999  1.0000
  Mn  Mn7       1.0  0.49999  0.5  0.0  1.0000
  Mn  Mn8       1.0  0.0  0.0  0.0  1.0000
  Ag  Ag1       1.0  0.49481  0.06241  0.37974  1.0000
  Ag  Ag2       1.0  0.24288000000000007  0.24755000000000002  0.38596999999999987  1.0000
  Ag  Ag3       1.0  0.00486  0.56234  0.6201999999999998  1.0000
  Ag  Ag4       1.0  0.25659  0.74759  0.6140699999999999  1.0000
  Ag  Ag5       1.0  0.50519  0.93759  0.8797399999999999  1.0000
  Ag  Ag6       1.0  0.75712  0.75245  0.8859699999999998  1.0000
  Ag  Ag7       1.0  0.99514  0.43766  0.12021  1.0000
  Ag  Ag8       1.0  0.7434100000000002  0.25241  0.11407  1.0000
  Ag  Ag9       1.0  0.50519  0.93759  0.6202499999999997  1.0000
  Ag  Ag10      1.0  0.75712  0.75245  0.61402  1.0000
  Ag  Ag11      1.0  0.99514  0.43766  0.37979  1.0000
  Ag  Ag12      1.0  0.7434100000000002  0.25241  0.3859299999999999  1.0000
  Ag  Ag13      1.0  0.49481  0.06241  0.12025999999999998  1.0000
  Ag  Ag14      1.0  0.24288000000000007  0.24755000000000002  0.11401999999999997  1.0000
  Ag  Ag15      1.0  0.00486  0.56234  0.8797899999999997  1.0000
  Ag  Ag16      1.0  0.25659  0.74759  0.8859199999999998  1.0000
  H   H1        1.0  0.63742  0.37389  0.66094  1.0000
  H   H2        1.0  0.71392  0.14493  0.56242  1.0000
  H   H3        1.0  0.5646900000000002  0.49662999999999996  0.60257  1.0000
  H   H4        1.0  0.6448000000000002  0.27857  0.50829  1.0000
  H   H5        1.0  0.8625300000000002  0.87391  0.33905  1.0000
  H   H6        1.0  0.7861000000000002  0.64493  0.4375699999999999  1.0000
  H   H7        1.0  0.9352400000000002  0.99665  0.39742  1.0000
  H   H8        1.0  0.8552  0.77857  0.4917  1.0000
  H   H9        1.0  0.3625800000000001  0.62611  0.16094  1.0000
  H   H10       1.0  0.2860800000000001  0.85507  0.06243  1.0000
  H   H11       1.0  0.4353100000000001  0.50338  0.10257  1.0000
  H   H12       1.0  0.35519  0.72143  0.008289999999999997  1.0000
  H   H13       1.0  0.13746  0.1261  0.8390499999999997  1.0000
  H   H14       1.0  0.2139  0.35507  0.9375599999999997  1.0000
  H   H15       1.0  0.06476  0.00336  0.89742  1.0000
  H   H16       1.0  0.1448  0.22143  0.9916999999999998  1.0000
  H   H17       1.0  0.3625800000000001  0.62611  0.33905  1.0000
  H   H18       1.0  0.2860800000000001  0.85507  0.4375699999999999  1.0000
  H   H19       1.0  0.4353100000000001  0.50338  0.3974299999999999  1.0000
  H   H20       1.0  0.35519  0.72143  0.4917  1.0000
  H   H21       1.0  0.13746  0.1261  0.6609499999999998  1.0000
  H   H22       1.0  0.2139  0.35507  0.56243  1.0000
  H   H23       1.0  0.06476  0.00336  0.60257  1.0000
  H   H24       1.0  0.1448  0.22143  0.5083  1.0000
  H   H25       1.0  0.63742  0.37389  0.8390499999999997  1.0000
  H   H26       1.0  0.71392  0.14493  0.93757  1.0000
  H   H27       1.0  0.5646900000000002  0.49662999999999996  0.89743  1.0000
  H   H28       1.0  0.6448000000000002  0.27857  0.9916999999999998  1.0000
  H   H29       1.0  0.8625300000000002  0.87391  0.16095  1.0000
  H   H30       1.0  0.7861000000000002  0.64493  0.06243  1.0000
  H   H31       1.0  0.9352400000000002  0.99665  0.10257  1.0000
  H   H32       1.0  0.8552  0.77857  0.0083  1.0000
  C   C1        1.0  0.65418  0.05301  0.32622  1.0000
  C   C2        1.0  0.33576  0.04834  0.43315  1.0000
  C   C3        1.0  0.63968  0.34955  0.62762  1.0000
  C   C4        1.0  0.7175200000000003  0.17548000000000002  0.64889  1.0000
  C   C5        1.0  0.67992  0.24882  0.6162699999999998  1.0000
  C   C6        1.0  0.68305  0.22189  0.5726499999999998  1.0000
  C   C7        1.0  0.59987  0.41832  0.5950499999999997  1.0000
  C   C8        1.0  0.15707  0.17915  0.33061  1.0000
  C   C9        1.0  0.32283  0.32574  0.43949  1.0000
  C   C10       1.0  0.6436200000000002  0.29636  0.54241  1.0000
  C   C11       1.0  0.8456400000000002  0.55296  0.67375  1.0000
  C   C12       1.0  0.16408  0.54828  0.5668199999999998  1.0000
  C   C13       1.0  0.86028  0.8495600000000001  0.37237  1.0000
  C   C14       1.0  0.7824800000000002  0.6754799999999999  0.3510999999999999  1.0000
  C   C15       1.0  0.82007  0.74883  0.3837199999999999  1.0000
  C   C16       1.0  0.8169600000000002  0.7219  0.42734  1.0000
  C   C17       1.0  0.9000900000000001  0.91833  0.40494  1.0000
  C   C18       1.0  0.34267  0.6791900000000001  0.6694099999999997  1.0000
  C   C19       1.0  0.17693000000000006  0.82575  0.56052  1.0000
  C   C20       1.0  0.8563800000000003  0.79636  0.4575799999999999  1.0000
  C   C21       1.0  0.3458100000000001  0.9469899999999999  0.8262199999999997  1.0000
  C   C22       1.0  0.6642400000000003  0.9516599999999998  0.93315  1.0000
  C   C23       1.0  0.36031  0.65046  0.12762  1.0000
  C   C24       1.0  0.28248  0.82453  0.14889  1.0000
  C   C25       1.0  0.32008  0.75119  0.11627  1.0000
  C   C26       1.0  0.31695  0.77811  0.07266  1.0000
  C   C27       1.0  0.40013  0.58168  0.09506  1.0000
  C   C28       1.0  0.8429300000000002  0.8208500000000001  0.8305999999999998  1.0000
  C   C29       1.0  0.6771700000000003  0.67427  0.9394899999999998  1.0000
  C   C30       1.0  0.3563800000000001  0.70364  0.04240999999999999  1.0000
  C   C31       1.0  0.15436  0.44704000000000005  0.17375  1.0000
  C   C32       1.0  0.8359100000000003  0.45172  0.06682  1.0000
  C   C33       1.0  0.13972000000000004  0.15044  0.87237  1.0000
  C   C34       1.0  0.21752  0.32452  0.8510999999999997  1.0000
  C   C35       1.0  0.17992  0.25118  0.88372  1.0000
  C   C36       1.0  0.18304  0.2781  0.92733  1.0000
  C   C37       1.0  0.09991  0.08167  0.9049399999999997  1.0000
  C   C38       1.0  0.6573200000000002  0.32082  0.16941  1.0000
  C   C39       1.0  0.8230700000000002  0.17425  0.06052  1.0000
  C   C40       1.0  0.14362  0.20364  0.9575799999999998  1.0000
  C   C41       1.0  0.3458100000000001  0.9469899999999999  0.6737699999999998  1.0000
  C   C42       1.0  0.6642300000000002  0.9516599999999998  0.56684  1.0000
  C   C43       1.0  0.36031  0.65046  0.3723799999999999  1.0000
  C   C44       1.0  0.28248  0.82453  0.35111  1.0000
  C   C45       1.0  0.32008  0.75119  0.3837199999999999  1.0000
  C   C46       1.0  0.31695  0.77811  0.42734  1.0000
  C   C47       1.0  0.40013  0.58168  0.40494  1.0000
  C   C48       1.0  0.8429300000000002  0.8208500000000001  0.66939  1.0000
  C   C49       1.0  0.6771700000000003  0.67427  0.5604999999999998  1.0000
  C   C50       1.0  0.3563800000000001  0.70364  0.45759  1.0000
  C   C51       1.0  0.15436  0.44704000000000005  0.32625  1.0000
  C   C52       1.0  0.83592  0.45172  0.4331799999999999  1.0000
  C   C53       1.0  0.13972000000000004  0.15044  0.62762  1.0000
  C   C54       1.0  0.21752  0.32452  0.64889  1.0000
  C   C55       1.0  0.17992  0.25118  0.61628  1.0000
  C   C56       1.0  0.18304  0.2781  0.5726599999999997  1.0000
  C   C57       1.0  0.09991  0.08167  0.5950599999999998  1.0000
  C   C58       1.0  0.6573200000000002  0.32082  0.3305799999999999  1.0000
  C   C59       1.0  0.8230700000000002  0.17425  0.4394699999999999  1.0000
  C   C60       1.0  0.14362  0.20364  0.5424199999999999  1.0000
  C   C61       1.0  0.65418  0.05301  0.17376999999999995  1.0000
  C   C62       1.0  0.33576  0.04834  0.06684  1.0000
  C   C63       1.0  0.63968  0.34955  0.87238  1.0000
  C   C64       1.0  0.7175200000000003  0.17548000000000002  0.85111  1.0000
  C   C65       1.0  0.67992  0.24882  0.88372  1.0000
  C   C66       1.0  0.68305  0.22189  0.9273399999999998  1.0000
  C   C67       1.0  0.59987  0.41832  0.9049399999999997  1.0000
  C   C68       1.0  0.15707  0.17915  0.16938999999999996  1.0000
  C   C69       1.0  0.32283  0.32574  0.06050999999999999  1.0000
  C   C70       1.0  0.6436200000000002  0.29636  0.9575799999999998  1.0000
  C   C71       1.0  0.8456400000000002  0.55296  0.8262399999999998  1.0000
  C   C72       1.0  0.16408  0.54828  0.9331699999999998  1.0000
  C   C73       1.0  0.86028  0.8495600000000001  0.12762  1.0000
  C   C74       1.0  0.7824800000000002  0.6754799999999999  0.1489  1.0000
  C   C75       1.0  0.82007  0.74883  0.11627999999999997  1.0000
  C   C76       1.0  0.8169600000000002  0.7219  0.07266  1.0000
  C   C77       1.0  0.9000900000000001  0.91833  0.09506  1.0000
  C   C78       1.0  0.34267  0.6791900000000001  0.83058  1.0000
  C   C79       1.0  0.17693000000000006  0.82575  0.93947  1.0000
  C   C80       1.0  0.8563800000000003  0.79637  0.04242  1.0000
  N   N1        1.0  0.75531  0.04692  0.29754999999999987  1.0000
  N   N2        1.0  0.3683200000000001  0.37363  0.46938999999999986  1.0000
  N   N3        1.0  0.7499800000000002  0.11607  0.6757  1.0000
  N   N4        1.0  0.60047  0.39264  0.5531499999999998  1.0000
  N   N5        1.0  0.23343  0.03571  0.46117999999999987  1.0000
  N   N6        1.0  0.10447000000000002  0.14237  0.2986899999999999  1.0000
  N   N7        1.0  0.74461  0.54691  0.70245  1.0000
  N   N8        1.0  0.13164  0.87363  0.5306  1.0000
  N   N9        1.0  0.7500200000000002  0.61607  0.3242899999999999  1.0000
  N   N10       1.0  0.8995000000000001  0.89265  0.4468499999999999  1.0000
  N   N11       1.0  0.2665300000000001  0.5357  0.5388199999999997  1.0000
  N   N12       1.0  0.3954800000000001  0.6424  0.7012999999999998  1.0000
  N   N13       1.0  0.24469000000000005  0.95308  0.79754  1.0000
  N   N14       1.0  0.6316700000000002  0.62638  0.9693899999999998  1.0000
  N   N15       1.0  0.25001  0.88394  0.17571  1.0000
  N   N16       1.0  0.3995300000000001  0.60736  0.05315  1.0000
  N   N17       1.0  0.7665600000000002  0.9643  0.9611699999999997  1.0000
  N   N18       1.0  0.89553  0.85763  0.79869  1.0000
  N   N19       1.0  0.25538  0.4531  0.20244999999999996  1.0000
  N   N20       1.0  0.8683600000000002  0.12638  0.030599999999999992  1.0000
  N   N21       1.0  0.24998000000000006  0.38394  0.8242899999999997  1.0000
  N   N22       1.0  0.10050000000000003  0.10735  0.9468399999999998  1.0000
  N   N23       1.0  0.73346  0.46431000000000006  0.03882  1.0000
  N   N24       1.0  0.6045200000000002  0.35761  0.20131  1.0000
  N   N25       1.0  0.24469000000000005  0.95308  0.70245  1.0000
  N   N26       1.0  0.6316700000000002  0.62638  0.5306099999999998  1.0000
  N   N27       1.0  0.25001  0.88394  0.3242899999999999  1.0000
  N   N28       1.0  0.3995300000000001  0.60736  0.4468499999999999  1.0000
  N   N29       1.0  0.7665600000000002  0.9643  0.5388199999999997  1.0000
  N   N30       1.0  0.89553  0.85763  0.7012999999999998  1.0000
  N   N31       1.0  0.25538  0.4531  0.29754999999999987  1.0000
  N   N32       1.0  0.86835  0.12638  0.46938999999999986  1.0000
  N   N33       1.0  0.24998000000000006  0.38393  0.6757099999999998  1.0000
  N   N34       1.0  0.10049000000000002  0.10735  0.5531499999999998  1.0000
  N   N35       1.0  0.7334700000000002  0.46431000000000006  0.46117999999999987  1.0000
  N   N36       1.0  0.6045200000000002  0.35761  0.2986899999999999  1.0000
  N   N37       1.0  0.75531  0.04692  0.20244999999999996  1.0000
  N   N38       1.0  0.3683200000000001  0.37363  0.03061  1.0000
  N   N39       1.0  0.7499800000000002  0.11607  0.8242899999999997  1.0000
  N   N40       1.0  0.60047  0.39264  0.9468499999999997  1.0000
  N   N41       1.0  0.23344  0.03571  0.03882  1.0000
  N   N42       1.0  0.10447000000000002  0.14237  0.20129999999999995  1.0000
  N   N43       1.0  0.74461  0.54691  0.79755  1.0000
  N   N44       1.0  0.13164  0.87363  0.9693899999999998  1.0000
  N   N45       1.0  0.7500200000000002  0.61607  0.17571  1.0000
  N   N46       1.0  0.8995000000000001  0.89265  0.05315  1.0000
  N   N47       1.0  0.2665300000000001  0.5357  0.9611799999999998  1.0000
  N   N48       1.0  0.3954800000000001  0.6424  0.79869  1.0000
