data_image0
_chemical_formula_structural       Zn4H40C80N8O24
_chemical_formula_sum              "Zn4 H40 C80 N8 O24"
_cell_length_a       10.8591
_cell_length_b       11.33609
_cell_length_c       17.8335
_cell_angle_alpha    89.97853
_cell_angle_beta     89.93357
_cell_angle_gamma    105.60389

_space_group_name_H-M_alt    "P 1"
_space_group_IT_number       1

loop_
  _space_group_symop_operation_xyz
  'x, y, z'

loop_
  _atom_site_type_symbol
  _atom_site_label
  _atom_site_symmetry_multiplicity
  _atom_site_fract_x
  _atom_site_fract_y
  _atom_site_fract_z
  _atom_site_occupancy
  Zn  Zn1       1.0  0.45946  0.8669399999999999  0.99132  1.0000
  Zn  Zn2       1.0  0.04041  0.13302  0.49111000000000005  1.0000
  Zn  Zn3       1.0  0.54054  0.13306  0.00868  1.0000
  Zn  Zn4       1.0  0.9595999999999999  0.86698  0.50889  1.0000
  H   H1        1.0  0.64788  0.84275  0.63397  1.0000
  H   H2        1.0  0.54939  0.8337099999999998  0.7624  1.0000
  H   H3        1.0  0.70888  0.22121999999999997  0.78637  1.0000
  H   H4        1.0  0.80978  0.2295  0.65866  1.0000
  H   H5        1.0  0.21124  0.72378  0.04319  1.0000
  H   H6        1.0  0.08398  0.50364  0.05106  1.0000
  H   H7        1.0  0.3867499999999999  0.40887999999999997  0.9282699999999999  1.0000
  H   H8        1.0  0.50349  0.6342599999999999  0.92548  1.0000
  H   H9        1.0  0.90056  0.13901  0.83758  1.0000
  H   H10       1.0  0.20993  0.08623  0.15827  1.0000
  H   H11       1.0  0.85223  0.15737  0.13382  1.0000
  H   H12       1.0  0.94954  0.16637  0.26247  1.0000
  H   H13       1.0  0.79034  0.7785999999999998  0.28638  1.0000
  H   H14       1.0  0.69036  0.77067  0.15857  1.0000
  H   H15       1.0  0.28873  0.27575  0.54289  1.0000
  H   H16       1.0  0.41593  0.49580999999999986  0.55077  1.0000
  H   H17       1.0  0.11334  0.59086  0.4282  1.0000
  H   H18       1.0  0.9968100000000001  0.36549  0.42538  1.0000
  H   H19       1.0  0.60018  0.86144  0.33763  1.0000
  H   H20       1.0  0.28940999999999995  0.9134399999999999  0.65825  1.0000
  H   H21       1.0  0.35212  0.15725  0.36603  1.0000
  H   H22       1.0  0.45061  0.16628999999999997  0.2376  1.0000
  H   H23       1.0  0.29111999999999993  0.7787799999999999  0.21362  1.0000
  H   H24       1.0  0.19022  0.7705  0.34133  1.0000
  H   H25       1.0  0.78876  0.27623  0.9568099999999999  1.0000
  H   H26       1.0  0.91602  0.49635999999999997  0.94894  1.0000
  H   H27       1.0  0.61325  0.59113  0.07173  1.0000
  H   H28       1.0  0.49651000000000006  0.36574  0.07452  1.0000
  H   H29       1.0  0.09944000000000004  0.86099  0.16241  1.0000
  H   H30       1.0  0.7900799999999999  0.9137799999999998  0.84173  1.0000
  H   H31       1.0  0.14776999999999996  0.8426299999999999  0.86617  1.0000
  H   H32       1.0  0.050459999999999984  0.8336299999999999  0.73753  1.0000
  H   H33       1.0  0.20966999999999997  0.2214  0.71361  1.0000
  H   H34       1.0  0.30964  0.22933999999999996  0.84143  1.0000
  H   H35       1.0  0.71127  0.72425  0.45711000000000007  1.0000
  H   H36       1.0  0.58407  0.5042  0.44923  1.0000
  H   H37       1.0  0.88666  0.40914  0.5718  1.0000
  H   H38       1.0  0.0031900000000000027  0.63452  0.57462  1.0000
  H   H39       1.0  0.39982  0.13857  0.66237  1.0000
  H   H40       1.0  0.71059  0.08657  0.34175  1.0000
  C   C1        1.0  0.8063099999999999  0.03822  0.56719  1.0000
  C   C2        1.0  0.73405  0.03671  0.63888  1.0000
  C   C3        1.0  0.65903  0.92504  0.66747  1.0000
  C   C4        1.0  0.6045699999999999  0.9199899999999998  0.73845  1.0000
  C   C5        1.0  0.62444  0.026679999999999995  0.78192  1.0000
  C   C6        1.0  0.69517  0.13929  0.7522  1.0000
  C   C7        1.0  0.75027  0.14402  0.68131  1.0000
  C   C8        1.0  0.5779  0.018459999999999997  0.86147  1.0000
  C   C9        1.0  0.24553999999999995  0.6510699999999999  0.01802  1.0000
  C   C10       1.0  0.17545  0.529  0.022  1.0000
  C   C11       1.0  0.22682  0.44134  0.9890199999999999  1.0000
  C   C12       1.0  0.34514  0.4769199999999999  0.95314  1.0000
  C   C13       1.0  0.40974  0.601  0.9517  1.0000
  C   C14       1.0  0.19105999999999998  0.24611999999999998  0.05314000000000001  1.0000
  C   C15       1.0  0.11961999999999999  0.11566999999999998  0.05629  1.0000
  C   C16       1.0  0.031150000000000004  0.06395  0.9990100000000001  1.0000
  C   C17       1.0  0.0036000000000000003  0.13596  0.9395700000000001  1.0000
  C   C18       1.0  0.06592999999999999  0.26872999999999997  0.9368699999999999  1.0000
  C   C19       1.0  0.91868  0.08225999999999999  0.88319  1.0000
  C   C20       1.0  0.14258  0.04351  0.11479999999999999  1.0000
  C   C21       1.0  0.6946199999999999  0.9617399999999999  0.0669  1.0000
  C   C22       1.0  0.76616  0.96345  0.13879  1.0000
  C   C23       1.0  0.84074  0.07510999999999998  0.16743  1.0000
  C   C24       1.0  0.89465  0.08011  0.23846999999999996  1.0000
  C   C25       1.0  0.8746699999999998  0.97328  0.28189  1.0000
  C   C26       1.0  0.8041999999999999  0.86065  0.25222  1.0000
  C   C27       1.0  0.74959  0.8560899999999999  0.18129  1.0000
  C   C28       1.0  0.92028  0.98137  0.36153  1.0000
  C   C29       1.0  0.25451  0.34855  0.51776  1.0000
  C   C30       1.0  0.32454  0.47064  0.5217700000000001  1.0000
  C   C31       1.0  0.27324  0.55842  0.48885  1.0000
  C   C32       1.0  0.155  0.5228599999999999  0.4530600000000001  1.0000
  C   C33       1.0  0.09046999999999997  0.3987699999999999  0.45158  1.0000
  C   C34       1.0  0.30825  0.75369  0.55293  1.0000
  C   C35       1.0  0.38003  0.8841  0.55621  1.0000
  C   C36       1.0  0.4688299999999999  0.9360499999999999  0.49899  1.0000
  C   C37       1.0  0.49668999999999996  0.8642099999999999  0.43958  1.0000
  C   C38       1.0  0.43493  0.7313  0.43697  1.0000
  C   C39       1.0  0.58179  0.91812  0.38319  1.0000
  C   C40       1.0  0.35699  0.95612  0.61478  1.0000
  C   C41       1.0  0.19368999999999995  0.9617899999999998  0.43281  1.0000
  C   C42       1.0  0.26595999999999986  0.9632899999999998  0.36112  1.0000
  C   C43       1.0  0.34097  0.07496  0.33253  1.0000
  C   C44       1.0  0.39543  0.08001  0.26154  1.0000
  C   C45       1.0  0.37557  0.9733199999999999  0.21808  1.0000
  C   C46       1.0  0.30482999999999993  0.8607099999999998  0.24779000000000004  1.0000
  C   C47       1.0  0.24973  0.85599  0.31869  1.0000
  C   C48       1.0  0.4220999999999999  0.9815499999999998  0.13852  1.0000
  C   C49       1.0  0.75446  0.3489399999999999  0.98198  1.0000
  C   C50       1.0  0.82455  0.4709999999999999  0.978  1.0000
  C   C51       1.0  0.77318  0.55867  0.01098  1.0000
  C   C52       1.0  0.65486  0.52309  0.04685  1.0000
  C   C53       1.0  0.59026  0.3990099999999999  0.04829  1.0000
  C   C54       1.0  0.80894  0.7538799999999999  0.94686  1.0000
  C   C55       1.0  0.88038  0.8843299999999997  0.9437100000000002  1.0000
  C   C56       1.0  0.96885  0.93606  0.00099  1.0000
  C   C57       1.0  0.9964  0.8640399999999999  0.060419999999999995  1.0000
  C   C58       1.0  0.93407  0.7312699999999999  0.06312  1.0000
  C   C59       1.0  0.08132000000000002  0.91774  0.1168  1.0000
  C   C60       1.0  0.85743  0.9565  0.8852  1.0000
  C   C61       1.0  0.30538  0.03826  0.9331  1.0000
  C   C62       1.0  0.23384  0.03655  0.86121  1.0000
  C   C63       1.0  0.15926000000000007  0.9249  0.83257  1.0000
  C   C64       1.0  0.10535000000000001  0.9199  0.76153  1.0000
  C   C65       1.0  0.12533  0.026719999999999997  0.71811  1.0000
  C   C66       1.0  0.19579999999999997  0.13934999999999997  0.74778  1.0000
  C   C67       1.0  0.25041  0.14391  0.8187  1.0000
  C   C68       1.0  0.07972  0.01863  0.63847  1.0000
  C   C69       1.0  0.7454900000000001  0.65145  0.48222999999999994  1.0000
  C   C70       1.0  0.67547  0.52936  0.47823  1.0000
  C   C71       1.0  0.72676  0.44158  0.51114  1.0000
  C   C72       1.0  0.84501  0.47714  0.54694  1.0000
  C   C73       1.0  0.90953  0.60124  0.54842  1.0000
  C   C74       1.0  0.69175  0.24631999999999998  0.44707  1.0000
  C   C75       1.0  0.61998  0.11591  0.44379  1.0000
  C   C76       1.0  0.53118  0.06396  0.501  1.0000
  C   C77       1.0  0.50331  0.1358  0.56042  1.0000
  C   C78       1.0  0.56507  0.26871  0.56303  1.0000
  C   C79       1.0  0.41821  0.08188  0.61681  1.0000
  C   C80       1.0  0.64301  0.04388999999999999  0.38521  1.0000
  N   N1        1.0  0.3606599999999999  0.6860499999999999  0.9838899999999999  1.0000
  N   N2        1.0  0.15867  0.31362999999999996  0.9928800000000001  1.0000
  N   N3        1.0  0.13956  0.31366  0.48365  1.0000
  N   N4        1.0  0.3412599999999999  0.6862  0.49271  1.0000
  N   N5        1.0  0.63935  0.31394999999999995  0.0161  1.0000
  N   N6        1.0  0.8413300000000001  0.68637  0.007119999999999999  1.0000
  N   N7        1.0  0.8604499999999999  0.6863399999999998  0.51635  1.0000
  N   N8        1.0  0.65874  0.3138  0.50729  1.0000
  O   O1        1.0  0.80278  0.93481  0.53801  1.0000
  O   O2        1.0  0.8714100000000001  0.14218  0.54187  1.0000
  O   O3        1.0  0.52748  0.9106299999999998  0.88671  1.0000
  O   O4        1.0  0.59413  0.11818999999999998  0.89757  1.0000
  O   O5        1.0  0.27279  0.29752  0.09866  1.0000
  O   O6        1.0  0.04189000000000001  0.3393  0.89012  1.0000
  O   O7        1.0  0.69735  0.06514  0.03784  1.0000
  O   O8        1.0  0.63077  0.85761  0.0414  1.0000
  O   O9        1.0  0.97043  0.08919999999999999  0.3868  1.0000
  O   O10       1.0  0.9032599999999997  0.8815799999999998  0.39767  1.0000
  O   O11       1.0  0.22585  0.70249  0.59828  1.0000
  O   O12       1.0  0.46043  0.66099  0.39054  1.0000
  O   O13       1.0  0.19722000000000003  0.06519  0.46199  1.0000
  O   O14       1.0  0.12858999999999998  0.8578199999999999  0.45813  1.0000
  O   O15       1.0  0.47252000000000005  0.08938  0.11328  1.0000
  O   O16       1.0  0.40586999999999995  0.8818099999999999  0.10243  1.0000
  O   O17       1.0  0.7272200000000001  0.70248  0.9013400000000001  1.0000
  O   O18       1.0  0.9581099999999999  0.66071  0.10987  1.0000
  O   O19       1.0  0.3026499999999999  0.9348699999999998  0.9621599999999999  1.0000
  O   O20       1.0  0.36923  0.1424  0.9585999999999999  1.0000
  O   O21       1.0  0.029569999999999926  0.9107999999999998  0.6132  1.0000
  O   O22       1.0  0.09674  0.11843  0.60233  1.0000
  O   O23       1.0  0.77415  0.29752  0.40172  1.0000
  O   O24       1.0  0.53957  0.33902  0.60946  1.0000
