data_image0
_chemical_formula_structural       Zn4H64C64N12O20
_chemical_formula_sum              "Zn4 H64 C64 N12 O20"
_cell_length_a       10.3217
_cell_length_b       14.98434
_cell_length_c       14.970209999999998
_cell_angle_alpha    114.87718
_cell_angle_beta     110.22094
_cell_angle_gamma    90.01813000000001

_space_group_name_H-M_alt    "P 1"
_space_group_IT_number       1

loop_
  _space_group_symop_operation_xyz
  'x, y, z'

loop_
  _atom_site_type_symbol
  _atom_site_label
  _atom_site_symmetry_multiplicity
  _atom_site_fract_x
  _atom_site_fract_y
  _atom_site_fract_z
  _atom_site_occupancy
  Zn  Zn1       1.0  0.4275  0.53502  0.58025  1.0000
  Zn  Zn2       1.0  0.8463200000000001  0.9653900000000001  0.42011  1.0000
  Zn  Zn3       1.0  0.5724900000000002  0.46499  0.41974  1.0000
  Zn  Zn4       1.0  0.15366999999999995  0.03461999999999995  0.5798899999999999  1.0000
  H   H1        1.0  0.7740900000000001  0.7624100000000003  0.54436  1.0000
  H   H2        1.0  0.04794999999999987  0.007489999999999976  0.8346099999999999  1.0000
  H   H3        1.0  0.76457  0.8002999999999999  0.8428499999999998  1.0000
  H   H4        1.0  0.92349  0.5748000000000002  0.71682  1.0000
  H   H5        1.0  0.007940000000000003  0.68787  0.73702  1.0000
  H   H6        1.0  0.33998  0.4133899999999999  0.6818699999999999  1.0000
  H   H7        1.0  0.27499999999999997  0.7090199999999999  0.6350799999999999  1.0000
  H   H8        1.0  0.16975000000000007  0.754  0.71047  1.0000
  H   H9        1.0  0.12907  0.45384000000000013  0.76186  1.0000
  H   H10       1.0  0.06735  0.60025  0.47385999999999995  1.0000
  H   H11       1.0  0.03428999999999995  0.7246599999999999  0.5236799999999999  1.0000
  H   H12       1.0  0.9553400000000001  0.63459  0.54568  1.0000
  H   H13       1.0  0.9921900000000001  0.7010099999999999  0.9046999999999997  1.0000
  H   H14       1.0  0.08230999999999992  0.60047  0.89728  1.0000
  H   H15       1.0  0.20685000000000006  0.80185  0.92707  1.0000
  H   H16       1.0  0.29161999999999993  0.6975199999999999  0.9064899999999998  1.0000
  H   H17       1.0  0.22831  0.7373200000000001  0.45562  1.0000
  H   H18       1.0  0.21223000000000003  0.4924  0.16574999999999998  1.0000
  H   H19       1.0  0.9211  0.6996600000000002  0.15656999999999996  1.0000
  H   H20       1.0  0.20525  0.9247300000000003  0.28238  1.0000
  H   H21       1.0  0.26994  0.81179  0.2624  1.0000
  H   H22       1.0  0.6575799999999999  0.08703999999999995  0.3187699999999999  1.0000
  H   H23       1.0  0.6391  0.7910999999999999  0.3647199999999999  1.0000
  H   H24       1.0  0.45821000000000006  0.7462  0.28962999999999994  1.0000
  H   H25       1.0  0.36640000000000006  0.04614999999999999  0.23785999999999993  1.0000
  H   H26       1.0  0.5933800000000001  0.89974  0.52625  1.0000
  H   H27       1.0  0.51077  0.7752300000000001  0.4764799999999999  1.0000
  H   H28       1.0  0.4092900000000001  0.8650900000000001  0.45447  1.0000
  H   H29       1.0  0.08674000000000003  0.7981700000000003  0.09442  1.0000
  H   H30       1.0  0.18387  0.8989300000000002  0.10183  1.0000
  H   H31       1.0  0.27972  0.69819  0.07308  1.0000
  H   H32       1.0  0.38485000000000014  0.80275  0.09393  1.0000
  H   H33       1.0  0.22589999999999996  0.23758999999999997  0.4556399999999999  1.0000
  H   H34       1.0  0.9520400000000001  0.9925200000000002  0.16539  1.0000
  H   H35       1.0  0.23542000000000002  0.1997  0.15715  1.0000
  H   H36       1.0  0.0765  0.4252100000000001  0.28318  1.0000
  H   H37       1.0  0.99205  0.31214  0.26298  1.0000
  H   H38       1.0  0.6600200000000002  0.58662  0.31813  1.0000
  H   H39       1.0  0.72499  0.29099  0.36492  1.0000
  H   H40       1.0  0.83024  0.24600999999999998  0.28952999999999995  1.0000
  H   H41       1.0  0.87093  0.54616  0.23812999999999995  1.0000
  H   H42       1.0  0.93265  0.39975999999999995  0.5261399999999999  1.0000
  H   H43       1.0  0.9657100000000001  0.27535  0.47631999999999997  1.0000
  H   H44       1.0  0.04465000000000004  0.36542  0.45432  1.0000
  H   H45       1.0  0.007799999999999991  0.299  0.09529999999999998  1.0000
  H   H46       1.0  0.91768  0.39953  0.10271999999999999  1.0000
  H   H47       1.0  0.79314  0.19816000000000006  0.07293  1.0000
  H   H48       1.0  0.70838  0.3024900000000001  0.09350999999999997  1.0000
  H   H49       1.0  0.77169  0.26269  0.54438  1.0000
  H   H50       1.0  0.7877600000000002  0.50761  0.83424  1.0000
  H   H51       1.0  0.07889999999999987  0.3003499999999999  0.8434199999999997  1.0000
  H   H52       1.0  0.7947400000000001  0.07527999999999994  0.71761  1.0000
  H   H53       1.0  0.73005  0.18822  0.73759  1.0000
  H   H54       1.0  0.34242  0.9129700000000001  0.6812199999999998  1.0000
  H   H55       1.0  0.3609  0.20891000000000012  0.63528  1.0000
  H   H56       1.0  0.5417899999999999  0.25381  0.7103599999999998  1.0000
  H   H57       1.0  0.63359  0.95386  0.76213  1.0000
  H   H58       1.0  0.40661  0.10027000000000003  0.47374  1.0000
  H   H59       1.0  0.4892200000000001  0.22477999999999995  0.5235099999999999  1.0000
  H   H60       1.0  0.5907  0.13490999999999995  0.5455299999999998  1.0000
  H   H61       1.0  0.91326  0.20184000000000005  0.90558  1.0000
  H   H62       1.0  0.81612  0.1010799999999999  0.8981699999999998  1.0000
  H   H63       1.0  0.7202700000000001  0.30180999999999997  0.9269199999999997  1.0000
  H   H64       1.0  0.61515  0.19725  0.90606  1.0000
  C   C1        1.0  0.91301  0.8899400000000001  0.68384  1.0000
  C   C2        1.0  0.8130299999999999  0.8035100000000001  0.6305899999999999  1.0000
  C   C3        1.0  0.7621100000000001  0.7697500000000003  0.6880499999999998  1.0000
  C   C4        1.0  0.9581900000000001  0.9290800000000002  0.61999  1.0000
  C   C5        1.0  0.65645  0.67494  0.62825  1.0000
  C   C6        1.0  0.9675000000000001  0.94235  0.7952399999999998  1.0000
  C   C7        1.0  0.8085500000000001  0.82403  0.79857  1.0000
  C   C8        1.0  0.20212999999999998  0.6039399999999999  0.6727199999999999  1.0000
  C   C9        1.0  0.91269  0.90982  0.85259  1.0000
  C   C10       1.0  0.02386999999999994  0.62616  0.7584299999999999  1.0000
  C   C11       1.0  0.27661  0.47157000000000004  0.6882  1.0000
  C   C12       1.0  0.17996  0.68844  0.64435  1.0000
  C   C13       1.0  0.17313000000000006  0.4908699999999999  0.72792  1.0000
  C   C14       1.0  0.05117999999999994  0.6602900000000003  0.5408899999999999  1.0000
  C   C15       1.0  0.0741600000000001  0.6645400000000001  0.87911  1.0000
  C   C16       1.0  0.21591  0.7346500000000001  0.94003  1.0000
  C   C17       1.0  0.22784000000000001  0.6098000000000001  0.31642999999999993  1.0000
  C   C18       1.0  0.18108999999999995  0.69614  0.3693999999999999  1.0000
  C   C19       1.0  0.07288  0.72994  0.31174  1.0000
  C   C20       1.0  0.33704000000000006  0.57096  0.3806  1.0000
  C   C21       1.0  0.02850000000000001  0.8251600000000004  0.37209  1.0000
  C   C22       1.0  0.17113  0.55746  0.20502  1.0000
  C   C23       1.0  0.0089  0.6757600000000002  0.20119  1.0000
  C   C24       1.0  0.5285000000000001  0.89626  0.32747  1.0000
  C   C25       1.0  0.05931  0.59005  0.1474  1.0000
  C   C26       1.0  0.26435  0.87359  0.24107999999999996  1.0000
  C   C27       1.0  0.58771  0.028849999999999997  0.31233  1.0000
  C   C28       1.0  0.53483  0.8117000000000002  0.35575  1.0000
  C   C29       1.0  0.44433  0.009200000000000005  0.27203  1.0000
  C   C30       1.0  0.51006  0.83961  0.45926  1.0000
  C   C31       1.0  0.19424  0.8350600000000002  0.12033  1.0000
  C   C32       1.0  0.2756  0.76528  0.05992999999999998  1.0000
  C   C33       1.0  0.08698  0.11007000000000003  0.31615  1.0000
  C   C34       1.0  0.18696  0.1965  0.36941  1.0000
  C   C35       1.0  0.23787999999999998  0.23026000000000002  0.31194999999999995  1.0000
  C   C36       1.0  0.04181999999999998  0.07093000000000003  0.38001999999999997  1.0000
  C   C37       1.0  0.34354000000000007  0.32507  0.3717499999999999  1.0000
  C   C38       1.0  0.032500000000000015  0.05766  0.20476  1.0000
  C   C39       1.0  0.19143999999999997  0.17598000000000005  0.20143  1.0000
  C   C40       1.0  0.79786  0.3960699999999999  0.3272799999999999  1.0000
  C   C41       1.0  0.08730000000000002  0.09018  0.14741  1.0000
  C   C42       1.0  0.9761300000000003  0.3738500000000001  0.24155999999999994  1.0000
  C   C43       1.0  0.7233799999999999  0.52844  0.3118  1.0000
  C   C44       1.0  0.82003  0.31157  0.35564  1.0000
  C   C45       1.0  0.82686  0.50913  0.27207999999999993  1.0000
  C   C46       1.0  0.94881  0.3397100000000001  0.45911  1.0000
  C   C47       1.0  0.92583  0.33547  0.12088999999999997  1.0000
  C   C48       1.0  0.78409  0.26536  0.059969999999999996  1.0000
  C   C49       1.0  0.77216  0.39020999999999995  0.6835699999999998  1.0000
  C   C50       1.0  0.8189100000000001  0.30387  0.6306  1.0000
  C   C51       1.0  0.9271200000000002  0.27007  0.68825  1.0000
  C   C52       1.0  0.66295  0.42905  0.61941  1.0000
  C   C53       1.0  0.9715100000000001  0.17485  0.62792  1.0000
  C   C54       1.0  0.8288600000000003  0.4425399999999999  0.7949799999999998  1.0000
  C   C55       1.0  0.9911000000000002  0.3242499999999999  0.7988099999999998  1.0000
  C   C56       1.0  0.4714900000000001  0.10375000000000002  0.67253  1.0000
  C   C57       1.0  0.9406900000000001  0.4099499999999999  0.8525999999999998  1.0000
  C   C58       1.0  0.73564  0.12641999999999995  0.7589199999999998  1.0000
  C   C59       1.0  0.41227999999999987  0.9711599999999999  0.6876599999999998  1.0000
  C   C60       1.0  0.46516  0.18831000000000006  0.64425  1.0000
  C   C61       1.0  0.5556600000000002  0.9908100000000001  0.72797  1.0000
  C   C62       1.0  0.48994  0.16039999999999996  0.54074  1.0000
  C   C63       1.0  0.8057500000000002  0.16493999999999995  0.87967  1.0000
  C   C64       1.0  0.72439  0.23473  0.9400699999999997  1.0000
  N   N1        1.0  0.29341  0.54167  0.65363  1.0000
  N   N2        1.0  0.12634999999999993  0.57411  0.7173199999999998  1.0000
  N   N3        1.0  0.9474700000000001  0.95972  0.9673299999999998  1.0000
  N   N4        1.0  0.63898  0.9586000000000002  0.34672  1.0000
  N   N5        1.0  0.40806  0.9259600000000002  0.28263999999999995  1.0000
  N   N6        1.0  0.9809000000000001  0.54089  0.03242  1.0000
  N   N7        1.0  0.7065800000000001  0.45833  0.34637  1.0000
  N   N8        1.0  0.8736500000000003  0.4259  0.28268  1.0000
  N   N9        1.0  0.052530000000000014  0.04028  0.03267  1.0000
  N   N10       1.0  0.36102  0.041399999999999985  0.65327  1.0000
  N   N11       1.0  0.59194  0.07404999999999996  0.7173599999999999  1.0000
  N   N12       1.0  0.019099999999999978  0.4591199999999999  0.9675799999999999  1.0000
  O   O1        1.0  0.57107  0.66573  0.6692799999999999  1.0000
  O   O2        1.0  0.08399000000000002  0.97302  0.6595  1.0000
  O   O3        1.0  0.86261  0.91458  0.53172  1.0000
  O   O4        1.0  0.66325  0.61252  0.5411299999999999  1.0000
  O   O5        1.0  0.87618  0.9265100000000001  0.00464  1.0000
  O   O6        1.0  0.90177  0.8347  0.3323599999999999  1.0000
  O   O7        1.0  0.42277  0.52668  0.3408899999999999  1.0000
  O   O8        1.0  0.33045  0.5859200000000002  0.46915  1.0000
  O   O9        1.0  0.12398000000000002  0.8873500000000003  0.45841999999999994  1.0000
  O   O10       1.0  0.87545  0.57631  0.9942799999999998  1.0000
  O   O11       1.0  0.42893  0.33427  0.3307199999999999  1.0000
  O   O12       1.0  0.9160000000000001  0.02698999999999997  0.3404999999999999  1.0000
  O   O13       1.0  0.13737999999999995  0.08542999999999995  0.4682699999999999  1.0000
  O   O14       1.0  0.33674999999999994  0.38747999999999994  0.4588599999999999  1.0000
  O   O15       1.0  0.12380999999999989  0.07349999999999995  0.9953599999999999  1.0000
  O   O16       1.0  0.09822  0.16530999999999998  0.66764  1.0000
  O   O17       1.0  0.57723  0.47332  0.6591  1.0000
  O   O18       1.0  0.66955  0.4140800000000001  0.53085  1.0000
  O   O19       1.0  0.876  0.11266000000000002  0.54157  1.0000
  O   O20       1.0  0.12455  0.42370000000000013  0.005709999999999998  1.0000
