data_image0
_chemical_formula_structural       Zn6H42C90O24
_chemical_formula_sum              "Zn6 H42 C90 O24"
_cell_length_a       16.29823
_cell_length_b       16.69291
_cell_length_c       16.6929
_cell_angle_alpha    109.94324
_cell_angle_beta     109.04882
_cell_angle_gamma    109.04881

_symmetry_space_group_name_H-M    'P 1'
_symmetry_Int_Tables_number       1

loop_
  _symmetry_equiv_pos_as_xyz
  'x,y,z'

loop_
  _atom_site_type_symbol
  _atom_site_label
  _atom_site_symmetry_multiplicity
  _atom_site_fract_x
  _atom_site_fract_y
  _atom_site_fract_z
  _atom_site_occupancy
  Zn  Zn1       1.0  0.48015  0.9998100000000001  0.41801  1.0000
  Zn  Zn2       1.0  0.06298999999999999  0.58121  0.58121  1.0000
  Zn  Zn3       1.0  0.48015  0.41801  0.99981  1.0000
  Zn  Zn4       1.0  0.93701  0.41879  0.41879  1.0000
  Zn  Zn5       1.0  0.5198499999999998  0.00018999999999998426  0.58199  1.0000
  Zn  Zn6       1.0  0.5198499999999998  0.58199  0.00019000000000000004  1.0000
  H   H1        1.0  0.4677  0.26113  0.48748  1.0000
  H   H2        1.0  0.31778  0.34647  0.52889  1.0000
  H   H3        1.0  0.16203  0.33859  0.42967  1.0000
  H   H4        1.0  0.9804699999999997  0.51304  0.7740300000000001  1.0000
  H   H5        1.0  0.7888199999999999  0.47095  0.81724  1.0000
  H   H6        1.0  0.73248  0.57007  0.90866  1.0000
  H   H7        1.0  0.20646999999999996  0.22623  0.73866  1.0000
  H   H8        1.0  0.97162  0.18248999999999996  0.65334  1.0000
  H   H9        1.0  0.8237599999999998  0.09099  0.66119  1.0000
  H   H10       1.0  0.01953000000000006  0.22597000000000003  0.48697000000000007  1.0000
  H   H11       1.0  0.21117999999999998  0.18275999999999998  0.52905  1.0000
  H   H12       1.0  0.26752  0.09134999999999997  0.42993  1.0000
  H   H13       1.0  0.79353  0.2613400000000001  0.77377  1.0000
  H   H14       1.0  0.028379999999999996  0.34666  0.81751  1.0000
  H   H15       1.0  0.17623999999999998  0.33881  0.90901  1.0000
  H   H16       1.0  0.5322999999999998  0.51253  0.73888  1.0000
  H   H17       1.0  0.6822199999999998  0.4711199999999999  0.65353  1.0000
  H   H18       1.0  0.83797  0.57034  0.6614100000000002  1.0000
  H   H19       1.0  0.5322999999999998  0.73888  0.51253  1.0000
  H   H20       1.0  0.6822199999999998  0.65353  0.47112  1.0000
  H   H21       1.0  0.83797  0.66141  0.57034  1.0000
  H   H22       1.0  0.019520000000000006  0.48697  0.22597000000000003  1.0000
  H   H23       1.0  0.21118  0.52905  0.18276  1.0000
  H   H24       1.0  0.26752  0.42993  0.09135  1.0000
  H   H25       1.0  0.79353  0.77377  0.26134  1.0000
  H   H26       1.0  0.02838000000000009  0.81751  0.34666  1.0000
  H   H27       1.0  0.1762399999999999  0.90901  0.33881  1.0000
  H   H28       1.0  0.9804699999999997  0.77403  0.51304  1.0000
  H   H29       1.0  0.7888199999999999  0.81724  0.47095  1.0000
  H   H30       1.0  0.73248  0.90865  0.57007  1.0000
  H   H31       1.0  0.20647000000000001  0.73866  0.22623  1.0000
  H   H32       1.0  0.97162  0.65334  0.18249  1.0000
  H   H33       1.0  0.8237599999999997  0.66119  0.09099  1.0000
  H   H34       1.0  0.46769999999999995  0.48748  0.26113  1.0000
  H   H35       1.0  0.31778  0.52889  0.34647  1.0000
  H   H36       1.0  0.16203  0.42967  0.33859  1.0000
  H   H37       1.0  0.5  0.25056  0.74945  1.0000
  H   H38       1.0  0.75051  0.25044  0.50102  1.0000
  H   H39       1.0  0.24949  0.49898  0.74957  1.0000
  H   H40       1.0  0.5  0.74945  0.25056  1.0000
  H   H41       1.0  0.24949  0.74957  0.49898  1.0000
  H   H42       1.0  0.75051  0.50102  0.25044  1.0000
  C   C1        1.0  0.48229  0.24559  0.61359  1.0000
  C   C2        1.0  0.48157999999999995  0.29687  0.56218  1.0000
  C   C3        1.0  0.47068999999999994  0.14583999999999994  0.56777  1.0000
  C   C4        1.0  0.41016  0.44260000000000005  0.49563000000000007  1.0000
  C   C5        1.0  0.31809  0.38612  0.48898  1.0000
  C   C6        1.0  0.23128999999999997  0.38167  0.43368  1.0000
  C   C7        1.0  0.8687600000000001  0.38663  0.63212  1.0000
  C   C8        1.0  0.9195599999999999  0.43821  0.7349  1.0000
  C   C9        1.0  0.9028799999999999  0.43233  0.57812  1.0000
  C   C10       1.0  0.91457  0.50439  0.94688  1.0000
  C   C11       1.0  0.8291199999999999  0.51089  0.89689  1.0000
  C   C12       1.0  0.7977399999999998  0.56614  0.94779  1.0000
  C   C13       1.0  0.23662999999999992  0.368  0.75438  1.0000
  C   C14       1.0  0.18462  0.26523  0.70296  1.0000
  C   C15       1.0  0.32474000000000003  0.42197  0.85428  1.0000
  C   C16       1.0  0.96759  0.05297000000000007  0.55727  1.0000
  C   C17       1.0  0.9321799999999999  0.10285999999999998  0.6137399999999998  1.0000
  C   C18       1.0  0.84986  0.05191000000000006  0.6181500000000001  1.0000
  C   C19       1.0  0.13124  0.36788  0.61337  1.0000
  C   C20       1.0  0.08043999999999996  0.2651  0.5618  1.0000
  C   C21       1.0  0.09712000000000005  0.42188  0.56768  1.0000
  C   C22       1.0  0.08543  0.05313  0.49561  1.0000
  C   C23       1.0  0.17087  0.10312  0.48911  1.0000
  C   C24       1.0  0.20226  0.05221000000000002  0.43386  1.0000
  C   C25       1.0  0.76337  0.24563000000000004  0.632  1.0000
  C   C26       1.0  0.81538  0.29704  0.73477  1.0000
  C   C27       1.0  0.67525  0.14572  0.57803  1.0000
  C   C28       1.0  0.03241000000000006  0.44273000000000007  0.9470300000000001  1.0000
  C   C29       1.0  0.06782  0.38626  0.89715  1.0000
  C   C30       1.0  0.15014000000000008  0.3818500000000001  0.9481000000000002  1.0000
  C   C31       1.0  0.5176999999999998  0.38641  0.75441  1.0000
  C   C32       1.0  0.51842  0.43782  0.70313  1.0000
  C   C33       1.0  0.52931  0.43223  0.85416  1.0000
  C   C34       1.0  0.58984  0.50437  0.5574  1.0000
  C   C35       1.0  0.6818999999999998  0.51102  0.61389  1.0000
  C   C36       1.0  0.76871  0.56633  0.61833  1.0000
  C   C37       1.0  0.5176999999999998  0.75441  0.38641  1.0000
  C   C38       1.0  0.51842  0.70313  0.43782  1.0000
  C   C39       1.0  0.52931  0.85416  0.43223  1.0000
  C   C40       1.0  0.58984  0.5574  0.50437  1.0000
  C   C41       1.0  0.6819100000000002  0.61389  0.51102  1.0000
  C   C42       1.0  0.76871  0.61833  0.56633  1.0000
  C   C43       1.0  0.13124000000000002  0.61337  0.36788000000000004  1.0000
  C   C44       1.0  0.08043999999999994  0.5618  0.2651  1.0000
  C   C45       1.0  0.09712  0.56768  0.42188  1.0000
  C   C46       1.0  0.08543  0.49561  0.05313  1.0000
  C   C47       1.0  0.17087  0.48911  0.10312  1.0000
  C   C48       1.0  0.20226  0.43386  0.05221  1.0000
  C   C49       1.0  0.76337  0.632  0.24563  1.0000
  C   C50       1.0  0.8153700000000002  0.73477  0.29704  1.0000
  C   C51       1.0  0.6752499999999998  0.57803  0.14572  1.0000
  C   C52       1.0  0.03241  0.94703  0.44273  1.0000
  C   C53       1.0  0.06782000000000003  0.89714  0.38626  1.0000
  C   C54       1.0  0.15014000000000008  0.9481  0.38185  1.0000
  C   C55       1.0  0.86876  0.63212  0.38663  1.0000
  C   C56       1.0  0.91955  0.7349  0.43821  1.0000
  C   C57       1.0  0.9028800000000001  0.57812  0.43233  1.0000
  C   C58       1.0  0.91457  0.94688  0.5044  1.0000
  C   C59       1.0  0.8291200000000001  0.89689  0.51089  1.0000
  C   C60       1.0  0.7977399999999998  0.94779  0.56614  1.0000
  C   C61       1.0  0.23662999999999995  0.75438  0.368  1.0000
  C   C62       1.0  0.18462000000000003  0.7029600000000001  0.26523  1.0000
  C   C63       1.0  0.3247399999999999  0.85428  0.42197  1.0000
  C   C64       1.0  0.9675799999999999  0.55727  0.05297000000000001  1.0000
  C   C65       1.0  0.93218  0.61374  0.10286  1.0000
  C   C66       1.0  0.84986  0.61815  0.05191  1.0000
  C   C67       1.0  0.48228999999999994  0.61359  0.24559  1.0000
  C   C68       1.0  0.48157999999999984  0.56218  0.29687  1.0000
  C   C69       1.0  0.47069000000000005  0.56777  0.14584  1.0000
  C   C70       1.0  0.41016  0.49563  0.4426  1.0000
  C   C71       1.0  0.31809  0.48898  0.38612  1.0000
  C   C72       1.0  0.23129  0.43368  0.38167  1.0000
  C   C73       1.0  0.5  0.29029  0.70972  1.0000
  C   C74       1.0  0.5  0.3934  0.6066  1.0000
  C   C75       1.0  0.5  0.4479400000000001  0.55206  1.0000
  C   C76       1.0  0.79029  0.29032  0.58057  1.0000
  C   C77       1.0  0.89353  0.39367  0.78687  1.0000
  C   C78       1.0  0.94803  0.44815  0.89593  1.0000
  C   C79       1.0  0.20971  0.41943  0.70969  1.0000
  C   C80       1.0  0.10647000000000001  0.21313000000000004  0.60634  1.0000
  C   C81       1.0  0.05196999999999999  0.10406999999999995  0.55186  1.0000
  C   C82       1.0  0.5  0.7097200000000001  0.29029  1.0000
  C   C83       1.0  0.5  0.6066  0.3934  1.0000
  C   C84       1.0  0.5  0.55206  0.44794  1.0000
  C   C85       1.0  0.20971000000000006  0.70969  0.41943  1.0000
  C   C86       1.0  0.10647  0.60633  0.21313  1.0000
  C   C87       1.0  0.05197000000000001  0.55186  0.10407  1.0000
  C   C88       1.0  0.79029  0.58057  0.29032  1.0000
  C   C89       1.0  0.8935300000000002  0.7868700000000001  0.3936700000000001  1.0000
  C   C90       1.0  0.94803  0.8959299999999999  0.44815  1.0000
  O   O1        1.0  0.45005  0.10699000000000002  0.47802  1.0000
  O   O2        1.0  0.48569  0.10797000000000005  0.62238  1.0000
  O   O3        1.0  0.9725100000000001  0.52196  0.62882  1.0000
  O   O4        1.0  0.86251  0.37755  0.48545000000000005  1.0000
  O   O5        1.0  0.34273999999999993  0.37093  0.893  1.0000
  O   O6        1.0  0.3778  0.51456  0.89238  1.0000
  O   O7        1.0  0.02748999999999999  0.37119  0.47805  1.0000
  O   O8        1.0  0.13749000000000006  0.5145500000000001  0.6224600000000001  1.0000
  O   O9        1.0  0.65725  0.10701  0.62907  1.0000
  O   O10       1.0  0.6222  0.10762999999999999  0.48544  1.0000
  O   O11       1.0  0.5499400000000001  0.5219900000000001  0.8930100000000001  1.0000
  O   O12       1.0  0.5143099999999998  0.37762000000000007  0.8920300000000001  1.0000
  O   O13       1.0  0.54994  0.89301  0.52199  1.0000
  O   O14       1.0  0.5143099999999999  0.89203  0.37762000000000007  1.0000
  O   O15       1.0  0.02748999999999999  0.47805  0.37119  1.0000
  O   O16       1.0  0.13749  0.62246  0.51455  1.0000
  O   O17       1.0  0.65725  0.62907  0.10701  1.0000
  O   O18       1.0  0.6222  0.48544  0.10763  1.0000
  O   O19       1.0  0.97251  0.62882  0.52196  1.0000
  O   O20       1.0  0.86251  0.48545000000000005  0.37755  1.0000
  O   O21       1.0  0.34274000000000004  0.8930000000000001  0.37093  1.0000
  O   O22       1.0  0.3778  0.8923799999999998  0.51456  1.0000
  O   O23       1.0  0.45005  0.47802  0.10699  1.0000
  O   O24       1.0  0.48569  0.62238  0.10798  1.0000
