data_image0
_chemical_formula_structural       Cd4H68C68N20O16
_chemical_formula_sum              "Cd4 H68 C68 N20 O16"
_cell_length_a       12.10909
_cell_length_b       11.99659
_cell_length_c       15.921410000000002
_cell_angle_alpha    104.76671999999999
_cell_angle_beta     105.69655
_cell_angle_gamma    108.18261999999999

_symmetry_space_group_name_H-M    'P 1'
_symmetry_Int_Tables_number       1

loop_
  _symmetry_equiv_pos_as_xyz
  'x,y,z'

loop_
  _atom_site_type_symbol
  _atom_site_label
  _atom_site_symmetry_multiplicity
  _atom_site_fract_x
  _atom_site_fract_y
  _atom_site_fract_z
  _atom_site_occupancy
  Cd  Cd1       1.0  0.7084100000000001  0.83705  0.37605  1.0000
  Cd  Cd2       1.0  0.04138999999999993  0.6678599999999999  0.8776499999999998  1.0000
  Cd  Cd3       1.0  0.95862  0.33213  0.12235  1.0000
  Cd  Cd4       1.0  0.2916  0.16295  0.62396  1.0000
  H   H1        1.0  0.40354  0.09226000000000006  0.80599  1.0000
  H   H2        1.0  0.07742  0.22302  0.95438  1.0000
  H   H3        1.0  0.218  0.23224999999999998  0.17001  1.0000
  H   H4        1.0  0.67685  0.32999  0.11167  1.0000
  H   H5        1.0  0.64134  0.0017700000000000148  0.7958  1.0000
  H   H6        1.0  0.44239  0.9566899999999999  0.66805  1.0000
  H   H7        1.0  0.0025699999999999595  0.14378999999999995  0.63421  1.0000
  H   H8        1.0  0.42614000000000013  0.54968  0.05401  1.0000
  H   H9        1.0  0.06097000000000006  0.64936  0.345  1.0000
  H   H10       1.0  0.5837200000000001  0.7188100000000001  0.70763  1.0000
  H   H11       1.0  0.57387  0.45032  0.94599  1.0000
  H   H12       1.0  0.27499  0.31273  0.42623  1.0000
  H   H13       1.0  0.98898  0.63443  0.1337  1.0000
  H   H14       1.0  0.35867000000000016  0.9982300000000001  0.20421  1.0000
  H   H15       1.0  0.2961  0.15676999999999994  0.29672999999999994  1.0000
  H   H16       1.0  0.48889  0.12298  0.2104  1.0000
  H   H17       1.0  0.8905000000000001  0.86983  0.5672799999999999  1.0000
  H   H18       1.0  0.39886  0.40601  0.80254  1.0000
  H   H19       1.0  0.03822000000000001  0.024449999999999996  0.1768  1.0000
  H   H20       1.0  0.10632000000000001  0.59903  0.69731  1.0000
  H   H21       1.0  0.31751000000000007  0.19237999999999997  0.11675999999999997  1.0000
  H   H22       1.0  0.93904  0.35063999999999984  0.6549999999999998  1.0000
  H   H23       1.0  0.22703999999999996  0.87462  0.45292999999999994  1.0000
  H   H24       1.0  0.47178  0.5699799999999999  0.8700899999999999  1.0000
  H   H25       1.0  0.65999  0.14271  0.67832  1.0000
  H   H26       1.0  0.61537  0.15143999999999994  0.92906  1.0000
  H   H27       1.0  0.41629  0.28119  0.29237  1.0000
  H   H28       1.0  0.38464  0.84856  0.07094  1.0000
  H   H29       1.0  0.78201  0.7677399999999999  0.8299899999999999  1.0000
  H   H30       1.0  0.8036200000000001  0.32258  0.9344  1.0000
  H   H31       1.0  0.92259  0.77698  0.04562  1.0000
  H   H32       1.0  0.6824900000000002  0.80761  0.88325  1.0000
  H   H33       1.0  0.34002  0.85729  0.32168  1.0000
  H   H34       1.0  0.79936  0.39511  0.37035  1.0000
  H   H35       1.0  0.51112  0.8770099999999998  0.7895999999999997  1.0000
  H   H36       1.0  0.08841999999999998  0.51538  0.4460799999999999  1.0000
  H   H37       1.0  0.01102999999999997  0.36557  0.8663  1.0000
  H   H38       1.0  0.19563999999999995  0.28029999999999994  0.84653  1.0000
  H   H39       1.0  0.77297  0.12538  0.54707  1.0000
  H   H40       1.0  0.78937  0.59677  0.696  1.0000
  H   H41       1.0  0.99744  0.85621  0.3658  1.0000
  H   H42       1.0  0.20065  0.60489  0.62965  1.0000
  H   H43       1.0  0.5964699999999998  0.9077399999999999  0.19401  1.0000
  H   H44       1.0  0.21064  0.40323  0.304  1.0000
  H   H45       1.0  0.70391  0.84323  0.70327  1.0000
  H   H46       1.0  0.32316000000000006  0.6700000000000002  0.88833  1.0000
  H   H47       1.0  0.9944599999999997  0.37024999999999997  0.44663999999999987  1.0000
  H   H48       1.0  0.9617900000000001  0.97554  0.8232  1.0000
  H   H49       1.0  0.10951  0.13016  0.43272  1.0000
  H   H50       1.0  0.89369  0.40097  0.30268999999999996  1.0000
  H   H51       1.0  0.28085  0.4350899999999999  0.61008  1.0000
  H   H52       1.0  0.7545699999999997  0.02630999999999986  0.9955099999999998  1.0000
  H   H53       1.0  0.5746300000000001  0.19886  0.38584  1.0000
  H   H54       1.0  0.8043700000000001  0.7196999999999999  0.15347  1.0000
  H   H55       1.0  0.60115  0.59399  0.19747  1.0000
  H   H56       1.0  0.42538  0.8011399999999999  0.61417  1.0000
  H   H57       1.0  0.005539999999999913  0.6297499999999999  0.55337  1.0000
  H   H58       1.0  0.72502  0.68727  0.57377  1.0000
  H   H59       1.0  0.52823  0.43002  0.12991  1.0000
  H   H60       1.0  0.55762  0.043309999999999994  0.33195  1.0000
  H   H61       1.0  0.56993  0.644  0.05317  1.0000
  H   H62       1.0  0.24544  0.97368  0.0045  1.0000
  H   H63       1.0  0.19639000000000006  0.67742  0.0656  1.0000
  H   H64       1.0  0.4300800000000001  0.356  0.94684  1.0000
  H   H65       1.0  0.471  0.24115  0.49812  1.0000
  H   H66       1.0  0.52901  0.7588499999999999  0.50188  1.0000
  H   H67       1.0  0.7191600000000001  0.56491  0.38992  1.0000
  H   H68       1.0  0.9115900000000001  0.48462  0.55392  1.0000
  C   C1        1.0  0.8049100000000002  0.62648  0.13802  1.0000
  C   C2        1.0  0.95106  0.7662599999999999  0.3703  1.0000
  C   C3        1.0  0.9299600000000002  0.18756  0.25854  1.0000
  C   C4        1.0  0.4557  0.5952399999999999  0.30001  1.0000
  C   C5        1.0  0.9925300000000002  0.14484999999999995  0.94224  1.0000
  C   C6        1.0  0.14226  0.32592  0.3116  1.0000
  C   C7        1.0  0.30551000000000006  0.63896  0.17731  1.0000
  C   C8        1.0  0.17728000000000002  0.27466999999999997  0.37852  1.0000
  C   C9        1.0  0.8043400000000003  0.6174100000000001  0.38249  1.0000
  C   C10       1.0  0.71004  0.29636  0.88389  1.0000
  C   C11       1.0  0.99988  0.46526  0.45246  1.0000
  C   C12       1.0  0.57246  0.32794000000000006  0.76008  1.0000
  C   C13       1.0  0.41923  0.13946000000000003  0.46805  1.0000
  C   C14       1.0  0.42755  0.67205  0.23992  1.0000
  C   C15       1.0  0.6945  0.36103  0.82269  1.0000
  C   C16       1.0  0.34986000000000006  0.9384  0.3770799999999999  1.0000
  C   C17       1.0  0.42500000000000004  0.09678999999999999  0.24667  1.0000
  C   C18       1.0  0.70609  0.052299999999999985  0.55834  1.0000
  C   C19       1.0  0.60583  0.20114  0.8809  1.0000
  C   C20       1.0  0.26398  0.57666  0.88151  1.0000
  C   C21       1.0  0.0001300000000000467  0.53473  0.54754  1.0000
  C   C22       1.0  0.88986  0.45034  0.36922999999999995  1.0000
  C   C23       1.0  0.04894999999999994  0.23373999999999998  0.6297  1.0000
  C   C24       1.0  0.73528  0.8322799999999999  0.8397  1.0000
  C   C25       1.0  0.29392  0.94769  0.44166  1.0000
  C   C26       1.0  0.13695  0.98449  0.67627  1.0000
  C   C27       1.0  0.5139500000000002  0.54856  0.04753  1.0000
  C   C28       1.0  0.80928  0.45927  0.82437  1.0000
  C   C29       1.0  0.28997  0.7036399999999999  0.11611  1.0000
  C   C30       1.0  0.48606  0.45143999999999995  0.9524799999999998  1.0000
  C   C31       1.0  0.65014  0.0616  0.62292  1.0000
  C   C32       1.0  0.06352999999999998  0.97715  0.12228  1.0000
  C   C33       1.0  0.89538  0.58332  0.12946  1.0000
  C   C34       1.0  0.7933200000000001  0.15727  0.19983  1.0000
  C   C35       1.0  0.4948700000000001  0.8978699999999998  0.6584399999999999  1.0000
  C   C36       1.0  0.6474700000000001  0.81955  0.74486  1.0000
  C   C37       1.0  0.8577499999999999  0.6740699999999998  0.6883999999999998  1.0000
  C   C38       1.0  0.8630600000000002  0.01550999999999997  0.32373999999999997  1.0000
  C   C39       1.0  0.48796000000000006  0.16899999999999996  0.8140299999999999  1.0000
  C   C40       1.0  0.07004999999999993  0.8124399999999999  0.74147  1.0000
  C   C41       1.0  0.08541999999999994  0.17345999999999998  0.3820999999999999  1.0000
  C   C42       1.0  0.11015000000000001  0.54966  0.63078  1.0000
  C   C43       1.0  0.8227300000000001  0.72533  0.6214899999999999  1.0000
  C   C44       1.0  0.10463000000000003  0.41667  0.87055  1.0000
  C   C45       1.0  0.17379  0.95299  0.03364  1.0000
  C   C46       1.0  0.51205  0.8309999999999998  0.18597  1.0000
  C   C47       1.0  0.50514  0.10212999999999997  0.34156999999999993  1.0000
  C   C48       1.0  0.58078  0.8605399999999999  0.53195  1.0000
  C   C49       1.0  0.95983  0.12815  0.3214  1.0000
  C   C50       1.0  0.015280000000000023  0.33406  0.63877  1.0000
  C   C51       1.0  0.007479999999999953  0.8551499999999999  0.057759999999999985  1.0000
  C   C52       1.0  0.91459  0.82654  0.6178999999999998  1.0000
  C   C53       1.0  0.4164900000000001  0.47730999999999996  0.86904  1.0000
  C   C54       1.0  0.7360300000000001  0.42334  0.11849  1.0000
  C   C55       1.0  0.35254  0.18045  0.25515  1.0000
  C   C56       1.0  0.040180000000000014  0.87185  0.67861  1.0000
  C   C57       1.0  0.19567  0.38259  0.61751  1.0000
  C   C58       1.0  0.5443099999999998  0.40474999999999983  0.6999899999999998  1.0000
  C   C59       1.0  0.1951  0.37351999999999996  0.86198  1.0000
  C   C60       1.0  0.19073000000000007  0.54072  0.17563  1.0000
  C   C61       1.0  0.58352  0.52268  0.13097  1.0000
  C   C62       1.0  0.82622  0.04701000000000003  0.96636  1.0000
  C   C63       1.0  0.3941800000000001  0.79886  0.1191  1.0000
  C   C64       1.0  0.20669  0.84273  0.80017  1.0000
  C   C65       1.0  0.9847300000000001  0.66594  0.36123  1.0000
  C   C66       1.0  0.26473  0.16772000000000004  0.1603  1.0000
  C   C67       1.0  0.93648  0.022849999999999954  0.8777199999999998  1.0000
  C   C68       1.0  0.57501  0.90321  0.75333  1.0000
  N   N1        1.0  0.47332  0.23112000000000005  0.7551199999999999  1.0000
  N   N2        1.0  0.9226  0.1588199999999999  0.99693  1.0000
  N   N3        1.0  0.57033  0.93898  0.6049399999999998  1.0000
  N   N4        1.0  0.10938000000000003  0.42756  0.63089  1.0000
  N   N5        1.0  0.42968  0.06101  0.39506  1.0000
  N   N6        1.0  0.29536  0.47616  0.86905  1.0000
  N   N7        1.0  0.14828000000000005  0.543  0.8824  1.0000
  N   N8        1.0  0.83854  0.73499  0.3831899999999999  1.0000
  N   N9        1.0  0.9786100000000002  0.7185199999999998  0.7470899999999998  1.0000
  N   N10       1.0  0.89063  0.5724399999999998  0.3691199999999999  1.0000
  N   N11       1.0  0.7046500000000002  0.52384  0.13095  1.0000
  N   N12       1.0  0.3376299999999999  0.07354999999999998  0.49780999999999986  1.0000
  N   N13       1.0  0.8517300000000001  0.45699999999999996  0.11761  1.0000
  N   N14       1.0  0.16875  0.03825  0.10577  1.0000
  N   N15       1.0  0.52669  0.76888  0.24488  1.0000
  N   N16       1.0  0.0214  0.28148  0.25292  1.0000
  N   N17       1.0  0.6623800000000001  0.92645  0.50219  1.0000
  N   N18       1.0  0.07741000000000002  0.84118  0.00308  1.0000
  N   N19       1.0  0.83126  0.96175  0.89423  1.0000
  N   N20       1.0  0.16147  0.26499999999999996  0.61681  1.0000
  O   O1        1.0  0.18342999999999998  0.08799999999999986  0.7445299999999999  1.0000
  O   O2        1.0  0.15656  0.96664  0.59956  1.0000
  O   O3        1.0  0.6248200000000003  0.51494  0.7259799999999998  1.0000
  O   O4        1.0  0.4384299999999999  0.35165  0.62983  1.0000
  O   O5        1.0  0.13214  0.441  0.10033  1.0000
  O   O6        1.0  0.37519  0.48506  0.27403  1.0000
  O   O7        1.0  0.15531999999999993  0.5667199999999999  0.24269  1.0000
  O   O8        1.0  0.56158  0.64835  0.37017  1.0000
  O   O9        1.0  0.8446900000000002  0.43327999999999983  0.7573099999999998  1.0000
  O   O10       1.0  0.7748300000000001  0.18814  0.12736  1.0000
  O   O11       1.0  0.71158  0.10960999999999997  0.22951999999999997  1.0000
  O   O12       1.0  0.8165800000000001  0.912  0.25547  1.0000
  O   O13       1.0  0.22517999999999996  0.81186  0.87264  1.0000
  O   O14       1.0  0.8678700000000003  0.559  0.89967  1.0000
  O   O15       1.0  0.28843  0.89038  0.77048  1.0000
  O   O16       1.0  0.8434499999999999  0.033359999999999966  0.40045  1.0000
