data_image0
_chemical_formula_structural       Cu3H72C72N24
_chemical_formula_sum              "Cu3 H72 C72 N24"
_cell_length_a       9.12204
_cell_length_b       13.08764
_cell_length_c       17.68197
_cell_angle_alpha    79.65976
_cell_angle_beta     85.03779
_cell_angle_gamma    78.7283

_space_group_name_H-M_alt    "P 1"
_space_group_IT_number       1

loop_
  _space_group_symop_operation_xyz
  'x, y, z'

loop_
  _atom_site_type_symbol
  _atom_site_label
  _atom_site_symmetry_multiplicity
  _atom_site_fract_x
  _atom_site_fract_y
  _atom_site_fract_z
  _atom_site_occupancy
  Cu  Cu1       1.0  0.34802999999999995  0.31536  0.38789  1.0000
  Cu  Cu2       1.0  0.65201  0.6846399999999999  0.61212  1.0000
  Cu  Cu3       1.0  0.9997100000000001  0.99997  0.99992  1.0000
  H   H1        1.0  0.3401599999999999  0.4978300000000001  0.80977  1.0000
  H   H2        1.0  0.20323000000000008  0.28422  0.008239999999999999  1.0000
  H   H3        1.0  0.16661  0.6153  0.01837  1.0000
  H   H4        1.0  0.33796999999999994  0.67451  0.8153199999999998  1.0000
  H   H5        1.0  0.15360000000000004  0.7163  0.8505  1.0000
  H   H6        1.0  0.12153999999999997  0.86919  0.90823  1.0000
  H   H7        1.0  0.53288  0.8408  0.007339999999999999  1.0000
  H   H8        1.0  0.53686  0.66232  0.9420699999999999  1.0000
  H   H9        1.0  0.32574  0.3217  0.79555  1.0000
  H   H10       1.0  0.40829  0.22934999999999997  0.87312  1.0000
  H   H11       1.0  0.2833500000000001  0.0832  0.93492  1.0000
  H   H12       1.0  0.8279599999999999  0.21320000000000003  0.90126  1.0000
  H   H13       1.0  2.0000000000020076e-05  0.35461  0.8210699999999999  1.0000
  H   H14       1.0  0.01142  0.48983  0.10752  1.0000
  H   H15       1.0  0.06886  0.35195  0.11077999999999998  1.0000
  H   H16       1.0  0.13555999999999999  0.29429  0.24667999999999998  1.0000
  H   H17       1.0  0.43960000000000005  0.49039  0.26857999999999993  1.0000
  H   H18       1.0  0.33222000000000007  0.54525  0.12124999999999998  1.0000
  H   H19       1.0  0.93384  0.75914  0.33851  1.0000
  H   H20       1.0  0.11892000000000004  0.04015000000000001  0.33593999999999996  1.0000
  H   H21       1.0  0.12849  0.80622  0.54142  1.0000
  H   H22       1.0  0.96067  0.66506  0.54397  1.0000
  H   H23       1.0  0.91126  0.6398200000000002  0.45541  1.0000
  H   H24       1.0  0.12121  0.54097  0.37016  1.0000
  H   H25       1.0  0.42896  0.40767  0.54123  1.0000
  H   H26       1.0  0.21766999999999997  0.56817  0.59428  1.0000
  H   H27       1.0  0.04020000000000005  0.9949299999999999  0.21462  1.0000
  H   H28       1.0  0.95033  0.88599  0.2181  1.0000
  H   H29       1.0  0.8769600000000001  0.15418  0.28421  1.0000
  H   H30       1.0  0.4536899999999999  0.10439  0.23853  1.0000
  H   H31       1.0  0.66875  0.9262799999999999  0.21745999999999996  1.0000
  H   H32       1.0  0.23569000000000004  0.06490000000000001  0.4423  1.0000
  H   H33       1.0  0.18103999999999998  0.0027900000000000043  0.53506  1.0000
  H   H34       1.0  0.3645300000000001  0.8561  0.60675  1.0000
  H   H35       1.0  0.71001  0.8023699999999999  0.43568  1.0000
  H   H36       1.0  0.4780800000000001  0.95417  0.37088  1.0000
  H   H37       1.0  0.6597700000000001  0.50206  0.19025  1.0000
  H   H38       1.0  0.79673  0.71571  0.9918099999999999  1.0000
  H   H39       1.0  0.83341  0.3846399999999999  0.98163  1.0000
  H   H40       1.0  0.6619400000000001  0.32541  0.18467  1.0000
  H   H41       1.0  0.84636  0.28362  0.14953  1.0000
  H   H42       1.0  0.8786000000000002  0.13079  0.09176  1.0000
  H   H43       1.0  0.46737000000000006  0.15900999999999996  0.9925800000000001  1.0000
  H   H44       1.0  0.46316  0.33748999999999996  0.05789  1.0000
  H   H45       1.0  0.6742000000000001  0.67815  0.2045  1.0000
  H   H46       1.0  0.5915600000000001  0.77049  0.12693999999999997  1.0000
  H   H47       1.0  0.7163400000000001  0.91665  0.06511  1.0000
  H   H48       1.0  0.17182999999999998  0.78679  0.09859  1.0000
  H   H49       1.0  0.99991  0.6454  0.17895  1.0000
  H   H50       1.0  0.98859  0.51013  0.89249  1.0000
  H   H51       1.0  0.93114  0.648  0.88925  1.0000
  H   H52       1.0  0.86453  0.7056600000000001  0.7533499999999999  1.0000
  H   H53       1.0  0.5603599999999999  0.50967  0.73142  1.0000
  H   H54       1.0  0.6677300000000003  0.45476  0.8787599999999999  1.0000
  H   H55       1.0  0.06618000000000002  0.24084999999999998  0.6614599999999999  1.0000
  H   H56       1.0  0.88112  0.95983  0.66403  1.0000
  H   H57       1.0  0.87148  0.19376999999999997  0.45856  1.0000
  H   H58       1.0  0.03927000000000003  0.33495  0.45601  1.0000
  H   H59       1.0  0.08873  0.36018  0.54456  1.0000
  H   H60       1.0  0.87882  0.45901  0.62983  1.0000
  H   H61       1.0  0.5709999999999998  0.59234  0.45879  1.0000
  H   H62       1.0  0.7822700000000001  0.43183  0.40573  1.0000
  H   H63       1.0  0.95982  0.005089999999999987  0.78536  1.0000
  H   H64       1.0  0.04974999999999999  0.11399000000000001  0.78185  1.0000
  H   H65       1.0  0.12302000000000003  0.84578  0.71579  1.0000
  H   H66       1.0  0.5463199999999999  0.89552  0.76147  1.0000
  H   H67       1.0  0.33131000000000005  0.07366  0.78251  1.0000
  H   H68       1.0  0.76432  0.93508  0.55769  1.0000
  H   H69       1.0  0.81897  0.99719  0.46492  1.0000
  H   H70       1.0  0.6354600000000001  0.14389  0.39323  1.0000
  H   H71       1.0  0.29  0.1976  0.56432  1.0000
  H   H72       1.0  0.52197  0.04576999999999998  0.62911  1.0000
  C   C1        1.0  0.26111999999999996  0.56585  0.91047  1.0000
  C   C2        1.0  0.29855  0.48222000000000004  0.8696099999999998  1.0000
  C   C3        1.0  0.28268  0.37805  0.90369  1.0000
  C   C4        1.0  0.22214999999999996  0.36242  0.9809599999999999  1.0000
  C   C5        1.0  0.18239000000000002  0.44582  0.02199  1.0000
  C   C6        1.0  0.20301000000000005  0.5489099999999998  0.98782  1.0000
  C   C7        1.0  0.26594000000000007  0.67549  0.86825  1.0000
  C   C8        1.0  0.23389  0.83978  0.92766  1.0000
  C   C9        1.0  0.44612000000000007  0.8205200000000001  0.9779199999999999  1.0000
  C   C10       1.0  0.45135  0.73168  0.9451800000000001  1.0000
  C   C11       1.0  0.3098  0.29083  0.85711  1.0000
  C   C12       1.0  0.18379000000000004  0.13842000000000002  0.9157999999999997  1.0000
  C   C13       1.0  0.9482100000000001  0.20803000000000002  0.89645  1.0000
  C   C14       1.0  0.03249999999999997  0.27795  0.856  1.0000
  C   C15       1.0  0.10900000000000001  0.42701  0.10146999999999999  1.0000
  C   C16       1.0  0.20418000000000003  0.35459  0.2342  1.0000
  C   C17       1.0  0.36044999999999994  0.45783  0.2423  1.0000
  C   C18       1.0  0.30712  0.48674999999999996  0.16963  1.0000
  C   C19       1.0  0.025649999999999947  0.7710400000000001  0.4438699999999999  1.0000
  C   C20       1.0  0.9864900000000003  0.8078699999999999  0.36804  1.0000
  C   C21       1.0  0.01480000000000001  0.9057799999999999  0.32802  1.0000
  C   C22       1.0  0.08902000000000003  0.9664399999999999  0.3666299999999999  1.0000
  C   C23       1.0  0.13169999999999993  0.9296800000000001  0.44164999999999993  1.0000
  C   C24       1.0  0.09715000000000004  0.83355  0.4822199999999999  1.0000
  C   C25       1.0  0.9983500000000001  0.6647  0.48316  1.0000
  C   C26       1.0  0.17823000000000003  0.52474  0.42336  1.0000
  C   C27       1.0  0.33324  0.45862  0.51376  1.0000
  C   C28       1.0  0.23001000000000013  0.5377299999999998  0.54068  1.0000
  C   C29       1.0  0.9616100000000001  0.94888  0.24924999999999997  1.0000
  C   C30       1.0  0.7875600000000001  0.11960000000000001  0.26864  1.0000
  C   C31       1.0  0.57314  0.08863  0.24605999999999997  1.0000
  C   C32       1.0  0.67724  0.99971  0.23508999999999997  1.0000
  C   C33       1.0  0.22664000000000006  0.98829  0.4776  1.0000
  C   C34       1.0  0.42640999999999996  0.85942  0.55159  1.0000
  C   C35       1.0  0.6019  0.8332699999999998  0.46112999999999993  1.0000
  C   C36       1.0  0.4882000000000001  0.909  0.42836  1.0000
  C   C37       1.0  0.73886  0.43407  0.08954  1.0000
  C   C38       1.0  0.70142  0.51767  0.1304  1.0000
  C   C39       1.0  0.71728  0.62187  0.09633  1.0000
  C   C40       1.0  0.77782  0.63749  0.01908  1.0000
  C   C41       1.0  0.8176099999999998  0.55413  0.97805  1.0000
  C   C42       1.0  0.79701  0.45101  0.01219  1.0000
  C   C43       1.0  0.73402  0.32442  0.13174999999999998  1.0000
  C   C44       1.0  0.7662599999999999  0.16015  0.07232  1.0000
  C   C45       1.0  0.55407  0.17934  0.02202  1.0000
  C   C46       1.0  0.54873  0.26817  0.05479  1.0000
  C   C47       1.0  0.6901000000000002  0.7090599999999999  0.14295  1.0000
  C   C48       1.0  0.81598  0.86147  0.08419  1.0000
  C   C49       1.0  0.05158000000000003  0.7919299999999999  0.10345  1.0000
  C   C50       1.0  0.9673799999999999  0.72202  0.14399  1.0000
  C   C51       1.0  0.8910099999999997  0.5729400000000002  0.89856  1.0000
  C   C52       1.0  0.79588  0.64538  0.76582  1.0000
  C   C53       1.0  0.6395400000000001  0.54219  0.75771  1.0000
  C   C54       1.0  0.69286  0.5132500000000001  0.8303799999999999  1.0000
  C   C55       1.0  0.9743500000000002  0.22895  0.55611  1.0000
  C   C56       1.0  0.013530000000000018  0.19210999999999998  0.63194  1.0000
  C   C57       1.0  0.9852400000000001  0.09419999999999999  0.67195  1.0000
  C   C58       1.0  0.91101  0.03354  0.63334  1.0000
  C   C59       1.0  0.8683100000000001  0.07030999999999998  0.55833  1.0000
  C   C60       1.0  0.9028500000000002  0.16643999999999995  0.51775  1.0000
  C   C61       1.0  0.0016199999999999954  0.33529  0.51682  1.0000
  C   C62       1.0  0.82176  0.47524999999999995  0.57664  1.0000
  C   C63       1.0  0.66672  0.54138  0.48624999999999996  1.0000
  C   C64       1.0  0.7699400000000001  0.46227  0.45933  1.0000
  C   C65       1.0  0.03843000000000002  0.05109999999999999  0.75072  1.0000
  C   C66       1.0  0.21242000000000003  0.88036  0.73135  1.0000
  C   C67       1.0  0.42687  0.91129  0.75393  1.0000
  C   C68       1.0  0.32280000000000014  0.0002400000000000078  0.76489  1.0000
  C   C69       1.0  0.7733800000000002  0.011680000000000005  0.52238  1.0000
  C   C70       1.0  0.57361  0.14054999999999995  0.4484  1.0000
  C   C71       1.0  0.39815999999999996  0.16667  0.53887  1.0000
  C   C72       1.0  0.5118  0.09100000000000001  0.57161  1.0000
  N   N1        1.0  0.31443999999999994  0.74522  0.9132899999999999  1.0000
  N   N2        1.0  0.30949  0.88788  0.9671  1.0000
  N   N3        1.0  0.18201000000000003  0.23269  0.86743  1.0000
  N   N4        1.0  0.04294  0.12083000000000005  0.9337999999999999  1.0000
  N   N5        1.0  0.20771000000000003  0.42081999999999997  0.1652  1.0000
  N   N6        1.0  0.2961100000000001  0.37509999999999993  0.28246  1.0000
  N   N7        1.0  0.13159  0.57859  0.48265  1.0000
  N   N8        1.0  0.29971  0.4507  0.4404  1.0000
  N   N9        1.0  0.81415  0.02065  0.24942  1.0000
  N   N10       1.0  0.64253  0.16303000000000006  0.26736  1.0000
  N   N11       1.0  0.37873000000000007  0.92508  0.48645999999999995  1.0000
  N   N12       1.0  0.5624699999999999  0.80251  0.53852  1.0000
  N   N13       1.0  0.68561  0.25468  0.0867  1.0000
  N   N14       1.0  0.69074  0.11202  0.03285  1.0000
  N   N15       1.0  0.8178100000000001  0.76724  0.13262  1.0000
  N   N16       1.0  0.9567700000000001  0.87909  0.06609  1.0000
  N   N17       1.0  0.7923100000000003  0.57915  0.8348199999999998  1.0000
  N   N18       1.0  0.70392  0.6249  0.71756  1.0000
  N   N19       1.0  0.86837  0.4214  0.51735  1.0000
  N   N20       1.0  0.7002900000000001  0.5492899999999997  0.55961  1.0000
  N   N21       1.0  0.18586999999999995  0.97932  0.75056  1.0000
  N   N22       1.0  0.35745000000000005  0.83691  0.7326399999999998  1.0000
  N   N23       1.0  0.62128  0.07488999999999998  0.51354  1.0000
  N   N24       1.0  0.43755  0.19748000000000002  0.46147999999999995  1.0000
