data_image0
_chemical_formula_structural       Pr4Mn6H36C84N12O48
_chemical_formula_sum              "Pr4 Mn6 H36 C84 N12 O48"
_cell_length_a       15.69512
_cell_length_b       15.65276
_cell_length_c       15.0538
_cell_angle_alpha    90.0087
_cell_angle_beta     90.01534
_cell_angle_gamma    120.09836000000001

_space_group_name_H-M_alt    "P 1"
_space_group_IT_number       1

loop_
  _space_group_symop_operation_xyz
  'x, y, z'

loop_
  _atom_site_type_symbol
  _atom_site_label
  _atom_site_symmetry_multiplicity
  _atom_site_fract_x
  _atom_site_fract_y
  _atom_site_fract_z
  _atom_site_occupancy
  Pr  Pr1       1.0  0.66573  0.33221  0.24919  1.0000
  Pr  Pr2       1.0  0.33294  0.66647  0.25014  1.0000
  Pr  Pr3       1.0  0.3337699999999999  0.66707  0.7497900000000001  1.0000
  Pr  Pr4       1.0  0.6661199999999998  0.3326  0.75021  1.0000
  Mn  Mn1       1.0  0.49983  0.00021  0.00033  1.0000
  Mn  Mn2       1.0  0.9987499999999999  0.49897  0.99951  1.0000
  Mn  Mn3       1.0  0.5002099999999998  0.4996800000000001  0.99953  1.0000
  Mn  Mn4       1.0  0.9990999999999999  0.49913  0.50055  1.0000
  Mn  Mn5       1.0  0.49932999999999994  0.9988400000000001  0.50052  1.0000
  Mn  Mn6       1.0  0.5002699999999999  0.5008700000000001  0.49986  1.0000
  H   H1        1.0  0.7573799999999998  0.04340000000000001  0.14871  1.0000
  H   H2        1.0  0.9568300000000001  0.7150500000000001  0.14934  1.0000
  H   H3        1.0  0.2864599999999999  0.24282000000000006  0.14918  1.0000
  H   H4        1.0  0.24298  0.9565200000000003  0.14852  1.0000
  H   H5        1.0  0.04362000000000002  0.28572000000000003  0.14937  1.0000
  H   H6        1.0  0.7132299999999998  0.75728  0.14947  1.0000
  H   H7        1.0  0.04464000000000011  0.7574600000000002  0.35038000000000014  1.0000
  H   H8        1.0  0.7130900000000001  0.9563400000000001  0.351  1.0000
  H   H9        1.0  0.24274  0.28658  0.35093  1.0000
  H   H10       1.0  0.9555500000000002  0.24268000000000006  0.35064  1.0000
  H   H11       1.0  0.28722  0.04407000000000001  0.35069  1.0000
  H   H12       1.0  0.7571999999999999  0.7132300000000003  0.35102  1.0000
  H   H13       1.0  0.24308  0.9560200000000002  0.85119  1.0000
  H   H14       1.0  0.04369999999999998  0.28579  0.8506  1.0000
  H   H15       1.0  0.71316  0.7571600000000003  0.8505900000000002  1.0000
  H   H16       1.0  0.7571699999999999  0.043330000000000014  0.85138  1.0000
  H   H17       1.0  0.9565599999999997  0.7146600000000001  0.8505900000000002  1.0000
  H   H18       1.0  0.2868  0.24275  0.85039  1.0000
  H   H19       1.0  0.9557999999999998  0.24239000000000005  0.64958  1.0000
  H   H20       1.0  0.28669  0.04340000000000001  0.64899  1.0000
  H   H21       1.0  0.75715  0.7131600000000002  0.64901  1.0000
  H   H22       1.0  0.04408000000000005  0.7571000000000001  0.64934  1.0000
  H   H23       1.0  0.7134399999999999  0.9566000000000002  0.64913  1.0000
  H   H24       1.0  0.24254999999999993  0.2863200000000001  0.64906  1.0000
  H   H25       1.0  0.9044199999999998  0.09545  0.24972  1.0000
  H   H26       1.0  0.9043999999999998  0.81001  0.25041  1.0000
  H   H27       1.0  0.19105999999999995  0.09517000000000003  0.25012  1.0000
  H   H28       1.0  0.09605999999999992  0.90472  0.24946  1.0000
  H   H29       1.0  0.09534999999999999  0.19025000000000003  0.2502  1.0000
  H   H30       1.0  0.80889  0.9049800000000002  0.25037  1.0000
  H   H31       1.0  0.09603  0.90441  0.75044  1.0000
  H   H32       1.0  0.09516  0.19006  0.74968  1.0000
  H   H33       1.0  0.8090899999999998  0.90478  0.74976  1.0000
  H   H34       1.0  0.90398  0.09511000000000003  0.75042  1.0000
  H   H35       1.0  0.90449  0.8097500000000002  0.74957  1.0000
  H   H36       1.0  0.19118999999999994  0.09510000000000003  0.74956  1.0000
  C   C1        1.0  0.7343999999999998  0.15972  0.19561000000000006  1.0000
  C   C2        1.0  0.6453599999999997  0.13347  0.13894  1.0000
  C   C3        1.0  0.7837299999999998  0.10626000000000002  0.19329000000000005  1.0000
  C   C4        1.0  0.8407199999999998  0.57472  0.19617000000000007  1.0000
  C   C5        1.0  0.86555  0.5104100000000001  0.13963  1.0000
  C   C6        1.0  0.8940700000000001  0.67799  0.19389000000000003  1.0000
  C   C7        1.0  0.4258799999999998  0.26618  0.19626  1.0000
  C   C8        1.0  0.4892699999999999  0.35577000000000003  0.13958  1.0000
  C   C9        1.0  0.32296  0.21658  0.19370000000000004  1.0000
  C   C10       1.0  0.26600000000000007  0.8401700000000002  0.19577  1.0000
  C   C11       1.0  0.35558  0.8666500000000003  0.13944  1.0000
  C   C12       1.0  0.21663000000000007  0.8936300000000001  0.19305  1.0000
  C   C13       1.0  0.15985000000000005  0.4255100000000001  0.19621000000000002  1.0000
  C   C14       1.0  0.13440999999999997  0.4893000000000001  0.1394  1.0000
  C   C15       1.0  0.10645000000000004  0.3223800000000001  0.19378  1.0000
  C   C16       1.0  0.5740899999999999  0.7339600000000002  0.19615  1.0000
  C   C17       1.0  0.5105  0.64456  0.1392  1.0000
  C   C18       1.0  0.6769499999999998  0.78369  0.19394  1.0000
  C   C19       1.0  0.1600500000000001  0.7340500000000001  0.30394  1.0000
  C   C20       1.0  0.13393999999999995  0.64457  0.36107  1.0000
  C   C21       1.0  0.10722999999999998  0.78401  0.30587  1.0000
  C   C22       1.0  0.5743  0.84016  0.30411  1.0000
  C   C23       1.0  0.5106  0.86571  0.3604000000000001  1.0000
  C   C24       1.0  0.6770699999999997  0.8935600000000001  0.30643  1.0000
  C   C25       1.0  0.26589  0.42565  0.3042400000000001  1.0000
  C   C26       1.0  0.35483  0.4891000000000001  0.36181  1.0000
  C   C27       1.0  0.21614000000000005  0.3225400000000001  0.30626  1.0000
  C   C28       1.0  0.8397299999999998  0.26579  0.3038700000000001  1.0000
  C   C29       1.0  0.8657000000000002  0.3551800000000001  0.36075  1.0000
  C   C30       1.0  0.89293  0.21612000000000006  0.30606  1.0000
  C   C31       1.0  0.42561  0.15983000000000006  0.3042100000000001  1.0000
  C   C32       1.0  0.48913999999999985  0.13392000000000004  0.36061  1.0000
  C   C33       1.0  0.32294  0.10677  0.30618000000000006  1.0000
  C   C34       1.0  0.7342799999999998  0.5740800000000001  0.30366  1.0000
  C   C35       1.0  0.64463  0.51031  0.36008000000000007  1.0000
  C   C36       1.0  0.7839399999999997  0.67729  0.30631  1.0000
  C   C37       1.0  0.26587000000000005  0.8398900000000001  0.8039600000000002  1.0000
  C   C38       1.0  0.35528  0.866  0.86027  1.0000
  C   C39       1.0  0.21653  0.89326  0.80657  1.0000
  C   C40       1.0  0.15983999999999998  0.42549  0.80381  1.0000
  C   C41       1.0  0.13403000000000007  0.4889900000000001  0.86075  1.0000
  C   C42       1.0  0.10643  0.3223  0.80605  1.0000
  C   C43       1.0  0.5738999999999999  0.7341200000000001  0.80356  1.0000
  C   C44       1.0  0.5103399999999998  0.64456  0.86015  1.0000
  C   C45       1.0  0.67681  0.78352  0.80602  1.0000
  C   C46       1.0  0.7344899999999998  0.16003  0.8043100000000002  1.0000
  C   C47       1.0  0.6456  0.13458  0.86081  1.0000
  C   C48       1.0  0.7834999999999998  0.10624000000000003  0.80689  1.0000
  C   C49       1.0  0.8400199999999998  0.57432  0.8035900000000002  1.0000
  C   C50       1.0  0.8652199999999998  0.51034  0.85997  1.0000
  C   C51       1.0  0.8936699999999999  0.6775800000000001  0.80613  1.0000
  C   C52       1.0  0.42598999999999987  0.26596000000000003  0.80362  1.0000
  C   C53       1.0  0.48941999999999997  0.3555200000000001  0.86013  1.0000
  C   C54       1.0  0.3231499999999999  0.21638000000000002  0.80598  1.0000
  C   C55       1.0  0.8403600000000001  0.26602  0.69635  1.0000
  C   C56       1.0  0.8660699999999998  0.3554900000000001  0.63973  1.0000
  C   C57       1.0  0.8932499999999998  0.21604000000000007  0.69417  1.0000
  C   C58       1.0  0.4252999999999999  0.15932  0.69599  1.0000
  C   C59       1.0  0.48879  0.13344  0.63986  1.0000
  C   C60       1.0  0.3225899999999998  0.10614  0.6936100000000001  1.0000
  C   C61       1.0  0.73384  0.5740800000000001  0.69608  1.0000
  C   C62       1.0  0.6443099999999998  0.51019  0.63958  1.0000
  C   C63       1.0  0.7837199999999998  0.67722  0.69379  1.0000
  C   C64       1.0  0.15996  0.7339700000000001  0.69575  1.0000
  C   C65       1.0  0.13427  0.64466  0.6388300000000002  1.0000
  C   C66       1.0  0.10678000000000001  0.7836  0.69383  1.0000
  C   C67       1.0  0.57444  0.84062  0.6958500000000002  1.0000
  C   C68       1.0  0.5106400000000002  0.8662800000000003  0.63978  1.0000
  C   C69       1.0  0.67731  0.8937500000000003  0.69365  1.0000
  C   C70       1.0  0.26623  0.4258500000000001  0.69617  1.0000
  C   C71       1.0  0.35560999999999987  0.4898800000000001  0.63955  1.0000
  C   C72       1.0  0.21639  0.32267  0.6938  1.0000
  C   C73       1.0  0.8641899999999998  0.13536000000000006  0.24973  1.0000
  C   C74       1.0  0.8647699999999998  0.72954  0.25022  1.0000
  C   C75       1.0  0.27122  0.13579000000000002  0.25003  1.0000
  C   C76       1.0  0.13616000000000006  0.8647100000000002  0.24942  1.0000
  C   C77       1.0  0.13541  0.27062  0.25004  1.0000
  C   C78       1.0  0.7287599999999999  0.8645500000000003  0.25026  1.0000
  C   C79       1.0  0.13597000000000012  0.8643100000000002  0.75028  1.0000
  C   C80       1.0  0.13544  0.27054  0.7498  1.0000
  C   C81       1.0  0.7288699999999999  0.8644900000000002  0.74985  1.0000
  C   C82       1.0  0.8639499999999998  0.13517  0.75048  1.0000
  C   C83       1.0  0.8646599999999998  0.72931  0.74985  1.0000
  C   C84       1.0  0.27124000000000004  0.13551000000000002  0.74972  1.0000
  N   N1        1.0  0.7623600000000001  0.23741000000000004  0.24965  1.0000
  N   N2        1.0  0.7628099999999999  0.5249300000000002  0.24981  1.0000
  N   N3        1.0  0.4749299999999999  0.23764000000000005  0.25028  1.0000
  N   N4        1.0  0.23763999999999993  0.76243  0.24993  1.0000
  N   N5        1.0  0.23756000000000005  0.4749700000000001  0.25026  1.0000
  N   N6        1.0  0.5249000000000001  0.7623300000000001  0.25014  1.0000
  N   N7        1.0  0.23748000000000005  0.7622300000000002  0.74978  1.0000
  N   N8        1.0  0.23771  0.4751200000000001  0.75005  1.0000
  N   N9        1.0  0.52493  0.7629300000000002  0.74982  1.0000
  N   N10       1.0  0.7628399999999997  0.23760000000000006  0.75023  1.0000
  N   N11       1.0  0.76223  0.52473  0.74982  1.0000
  N   N12       1.0  0.4748699999999999  0.23718  0.74982  1.0000
  O   O1        1.0  0.6133499999999997  0.05482000000000001  0.09315  1.0000
  O   O2        1.0  0.60966  0.19013000000000005  0.14201  1.0000
  O   O3        1.0  0.94452  0.55545  0.09428  1.0000
  O   O4        1.0  0.80696  0.41813  0.14199  1.0000
  O   O5        1.0  0.44295  0.3882400000000001  0.09401  1.0000
  O   O6        1.0  0.5815199999999998  0.3910800000000001  0.14196  1.0000
  O   O7        1.0  0.3886499999999999  0.94591  0.09404  1.0000
  O   O8        1.0  0.3908099999999999  0.80962  0.14216  1.0000
  O   O9        1.0  0.05559000000000007  0.4440400000000001  0.09387000000000001  1.0000
  O   O10       1.0  0.19263000000000002  0.5816800000000001  0.14203  1.0000
  O   O11       1.0  0.5561699999999998  0.61134  0.09372  1.0000
  O   O12       1.0  0.41843  0.61006  0.14158  1.0000
  O   O13       1.0  0.055110000000000055  0.6114500000000002  0.40654  1.0000
  O   O14       1.0  0.19131000000000006  0.6097900000000003  0.3585200000000001  1.0000
  O   O15       1.0  0.5559900000000002  0.9447000000000002  0.40606  1.0000
  O   O16       1.0  0.41841000000000006  0.8079300000000003  0.35729  1.0000
  O   O17       1.0  0.3886899999999999  0.44300000000000006  0.40597  1.0000
  O   O18       1.0  0.38842999999999994  0.5812900000000001  0.36162000000000005  1.0000
  O   O19       1.0  0.94472  0.3873500000000001  0.40604  1.0000
  O   O20       1.0  0.8089599999999998  0.3906100000000001  0.35842  1.0000
  O   O21       1.0  0.4439799999999999  0.05488  0.40612  1.0000
  O   O22       1.0  0.5813  0.19201  0.3573100000000001  1.0000
  O   O23       1.0  0.6125  0.5567800000000003  0.40592  1.0000
  O   O24       1.0  0.6089199999999998  0.41774  0.35746  1.0000
  O   O25       1.0  0.38911  0.9454100000000002  0.90543  1.0000
  O   O26       1.0  0.38952  0.8080900000000002  0.85777  1.0000
  O   O27       1.0  0.05506000000000004  0.4428700000000001  0.90622  1.0000
  O   O28       1.0  0.19154  0.58131  0.85852  1.0000
  O   O29       1.0  0.5564599999999997  0.6119200000000001  0.90576  1.0000
  O   O30       1.0  0.4180899999999999  0.60943  0.85776  1.0000
  O   O31       1.0  0.6133699999999997  0.05624000000000001  0.90709  1.0000
  O   O32       1.0  0.6101899999999998  0.19152  0.8574300000000002  1.0000
  O   O33       1.0  0.9439699999999998  0.55618  0.9056200000000002  1.0000
  O   O34       1.0  0.80743  0.41789  0.85736  1.0000
  O   O35       1.0  0.4430699999999999  0.3879  0.9056600000000001  1.0000
  O   O36       1.0  0.5816999999999999  0.39073000000000013  0.8577800000000002  1.0000
  O   O37       1.0  0.9451199999999998  0.3880000000000001  0.59446  1.0000
  O   O38       1.0  0.8093400000000001  0.3909300000000001  0.64181  1.0000
  O   O39       1.0  0.4430999999999999  0.05418  0.59459  1.0000
  O   O40       1.0  0.58092  0.19120000000000006  0.64268  1.0000
  O   O41       1.0  0.6105800000000001  0.5559400000000001  0.5949900000000002  1.0000
  O   O42       1.0  0.6101099999999998  0.41781  0.64136  1.0000
  O   O43       1.0  0.05471  0.61099  0.59426  1.0000
  O   O44       1.0  0.19201  0.61039  0.64057  1.0000
  O   O45       1.0  0.55641  0.9452500000000003  0.5942300000000003  1.0000
  O   O46       1.0  0.41826999999999986  0.80915  0.64288  1.0000
  O   O47       1.0  0.3890899999999999  0.44441  0.59422  1.0000
  O   O48       1.0  0.38996000000000003  0.5823000000000002  0.64209  1.0000
