data_image0
_chemical_formula_structural       Sm4H48C84N12O24
_chemical_formula_sum              "Sm4 H48 C84 N12 O24"
_cell_length_a       16.24058
_cell_length_b       16.21519
_cell_length_c       27.81576
_cell_angle_alpha    81.36786000000001
_cell_angle_beta     81.22668
_cell_angle_gamma    64.37463

_space_group_name_H-M_alt    "P 1"
_space_group_IT_number       1

loop_
  _space_group_symop_operation_xyz
  'x, y, z'

loop_
  _atom_site_type_symbol
  _atom_site_label
  _atom_site_symmetry_multiplicity
  _atom_site_fract_x
  _atom_site_fract_y
  _atom_site_fract_z
  _atom_site_occupancy
  Sm  Sm1       1.0  0.9502900000000001  0.45293000000000005  0.9582199999999997  1.0000
  Sm  Sm2       1.0  0.5458499999999996  0.050040000000000036  0.5428599999999999  1.0000
  Sm  Sm3       1.0  0.05043  0.54585  0.04274999999999999  1.0000
  Sm  Sm4       1.0  0.4561399999999999  0.9501000000000002  0.45679  1.0000
  H   H1        1.0  0.9335000000000002  0.3770000000000001  0.7951399999999997  1.0000
  H   H2        1.0  0.8962599999999998  0.2901  0.74008  1.0000
  H   H3        1.0  0.7999999999999999  0.15552  0.86598  1.0000
  H   H4        1.0  0.8368300000000001  0.24325000000000008  0.9210899999999999  1.0000
  H   H5        1.0  0.17293000000000006  0.68048  0.9167199999999998  1.0000
  H   H6        1.0  0.2413499999999999  0.7475400000000003  0.8424199999999997  1.0000
  H   H7        1.0  0.13533000000000006  0.63452  0.74994  1.0000
  H   H8        1.0  0.06663000000000006  0.56747  0.8244299999999998  1.0000
  H   H9        1.0  0.20850000000000002  0.17015000000000002  0.9441999999999998  1.0000
  H   H10       1.0  0.3626  0.038400000000000004  0.9551199999999999  1.0000
  H   H11       1.0  0.42298  0.19355  0.04566  1.0000
  H   H12       1.0  0.26887999999999995  0.3250400000000001  0.03519  1.0000
  H   H13       1.0  0.6232100000000002  0.06718000000000005  0.7044799999999998  1.0000
  H   H14       1.0  0.71011  0.10360000000000004  0.7597199999999997  1.0000
  H   H15       1.0  0.8451699999999999  0.20026  0.63427  1.0000
  H   H16       1.0  0.7576  0.16413000000000003  0.57886  1.0000
  H   H17       1.0  0.3195299999999999  0.8252800000000001  0.58321  1.0000
  H   H18       1.0  0.25253  0.7582  0.6581199999999999  1.0000
  H   H19       1.0  0.36607999999999996  0.8663000000000001  0.7491899999999998  1.0000
  H   H20       1.0  0.43302999999999997  0.93355  0.67412  1.0000
  H   H21       1.0  0.8272399999999999  0.79101  0.5550399999999999  1.0000
  H   H22       1.0  0.9611599999999999  0.63784  0.54465  1.0000
  H   H23       1.0  0.8108199999999999  0.57191  0.45373  1.0000
  H   H24       1.0  0.6774699999999999  0.7253700000000002  0.46365  1.0000
  H   H25       1.0  0.06887999999999993  0.6222000000000002  0.20517999999999995  1.0000
  H   H26       1.0  0.10297999999999986  0.7113700000000002  0.26033  1.0000
  H   H27       1.0  0.19923999999999997  0.84635  0.13462  1.0000
  H   H28       1.0  0.1651099999999999  0.7566400000000002  0.07949  1.0000
  H   H29       1.0  0.82612  0.32123  0.08369  1.0000
  H   H30       1.0  0.75923  0.2523400000000001  0.15796999999999994  1.0000
  H   H31       1.0  0.86546  0.3650999999999999  0.25058  1.0000
  H   H32       1.0  0.9322899999999996  0.43424  0.17594999999999994  1.0000
  H   H33       1.0  0.79023  0.8261  0.05414  1.0000
  H   H34       1.0  0.6373999999999999  0.9608700000000002  0.04465999999999999  1.0000
  H   H35       1.0  0.5691199999999996  0.8124000000000002  0.9535999999999999  1.0000
  H   H36       1.0  0.72219  0.67803  0.9625999999999998  1.0000
  H   H37       1.0  0.3771300000000001  0.93324  0.29578999999999994  1.0000
  H   H38       1.0  0.29020999999999997  0.89658  0.24057999999999996  1.0000
  H   H39       1.0  0.1553500000000001  0.80005  0.36639  1.0000
  H   H40       1.0  0.24307000000000006  0.83661  0.42157  1.0000
  H   H41       1.0  0.68137  0.17344  0.41632  1.0000
  H   H42       1.0  0.74798  0.24168000000000003  0.34163  1.0000
  H   H43       1.0  0.63441  0.13478  0.24992999999999996  1.0000
  H   H44       1.0  0.5678600000000001  0.06631000000000002  0.3247799999999999  1.0000
  H   H45       1.0  0.17243  0.20808  0.44442  1.0000
  H   H46       1.0  0.03918999999999995  0.3614200000000001  0.45526  1.0000
  H   H47       1.0  0.19086  0.4258000000000001  0.54596  1.0000
  H   H48       1.0  0.32386999999999994  0.27243  0.53544  1.0000
  C   C1        1.0  0.9006399999999999  0.37156  0.89365  1.0000
  C   C2        1.0  0.8855199999999998  0.31584  0.86104  1.0000
  C   C3        1.0  0.90441  0.32825  0.8100099999999999  1.0000
  C   C4        1.0  0.88425  0.28031000000000006  0.7796199999999998  1.0000
  C   C5        1.0  0.84487  0.21902000000000002  0.80025  1.0000
  C   C6        1.0  0.82951  0.20396000000000009  0.8512999999999997  1.0000
  C   C7        1.0  0.8496400000000001  0.25230000000000014  0.8815499999999997  1.0000
  C   C8        1.0  0.07484000000000002  0.58061  0.91872  1.0000
  C   C9        1.0  0.11591999999999995  0.62024  0.87471  1.0000
  C   C10       1.0  0.16534  0.6709800000000001  0.8799999999999999  1.0000
  C   C11       1.0  0.20318000000000006  0.70801  0.83917  1.0000
  C   C12       1.0  0.19191999999999984  0.6944700000000004  0.7920799999999998  1.0000
  C   C13       1.0  0.14276000000000003  0.64371  0.78674  1.0000
  C   C14       1.0  0.10493000000000009  0.60688  0.8277799999999997  1.0000
  C   C15       1.0  0.1368900000000001  0.32969  0.98194  1.0000
  C   C16       1.0  0.22947000000000004  0.25495  0.98911  1.0000
  C   C17       1.0  0.25625  0.17397999999999997  0.96631  1.0000
  C   C18       1.0  0.34099  0.10141999999999997  0.97224  1.0000
  C   C19       1.0  0.40109999999999996  0.10869000000000002  0.00122  1.0000
  C   C20       1.0  0.37507  0.18968  0.02366  1.0000
  C   C21       1.0  0.28954  0.26242  0.01772  1.0000
  C   C22       1.0  0.62802  0.10191999999999998  0.60602  1.0000
  C   C23       1.0  0.68449  0.11555999999999998  0.63869  1.0000
  C   C24       1.0  0.6720600000000001  0.09619000000000001  0.6896799999999998  1.0000
  C   C25       1.0  0.72005  0.11583000000000002  0.72022  1.0000
  C   C26       1.0  0.7814300000000001  0.15517  0.6997799999999997  1.0000
  C   C27       1.0  0.7966800000000002  0.17076000000000002  0.6487699999999997  1.0000
  C   C28       1.0  0.7483199999999999  0.15113000000000004  0.61836  1.0000
  C   C29       1.0  0.41934999999999995  0.9232200000000003  0.57997  1.0000
  C   C30       1.0  0.37993999999999994  0.88325  0.6244999999999999  1.0000
  C   C31       1.0  0.3290899999999999  0.8336000000000001  0.61978  1.0000
  C   C32       1.0  0.2921300000000001  0.7965200000000002  0.6609299999999998  1.0000
  C   C33       1.0  0.30588999999999994  0.8086700000000002  0.7077899999999998  1.0000
  C   C34       1.0  0.35666999999999993  0.8581  0.71258  1.0000
  C   C35       1.0  0.39345999999999987  0.8952000000000001  0.67119  1.0000
  C   C36       1.0  0.66876  0.85928  0.51708  1.0000
  C   C37       1.0  0.74494  0.76722  0.50997  1.0000
  C   C38       1.0  0.82511  0.74216  0.5329599999999999  1.0000
  C   C39       1.0  0.8988299999999999  0.6579  0.5272999999999999  1.0000
  C   C40       1.0  0.8933399999999999  0.59643  0.4984099999999999  1.0000
  C   C41       1.0  0.81321  0.6208700000000003  0.47567  1.0000
  C   C42       1.0  0.7394499999999998  0.7059700000000002  0.48128  1.0000
  C   C43       1.0  0.1050099999999999  0.6259300000000002  0.10631999999999997  1.0000
  C   C44       1.0  0.11711999999999989  0.6833300000000002  0.13931  1.0000
  C   C45       1.0  0.09718999999999998  0.6716  0.19031  1.0000
  C   C46       1.0  0.11563999999999999  0.72072  0.22079999999999997  1.0000
  C   C47       1.0  0.15451999999999996  0.7824900000000002  0.20028  1.0000
  C   C48       1.0  0.17029999999999992  0.7974300000000002  0.14926  1.0000
  C   C49       1.0  0.15170999999999984  0.7479600000000002  0.11897  1.0000
  C   C50       1.0  0.9221999999999999  0.42196000000000006  0.08179999999999998  1.0000
  C   C51       1.0  0.88279  0.38139  0.12588  1.0000
  C   C52       1.0  0.834  0.33011000000000007  0.12046999999999997  1.0000
  C   C53       1.0  0.7971  0.29217  0.16123  1.0000
  C   C54       1.0  0.8088799999999999  0.3054400000000001  0.20827  1.0000
  C   C55       1.0  0.8576999999999999  0.3564400000000001  0.21373999999999999  1.0000
  C   C56       1.0  0.8944600000000001  0.39433  0.17272  1.0000
  C   C57       1.0  0.85679  0.66725  0.01499  1.0000
  C   C58       1.0  0.7653  0.74468  0.00872  1.0000
  C   C59       1.0  0.7411599999999999  0.8245000000000002  0.03211  1.0000
  C   C60       1.0  0.6570899999999998  0.8987300000000003  0.026999999999999993  1.0000
  C   C61       1.0  0.5951699999999999  0.89407  0.99823  1.0000
  C   C62       1.0  0.61863  0.81416  0.97526  1.0000
  C   C63       1.0  0.7033800000000001  0.7399500000000003  0.9803399999999998  1.0000
  C   C64       1.0  0.3719899999999999  0.8997200000000003  0.39406  1.0000
  C   C65       1.0  0.31575  0.8853300000000001  0.3615799999999999  1.0000
  C   C66       1.0  0.32817999999999986  0.9043800000000001  0.31058  1.0000
  C   C67       1.0  0.28020000000000006  0.88457  0.28011  1.0000
  C   C68       1.0  0.21878000000000006  0.84532  0.30073  1.0000
  C   C69       1.0  0.20373999999999992  0.8296700000000002  0.3517699999999999  1.0000
  C   C70       1.0  0.2520799999999999  0.8496  0.3820599999999999  1.0000
  C   C71       1.0  0.58273  0.07496  0.41887  1.0000
  C   C72       1.0  0.62134  0.11590000000000004  0.3745999999999999  1.0000
  C   C73       1.0  0.67186  0.16563000000000005  0.37966  1.0000
  C   C74       1.0  0.70845  0.20335  0.3386799999999999  1.0000
  C   C75       1.0  0.6945399999999999  0.19162000000000004  0.29179  1.0000
  C   C76       1.0  0.64374  0.14241000000000004  0.28665  1.0000
  C   C77       1.0  0.60734  0.10466000000000003  0.32787999999999995  1.0000
  C   C78       1.0  0.33211  0.13894  0.48197  1.0000
  C   C79       1.0  0.25582  0.2309800000000001  0.48926999999999987  1.0000
  C   C80       1.0  0.17524  0.2565  0.46655  1.0000
  C   C81       1.0  0.10176000000000003  0.3409  0.4724599999999999  1.0000
  C   C82       1.0  0.10766000000000002  0.4020400000000001  0.50141  1.0000
  C   C83       1.0  0.18808000000000005  0.37714999999999993  0.52393  1.0000
  C   C84       1.0  0.2616899999999999  0.29203  0.51798  1.0000
  N   N1        1.0  0.81185  0.17449  0.77318  1.0000
  N   N2        1.0  0.22687999999999986  0.7285300000000002  0.74785  1.0000
  N   N3        1.0  0.4888199999999999  0.03835  0.00988  1.0000
  N   N4        1.0  0.82571  0.1882  0.72696  1.0000
  N   N5        1.0  0.27166999999999997  0.77436  0.7522399999999998  1.0000
  N   N6        1.0  0.9641899999999999  0.5088300000000002  0.4899699999999999  1.0000
  N   N7        1.0  0.18691  0.82739  0.22742  1.0000
  N   N8        1.0  0.77448  0.27082  0.25242  1.0000
  N   N9        1.0  0.5079299999999999  0.9652500000000003  0.9900199999999998  1.0000
  N   N10       1.0  0.17449999999999993  0.81226  0.27363  1.0000
  N   N11       1.0  0.7285199999999998  0.22638  0.24752  1.0000
  N   N12       1.0  0.03691  0.48973  0.50998  1.0000
  O   O1        1.0  0.9353200000000002  0.4287100000000001  0.8761699999999998  1.0000
  O   O2        1.0  0.87858  0.36208  0.94002  1.0000
  O   O3        1.0  0.08704000000000006  0.59306  0.9609799999999997  1.0000
  O   O4        1.0  0.029499999999999978  0.5367900000000002  0.9117099999999998  1.0000
  O   O5        1.0  0.10763  0.40464  0.0026799999999999992  1.0000
  O   O6        1.0  0.0874500000000001  0.31686  0.9548699999999998  1.0000
  O   O7        1.0  0.57031  0.06781  0.62376  1.0000
  O   O8        1.0  0.6372099999999998  0.12435000000000004  0.55977  1.0000
  O   O9        1.0  0.40832  0.90842  0.5381499999999999  1.0000
  O   O10       1.0  0.4621999999999998  0.9704200000000004  0.5860899999999998  1.0000
  O   O11       1.0  0.59555  0.8874300000000002  0.49512  1.0000
  O   O12       1.0  0.6787499999999999  0.9089800000000002  0.5451399999999998  1.0000
  O   O13       1.0  0.07387999999999999  0.5658400000000001  0.12381  1.0000
  O   O14       1.0  0.12552999999999992  0.6371200000000002  0.059999999999999984  1.0000
  O   O15       1.0  0.9091499999999999  0.40916000000000013  0.039869999999999996  1.0000
  O   O16       1.0  0.96679  0.467  0.08826999999999997  1.0000
  O   O17       1.0  0.8824599999999996  0.59485  0.9926299999999998  1.0000
  O   O18       1.0  0.9080599999999996  0.67539  0.042639999999999983  1.0000
  O   O19       1.0  0.4302299999999999  0.9330700000000002  0.37619  1.0000
  O   O20       1.0  0.36232000000000003  0.87876  0.4404  1.0000
  O   O21       1.0  0.5958200000000001  0.08709000000000003  0.4608399999999999  1.0000
  O   O22       1.0  0.53836  0.029619999999999994  0.4121  1.0000
  O   O23       1.0  0.40673  0.11166000000000005  0.50255  1.0000
  O   O24       1.0  0.32099  0.08817000000000003  0.45495999999999986  1.0000
