data_image0
_chemical_formula_structural       Cd4H52C72N12O16
_chemical_formula_sum              "Cd4 H52 C72 N12 O16"
_cell_length_a       11.92488
_cell_length_b       13.11089
_cell_length_c       13.86997
_cell_angle_alpha    77.34367
_cell_angle_beta     65.03325999999998
_cell_angle_gamma    68.31669

_space_group_name_H-M_alt    "P 1"
_space_group_IT_number       1

loop_
  _space_group_symop_operation_xyz
  'x, y, z'

loop_
  _atom_site_type_symbol
  _atom_site_label
  _atom_site_symmetry_multiplicity
  _atom_site_fract_x
  _atom_site_fract_y
  _atom_site_fract_z
  _atom_site_occupancy
  Cd  Cd1       1.0  0.14633999999999997  0.555  0.45012  1.0000
  Cd  Cd2       1.0  0.2513499999999999  0.49224  0.7278  1.0000
  Cd  Cd3       1.0  0.85366  0.445  0.54988  1.0000
  Cd  Cd4       1.0  0.74865  0.50776  0.2722  1.0000
  H   H1        1.0  0.4663099999999998  0.81717  0.30714  1.0000
  H   H2        1.0  0.39382  0.6467  0.45226  1.0000
  H   H3        1.0  0.08848  0.9351899999999997  0.19737  1.0000
  H   H4        1.0  0.8984600000000001  0.93773  0.16527  1.0000
  H   H5        1.0  0.8107800000000002  0.7750499999999998  0.23991  1.0000
  H   H6        1.0  0.92098  0.62047  0.34034  1.0000
  H   H7        1.0  0.43043  0.8894199999999999  0.13697  1.0000
  H   H8        1.0  0.2959300000000001  0.8829299999999998  0.11929000000000002  1.0000
  H   H9        1.0  0.2890899999999999  0.04345000000000001  0.25599  1.0000
  H   H10       1.0  0.14997999999999997  0.03939999999999999  0.24540000000000003  1.0000
  H   H11       1.0  0.38749  0.07762999999999999  0.05221  1.0000
  H   H12       1.0  0.23874  0.08727  0.04746  1.0000
  H   H13       1.0  0.26584  0.23534999999999998  0.17676  1.0000
  H   H14       1.0  0.12522999999999998  0.2528599999999999  0.15536  1.0000
  H   H15       1.0  0.4538499999999999  0.27721  0.039920000000000004  1.0000
  H   H16       1.0  0.49861000000000005  0.39684  0.84012  1.0000
  H   H17       1.0  0.02635  0.25093  0.08262  1.0000
  H   H18       1.0  0.80557  0.31490999999999997  0.08126  1.0000
  H   H19       1.0  0.7554899999999996  0.45736  0.93765  1.0000
  H   H20       1.0  0.9333299999999999  0.52841  0.80204  1.0000
  H   H21       1.0  0.7418  0.85764  0.52182  1.0000
  H   H22       1.0  0.81655  0.0186  0.46173  1.0000
  H   H23       1.0  0.1121200000000001  0.8588099999999997  0.59681  1.0000
  H   H24       1.0  0.35527999999999993  0.15795000000000003  0.59364  1.0000
  H   H25       1.0  0.68856  0.9769699999999998  0.34094  1.0000
  H   H26       1.0  0.73639  0.14987  0.25785  1.0000
  H   H27       1.0  0.5336999999999998  0.18282999999999996  0.69286  1.0000
  H   H28       1.0  0.6061900000000001  0.35329  0.54774  1.0000
  H   H29       1.0  0.9115299999999998  0.06479999999999998  0.8026300000000001  1.0000
  H   H30       1.0  0.10153999999999999  0.06226999999999998  0.83473  1.0000
  H   H31       1.0  0.18922999999999998  0.22493999999999995  0.76009  1.0000
  H   H32       1.0  0.07902000000000005  0.37952999999999987  0.65966  1.0000
  H   H33       1.0  0.56957  0.11058  0.86303  1.0000
  H   H34       1.0  0.7040799999999998  0.11706999999999998  0.8807  1.0000
  H   H35       1.0  0.71091  0.9565499999999999  0.74401  1.0000
  H   H36       1.0  0.85003  0.9606  0.7546  1.0000
  H   H37       1.0  0.6125200000000002  0.9223699999999999  0.94778  1.0000
  H   H38       1.0  0.7612699999999998  0.9127299999999999  0.95254  1.0000
  H   H39       1.0  0.73417  0.76465  0.82324  1.0000
  H   H40       1.0  0.8747699999999999  0.74714  0.8446300000000001  1.0000
  H   H41       1.0  0.54615  0.72278  0.96008  1.0000
  H   H42       1.0  0.5013899999999999  0.60316  0.15987  1.0000
  H   H43       1.0  0.97365  0.7490699999999998  0.9173800000000002  1.0000
  H   H44       1.0  0.19444000000000003  0.6850899999999998  0.91874  1.0000
  H   H45       1.0  0.24451000000000003  0.54264  0.06235  1.0000
  H   H46       1.0  0.06668000000000007  0.4715899999999999  0.19796  1.0000
  H   H47       1.0  0.25819999999999993  0.14235999999999993  0.4781800000000001  1.0000
  H   H48       1.0  0.1834499999999999  0.9814  0.53827  1.0000
  H   H49       1.0  0.88788  0.14119  0.40319  1.0000
  H   H50       1.0  0.64472  0.84205  0.40636  1.0000
  H   H51       1.0  0.3114399999999999  0.023029999999999995  0.65906  1.0000
  H   H52       1.0  0.26361  0.85013  0.74215  1.0000
  C   C1        1.0  0.3889600000000002  0.78371  0.3238  1.0000
  C   C2        1.0  0.35443  0.69808  0.39378  1.0000
  C   C3        1.0  0.22201000000000007  0.76156  0.30709  1.0000
  C   C4        1.0  0.11195999999999998  0.77241  0.2803  1.0000
  C   C5        1.0  0.053320000000000076  0.8645399999999998  0.22445  1.0000
  C   C6        1.0  0.9448400000000003  0.8664599999999998  0.20817000000000002  1.0000
  C   C7        1.0  0.89559  0.77811  0.24908000000000005  1.0000
  C   C8        1.0  0.9576799999999999  0.69019  0.30544  1.0000
  C   C9        1.0  0.32490000000000013  0.90386  0.1759  1.0000
  C   C10       1.0  0.25508000000000003  0.02449  0.20165  1.0000
  C   C11       1.0  0.28176000000000007  0.09998999999999997  0.09849  1.0000
  C   C12       1.0  0.23160000000000006  0.22184  0.11989  1.0000
  C   C13       1.0  0.3986099999999999  0.30603999999999987  0.9888500000000001  1.0000
  C   C14       1.0  0.4186899999999999  0.36543999999999993  0.8912800000000002  1.0000
  C   C15       1.0  0.22890999999999995  0.3402899999999999  0.9438800000000002  1.0000
  C   C16       1.0  0.09858999999999993  0.35999  0.94533  1.0000
  C   C17       1.0  0.006010000000000006  0.31138  0.020090000000000004  1.0000
  C   C18       1.0  0.881  0.34618999999999994  0.01874  1.0000
  C   C19       1.0  0.85214  0.4261699999999999  0.94072  1.0000
  C   C20       1.0  0.9505500000000001  0.46765999999999996  0.8659600000000002  1.0000
  C   C21       1.0  0.06206000000000002  0.67144  0.66426  1.0000
  C   C22       1.0  0.9904199999999997  0.76796  0.60992  1.0000
  C   C23       1.0  0.8877499999999999  0.7637399999999998  0.58774  1.0000
  C   C24       1.0  0.82464  0.85724  0.53644  1.0000
  C   C25       1.0  0.8679100000000001  0.9490199999999998  0.50258  1.0000
  C   C26       1.0  0.9748200000000001  0.9523499999999998  0.52002  1.0000
  C   C27       1.0  0.03165000000000002  0.8611400000000001  0.5777  1.0000
  C   C28       1.0  0.8483999999999999  0.66033  0.61748  1.0000
  C   C29       1.0  0.37088999999999994  0.35439  0.52629  1.0000
  C   C30       1.0  0.4657800000000001  0.2509699999999999  0.47251000000000004  1.0000
  C   C31       1.0  0.43978000000000006  0.15237999999999996  0.51968  1.0000
  C   C32       1.0  0.5161  0.05128999999999998  0.47443000000000013  1.0000
  C   C33       1.0  0.62394  0.05293999999999999  0.37857  1.0000
  C   C34       1.0  0.65147  0.15063999999999994  0.33102000000000004  1.0000
  C   C35       1.0  0.57308  0.2514  0.3763  1.0000
  C   C36       1.0  0.61398  0.3522999999999999  0.32451  1.0000
  C   C37       1.0  0.6110399999999999  0.21628  0.6762000000000002  1.0000
  C   C38       1.0  0.64557  0.30192  0.60622  1.0000
  C   C39       1.0  0.7779899999999997  0.23843999999999999  0.6929100000000001  1.0000
  C   C40       1.0  0.8880499999999996  0.22758999999999993  0.7197000000000001  1.0000
  C   C41       1.0  0.9466899999999999  0.13545  0.77555  1.0000
  C   C42       1.0  0.05517000000000004  0.13353999999999994  0.79182  1.0000
  C   C43       1.0  0.10441000000000003  0.2218799999999999  0.75092  1.0000
  C   C44       1.0  0.042319999999999997  0.30981  0.69456  1.0000
  C   C45       1.0  0.6751  0.09614  0.82409  1.0000
  C   C46       1.0  0.7449199999999998  0.97551  0.7983500000000001  1.0000
  C   C47       1.0  0.7182400000000001  0.9000099999999999  0.90151  1.0000
  C   C48       1.0  0.7684000000000002  0.77815  0.8801100000000002  1.0000
  C   C49       1.0  0.6014  0.69395  0.01115  1.0000
  C   C50       1.0  0.58131  0.63456  0.10871  1.0000
  C   C51       1.0  0.77109  0.6597099999999999  0.05612  1.0000
  C   C52       1.0  0.90141  0.6400099999999999  0.05467  1.0000
  C   C53       1.0  0.9939900000000003  0.6886199999999999  0.97991  1.0000
  C   C54       1.0  0.11900999999999999  0.65381  0.98126  1.0000
  C   C55       1.0  0.1478600000000001  0.5738299999999998  0.05928  1.0000
  C   C56       1.0  0.049450000000000015  0.5323399999999999  0.13404  1.0000
  C   C57       1.0  0.9379400000000001  0.32855999999999996  0.33574  1.0000
  C   C58       1.0  0.009589999999999994  0.23203999999999997  0.39008  1.0000
  C   C59       1.0  0.11225  0.23625999999999997  0.41226  1.0000
  C   C60       1.0  0.17535999999999993  0.14275999999999997  0.4635600000000001  1.0000
  C   C61       1.0  0.13209  0.05097999999999999  0.49742000000000003  1.0000
  C   C62       1.0  0.02518  0.04765  0.47997  1.0000
  C   C63       1.0  0.96835  0.13886  0.42229  1.0000
  C   C64       1.0  0.15161000000000002  0.3396699999999999  0.3825200000000001  1.0000
  C   C65       1.0  0.6291100000000001  0.6456099999999998  0.47371  1.0000
  C   C66       1.0  0.5342199999999998  0.7490299999999999  0.52749  1.0000
  C   C67       1.0  0.56023  0.84762  0.4803200000000001  1.0000
  C   C68       1.0  0.48389999999999994  0.9487099999999998  0.52557  1.0000
  C   C69       1.0  0.3760600000000001  0.9470599999999998  0.62142  1.0000
  C   C70       1.0  0.3485300000000001  0.8493599999999999  0.6689800000000001  1.0000
  C   C71       1.0  0.42692000000000024  0.7486099999999996  0.6237  1.0000
  C   C72       1.0  0.38601999999999986  0.6477  0.6755000000000001  1.0000
  N   N1        1.0  0.06342999999999994  0.68647  0.31973000000000007  1.0000
  N   N2        1.0  0.2519799999999999  0.6854899999999998  0.3819700000000001  1.0000
  N   N3        1.0  0.30574000000000007  0.8235499999999998  0.26885  1.0000
  N   N4        1.0  0.07007999999999995  0.43635999999999997  0.8680800000000002  1.0000
  N   N5        1.0  0.3139799999999999  0.38522  0.86464  1.0000
  N   N6        1.0  0.27912  0.28985  0.021800000000000003  1.0000
  N   N7        1.0  0.9365799999999994  0.31353  0.6802700000000002  1.0000
  N   N8        1.0  0.7480199999999998  0.3145099999999999  0.61803  1.0000
  N   N9        1.0  0.69426  0.17644999999999994  0.7311500000000001  1.0000
  N   N10       1.0  0.9299199999999995  0.56364  0.13192  1.0000
  N   N11       1.0  0.6860200000000001  0.6147799999999999  0.13536  1.0000
  N   N12       1.0  0.72089  0.71015  0.9782  1.0000
  O   O1        1.0  0.08629999999999997  0.68631  0.73929  1.0000
  O   O2        1.0  0.09779999999999998  0.57578  0.63068  1.0000
  O   O3        1.0  0.9020000000000001  0.59828  0.53794  1.0000
  O   O4        1.0  0.7738699999999998  0.6405799999999999  0.7089400000000002  1.0000
  O   O5        1.0  0.32915  0.34444  0.62866  1.0000
  O   O6        1.0  0.3390699999999997  0.43866  0.46737  1.0000
  O   O7        1.0  0.62271  0.4067199999999999  0.38655  1.0000
  O   O8        1.0  0.6453299999999998  0.3733299999999999  0.22545000000000004  1.0000
  O   O9        1.0  0.9137  0.31369  0.26071  1.0000
  O   O10       1.0  0.9022  0.42422  0.3693100000000001  1.0000
  O   O11       1.0  0.09799999999999998  0.40172  0.46206  1.0000
  O   O12       1.0  0.22613999999999995  0.35941  0.29106  1.0000
  O   O13       1.0  0.6708599999999999  0.65556  0.37134  1.0000
  O   O14       1.0  0.66093  0.5613399999999998  0.53263  1.0000
  O   O15       1.0  0.37729000000000007  0.5932899999999999  0.61345  1.0000
  O   O16       1.0  0.35468000000000005  0.6266699999999998  0.77455  1.0000
