data_image0
_chemical_formula_structural       Cd12H24C72N96
_chemical_formula_sum              "Cd12 H24 C72 N96"
_cell_length_a       19.31983
_cell_length_b       19.31983
_cell_length_c       19.31983
_cell_angle_alpha    90.0
_cell_angle_beta     90.0
_cell_angle_gamma    90.0

_symmetry_space_group_name_H-M    'P 1'
_symmetry_Int_Tables_number       1

loop_
  _symmetry_equiv_pos_as_xyz
  'x,y,z'

loop_
  _atom_site_type_symbol
  _atom_site_label
  _atom_site_symmetry_multiplicity
  _atom_site_fract_x
  _atom_site_fract_y
  _atom_site_fract_z
  _atom_site_occupancy
  Cd  Cd1       1.0  0.35283  0.5  0.0  1.0000
  Cd  Cd2       1.0  0.64717  0.5  0.0  1.0000
  Cd  Cd3       1.0  0.0  0.35283  0.5  1.0000
  Cd  Cd4       1.0  0.0  0.64717  0.5  1.0000
  Cd  Cd5       1.0  0.5  0.0  0.35283  1.0000
  Cd  Cd6       1.0  0.5  0.0  0.64717  1.0000
  Cd  Cd7       1.0  0.5  0.35283  0.0  1.0000
  Cd  Cd8       1.0  0.5  0.64717  0.0  1.0000
  Cd  Cd9       1.0  0.35283  0.0  0.5  1.0000
  Cd  Cd10      1.0  0.64717  0.0  0.5  1.0000
  Cd  Cd11      1.0  0.0  0.5  0.64717  1.0000
  Cd  Cd12      1.0  0.0  0.5  0.35283  1.0000
  H   H1        1.0  0.23655  0.39439  0.23655  1.0000
  H   H2        1.0  0.76345  0.60561  0.23655  1.0000
  H   H3        1.0  0.76345  0.39439  0.76345  1.0000
  H   H4        1.0  0.23655  0.60561  0.76345  1.0000
  H   H5        1.0  0.23655  0.23655  0.39439  1.0000
  H   H6        1.0  0.23655  0.76345  0.60561  1.0000
  H   H7        1.0  0.76345  0.76345  0.39439  1.0000
  H   H8        1.0  0.76345  0.23655  0.60561  1.0000
  H   H9        1.0  0.39439  0.23655  0.23655  1.0000
  H   H10       1.0  0.60561  0.23655  0.76345  1.0000
  H   H11       1.0  0.39439  0.76345  0.76345  1.0000
  H   H12       1.0  0.60561  0.76345  0.23655  1.0000
  H   H13       1.0  0.39439  0.23655  0.76345  1.0000
  H   H14       1.0  0.60561  0.76345  0.76345  1.0000
  H   H15       1.0  0.39439  0.76345  0.23655  1.0000
  H   H16       1.0  0.60561  0.23655  0.23655  1.0000
  H   H17       1.0  0.23655  0.23655  0.60561  1.0000
  H   H18       1.0  0.76345  0.23655  0.39439  1.0000
  H   H19       1.0  0.76345  0.76345  0.60561  1.0000
  H   H20       1.0  0.23655  0.76345  0.39439  1.0000
  H   H21       1.0  0.23655  0.39439  0.76345  1.0000
  H   H22       1.0  0.23655  0.60561  0.23655  1.0000
  H   H23       1.0  0.76345  0.39439  0.23655  1.0000
  H   H24       1.0  0.76345  0.60561  0.76345  1.0000
  C   C1        1.0  0.34922000000000003  0.34921000000000013  0.16763  1.0000
  C   C2        1.0  0.31875000000000003  0.31875000000000003  0.22989000000000007  1.0000
  C   C3        1.0  0.65078  0.6507900000000001  0.16763  1.0000
  C   C4        1.0  0.6812500000000001  0.6812500000000001  0.22989000000000007  1.0000
  C   C5        1.0  0.65078  0.34921000000000013  0.8323700000000002  1.0000
  C   C6        1.0  0.6812500000000001  0.31875000000000003  0.77011  1.0000
  C   C7        1.0  0.34922000000000003  0.6507900000000001  0.8323700000000002  1.0000
  C   C8        1.0  0.31875000000000003  0.6812500000000001  0.77011  1.0000
  C   C9        1.0  0.16763  0.34921000000000013  0.34921000000000013  1.0000
  C   C10       1.0  0.22989000000000007  0.31875000000000003  0.31875000000000003  1.0000
  C   C11       1.0  0.16763  0.6507900000000001  0.6507900000000001  1.0000
  C   C12       1.0  0.22989000000000007  0.6812500000000001  0.6812500000000001  1.0000
  C   C13       1.0  0.8323700000000002  0.6507900000000001  0.34921000000000013  1.0000
  C   C14       1.0  0.77011  0.6812500000000001  0.31875000000000003  1.0000
  C   C15       1.0  0.8323700000000002  0.34921000000000013  0.6507900000000001  1.0000
  C   C16       1.0  0.77011  0.31875000000000003  0.6812500000000001  1.0000
  C   C17       1.0  0.34921000000000013  0.16763  0.34921000000000013  1.0000
  C   C18       1.0  0.31875000000000003  0.22989000000000007  0.31875000000000003  1.0000
  C   C19       1.0  0.6507900000000001  0.16763  0.6507900000000001  1.0000
  C   C20       1.0  0.6812500000000001  0.22989000000000007  0.6812500000000001  1.0000
  C   C21       1.0  0.34921000000000013  0.8323700000000002  0.6507900000000001  1.0000
  C   C22       1.0  0.31875000000000003  0.77011  0.6812500000000001  1.0000
  C   C23       1.0  0.6507900000000001  0.8323700000000002  0.34921000000000013  1.0000
  C   C24       1.0  0.6812500000000001  0.77011  0.31875000000000003  1.0000
  C   C25       1.0  0.34922000000000003  0.34921000000000013  0.8323700000000002  1.0000
  C   C26       1.0  0.31875000000000003  0.31875000000000003  0.77011  1.0000
  C   C27       1.0  0.65078  0.6507900000000001  0.8323700000000002  1.0000
  C   C28       1.0  0.6812500000000001  0.6812500000000001  0.77011  1.0000
  C   C29       1.0  0.34922000000000003  0.6507900000000001  0.16763  1.0000
  C   C30       1.0  0.31875000000000003  0.6812500000000001  0.22989000000000007  1.0000
  C   C31       1.0  0.65078  0.34921000000000013  0.16763  1.0000
  C   C32       1.0  0.6812500000000001  0.31875000000000003  0.22989000000000007  1.0000
  C   C33       1.0  0.34921000000000013  0.16763  0.6507900000000001  1.0000
  C   C34       1.0  0.31875000000000003  0.22989000000000007  0.6812500000000001  1.0000
  C   C35       1.0  0.6507900000000001  0.16763  0.34921000000000013  1.0000
  C   C36       1.0  0.6812500000000001  0.22989000000000007  0.31875000000000003  1.0000
  C   C37       1.0  0.6507900000000001  0.8323700000000002  0.6507900000000001  1.0000
  C   C38       1.0  0.6812500000000001  0.77011  0.6812500000000001  1.0000
  C   C39       1.0  0.34921000000000013  0.8323700000000002  0.34921000000000013  1.0000
  C   C40       1.0  0.31875000000000003  0.77011  0.31875000000000003  1.0000
  C   C41       1.0  0.16763  0.34921000000000013  0.6507900000000001  1.0000
  C   C42       1.0  0.22989000000000007  0.31875000000000003  0.6812500000000001  1.0000
  C   C43       1.0  0.16763  0.6507900000000001  0.34921000000000013  1.0000
  C   C44       1.0  0.22989000000000007  0.6812500000000001  0.31875000000000003  1.0000
  C   C45       1.0  0.8323700000000002  0.34921000000000013  0.34921000000000013  1.0000
  C   C46       1.0  0.77011  0.31875000000000003  0.31875000000000003  1.0000
  C   C47       1.0  0.8323700000000002  0.6507900000000001  0.6507900000000001  1.0000
  C   C48       1.0  0.77011  0.6812500000000001  0.6812500000000001  1.0000
  C   C49       1.0  0.25954  0.34842  0.25954  1.0000
  C   C50       1.0  0.74046  0.6515800000000003  0.25954  1.0000
  C   C51       1.0  0.74046  0.34842  0.74046  1.0000
  C   C52       1.0  0.25954  0.6515800000000003  0.74046  1.0000
  C   C53       1.0  0.25954  0.25953  0.34842  1.0000
  C   C54       1.0  0.25954  0.74047  0.6515700000000001  1.0000
  C   C55       1.0  0.74046  0.74047  0.34842  1.0000
  C   C56       1.0  0.74046  0.25953  0.6515700000000001  1.0000
  C   C57       1.0  0.34843000000000013  0.25953  0.25953  1.0000
  C   C58       1.0  0.6515700000000001  0.25953  0.74046  1.0000
  C   C59       1.0  0.34843000000000013  0.74047  0.74046  1.0000
  C   C60       1.0  0.6515700000000001  0.74047  0.25953  1.0000
  C   C61       1.0  0.34843000000000013  0.25953  0.74046  1.0000
  C   C62       1.0  0.6515700000000001  0.74047  0.74046  1.0000
  C   C63       1.0  0.34843000000000013  0.74047  0.25953  1.0000
  C   C64       1.0  0.6515700000000001  0.25953  0.25953  1.0000
  C   C65       1.0  0.25954  0.25953  0.6515700000000001  1.0000
  C   C66       1.0  0.74046  0.25953  0.34842  1.0000
  C   C67       1.0  0.74046  0.74047  0.6515700000000001  1.0000
  C   C68       1.0  0.25954  0.74047  0.34842  1.0000
  C   C69       1.0  0.25954  0.34842  0.74046  1.0000
  C   C70       1.0  0.25954  0.6515800000000003  0.25954  1.0000
  C   C71       1.0  0.74046  0.34842  0.25954  1.0000
  C   C72       1.0  0.74046  0.6515800000000003  0.74046  1.0000
  N   N1        1.0  0.36549  0.41489  0.08122  1.0000
  N   N2        1.0  0.32374  0.40584  0.13503  1.0000
  N   N3        1.0  0.63451  0.5851100000000001  0.08122  1.0000
  N   N4        1.0  0.67626  0.59416  0.13503  1.0000
  N   N5        1.0  0.63451  0.41489  0.9187800000000003  1.0000
  N   N6        1.0  0.67626  0.40584  0.8649700000000001  1.0000
  N   N7        1.0  0.36549  0.5851100000000001  0.9187800000000003  1.0000
  N   N8        1.0  0.32374  0.59416  0.8649700000000001  1.0000
  N   N9        1.0  0.08123  0.36549  0.4148800000000001  1.0000
  N   N10       1.0  0.13503  0.32374  0.40584  1.0000
  N   N11       1.0  0.08123  0.63451  0.58512  1.0000
  N   N12       1.0  0.13503  0.67626  0.59416  1.0000
  N   N13       1.0  0.9187700000000001  0.63451  0.4148800000000001  1.0000
  N   N14       1.0  0.8649700000000001  0.67626  0.40584  1.0000
  N   N15       1.0  0.9187700000000001  0.36549  0.58512  1.0000
  N   N16       1.0  0.8649700000000001  0.32374  0.59416  1.0000
  N   N17       1.0  0.4148800000000001  0.08123  0.36549  1.0000
  N   N18       1.0  0.40584  0.13503  0.32374  1.0000
  N   N19       1.0  0.58512  0.08123  0.63451  1.0000
  N   N20       1.0  0.59416  0.13503  0.67626  1.0000
  N   N21       1.0  0.4148800000000001  0.9187700000000001  0.63451  1.0000
  N   N22       1.0  0.40584  0.8649700000000001  0.67626  1.0000
  N   N23       1.0  0.58512  0.9187700000000001  0.36549  1.0000
  N   N24       1.0  0.59416  0.8649700000000001  0.32374  1.0000
  N   N25       1.0  0.4148800000000001  0.36549  0.9187700000000001  1.0000
  N   N26       1.0  0.4058300000000001  0.32374  0.8649700000000001  1.0000
  N   N27       1.0  0.58512  0.63451  0.9187700000000001  1.0000
  N   N28       1.0  0.59416  0.67626  0.8649700000000001  1.0000
  N   N29       1.0  0.4148800000000001  0.63451  0.08123  1.0000
  N   N30       1.0  0.4058300000000001  0.67626  0.13503  1.0000
  N   N31       1.0  0.58512  0.36549  0.08123  1.0000
  N   N32       1.0  0.59416  0.32374  0.13503  1.0000
  N   N33       1.0  0.36549  0.08123  0.58512  1.0000
  N   N34       1.0  0.32374  0.13503  0.59416  1.0000
  N   N35       1.0  0.63451  0.08123  0.4148800000000001  1.0000
  N   N36       1.0  0.67626  0.13503  0.40584  1.0000
  N   N37       1.0  0.63451  0.9187700000000001  0.58512  1.0000
  N   N38       1.0  0.67626  0.8649700000000001  0.59416  1.0000
  N   N39       1.0  0.36549  0.9187700000000001  0.4148800000000001  1.0000
  N   N40       1.0  0.32374  0.8649700000000001  0.40584  1.0000
  N   N41       1.0  0.08123  0.41489  0.63451  1.0000
  N   N42       1.0  0.13503  0.40584  0.67626  1.0000
  N   N43       1.0  0.08123  0.5851100000000001  0.36549  1.0000
  N   N44       1.0  0.13503  0.59416  0.32374  1.0000
  N   N45       1.0  0.9187700000000001  0.41489  0.36549  1.0000
  N   N46       1.0  0.8649700000000001  0.40584  0.32374  1.0000
  N   N47       1.0  0.9187700000000001  0.5851100000000001  0.63451  1.0000
  N   N48       1.0  0.8649700000000001  0.59416  0.67626  1.0000
  N   N49       1.0  0.63451  0.5851100000000001  0.9187800000000003  1.0000
  N   N50       1.0  0.67626  0.59416  0.8649700000000001  1.0000
  N   N51       1.0  0.36549  0.41489  0.9187800000000003  1.0000
  N   N52       1.0  0.32374  0.40584  0.8649700000000001  1.0000
  N   N53       1.0  0.36549  0.5851100000000001  0.08122  1.0000
  N   N54       1.0  0.32374  0.59416  0.13503  1.0000
  N   N55       1.0  0.63451  0.41489  0.08122  1.0000
  N   N56       1.0  0.67626  0.40584  0.13503  1.0000
  N   N57       1.0  0.9187700000000001  0.63451  0.58512  1.0000
  N   N58       1.0  0.8649700000000001  0.67626  0.59416  1.0000
  N   N59       1.0  0.9187700000000001  0.36549  0.4148800000000001  1.0000
  N   N60       1.0  0.8649700000000001  0.32374  0.40584  1.0000
  N   N61       1.0  0.08123  0.36549  0.58512  1.0000
  N   N62       1.0  0.13503  0.32374  0.59416  1.0000
  N   N63       1.0  0.08123  0.63451  0.4148800000000001  1.0000
  N   N64       1.0  0.13503  0.67626  0.40584  1.0000
  N   N65       1.0  0.58512  0.9187700000000001  0.63451  1.0000
  N   N66       1.0  0.59416  0.8649700000000001  0.67626  1.0000
  N   N67       1.0  0.4148800000000001  0.9187700000000001  0.36549  1.0000
  N   N68       1.0  0.40584  0.8649700000000001  0.32374  1.0000
  N   N69       1.0  0.58512  0.08123  0.36549  1.0000
  N   N70       1.0  0.59416  0.13503  0.32374  1.0000
  N   N71       1.0  0.4148800000000001  0.08123  0.63451  1.0000
  N   N72       1.0  0.40584  0.13503  0.67626  1.0000
  N   N73       1.0  0.58512  0.63451  0.08123  1.0000
  N   N74       1.0  0.59416  0.67626  0.13503  1.0000
  N   N75       1.0  0.4148800000000001  0.36549  0.08123  1.0000
  N   N76       1.0  0.4058300000000001  0.32374  0.13503  1.0000
  N   N77       1.0  0.58512  0.36549  0.9187700000000001  1.0000
  N   N78       1.0  0.59416  0.32374  0.8649700000000001  1.0000
  N   N79       1.0  0.4148800000000001  0.63451  0.9187700000000001  1.0000
  N   N80       1.0  0.4058300000000001  0.67626  0.8649700000000001  1.0000
  N   N81       1.0  0.63451  0.9187700000000001  0.4148800000000001  1.0000
  N   N82       1.0  0.67626  0.8649700000000001  0.40584  1.0000
  N   N83       1.0  0.36549  0.9187700000000001  0.58512  1.0000
  N   N84       1.0  0.32374  0.8649700000000001  0.59416  1.0000
  N   N85       1.0  0.36549  0.08123  0.4148800000000001  1.0000
  N   N86       1.0  0.32374  0.13503  0.40584  1.0000
  N   N87       1.0  0.63451  0.08123  0.58512  1.0000
  N   N88       1.0  0.67626  0.13503  0.59416  1.0000
  N   N89       1.0  0.9187700000000001  0.5851100000000001  0.36549  1.0000
  N   N90       1.0  0.8649700000000001  0.59416  0.32374  1.0000
  N   N91       1.0  0.9187700000000001  0.41489  0.63451  1.0000
  N   N92       1.0  0.8649700000000001  0.40584  0.67626  1.0000
  N   N93       1.0  0.08123  0.5851100000000001  0.63451  1.0000
  N   N94       1.0  0.13503  0.59416  0.67626  1.0000
  N   N95       1.0  0.08123  0.41489  0.36549  1.0000
  N   N96       1.0  0.13503  0.40584  0.32374  1.0000
