data_image0
_chemical_formula_structural       Co2H84C84N24
_chemical_formula_sum              "Co2 H84 C84 N24"
_cell_length_a       9.49412
_cell_length_b       13.75245
_cell_length_c       17.982350000000004
_cell_angle_alpha    86.25112999999999
_cell_angle_beta     79.23451
_cell_angle_gamma    69.81287

_space_group_name_H-M_alt    "P 1"
_space_group_IT_number       1

loop_
  _space_group_symop_operation_xyz
  'x, y, z'

loop_
  _atom_site_type_symbol
  _atom_site_label
  _atom_site_symmetry_multiplicity
  _atom_site_fract_x
  _atom_site_fract_y
  _atom_site_fract_z
  _atom_site_occupancy
  Co  Co1       1.0  0.0029799999999999974  0.9977499999999999  0.99935  1.0000
  Co  Co2       1.0  0.9989299999999998  0.00227  0.49960000000000004  1.0000
  H   H1        1.0  0.9556299999999999  0.7632299999999997  0.07737  1.0000
  H   H2        1.0  0.66511  0.00294  0.96218  1.0000
  H   H3        1.0  0.55072  0.84005  0.9869700000000001  1.0000
  H   H4        1.0  0.63417  0.6699599999999998  0.04062  1.0000
  H   H5        1.0  0.71035  0.66733  0.12389  1.0000
  H   H6        1.0  0.8504800000000001  0.62116  0.9124700000000001  1.0000
  H   H7        1.0  0.9289600000000001  0.52586  0.13885  1.0000
  H   H8        1.0  0.08493000000000005  0.030959999999999994  0.165  1.0000
  H   H9        1.0  0.22627000000000014  0.7611199999999998  0.03274  1.0000
  H   H10       1.0  0.33298999999999995  0.70899  0.16775  1.0000
  H   H11       1.0  0.22943  0.8182  0.29892  1.0000
  H   H12       1.0  0.16812999999999986  0.95374  0.28982  1.0000
  H   H13       1.0  0.5124600000000001  0.71436  0.25618  1.0000
  H   H14       1.0  0.34215000000000007  0.04758  0.25815  1.0000
  H   H15       1.0  0.9544800000000001  0.23225  0.07704  1.0000
  H   H16       1.0  0.65242  0.06407  0.10464  1.0000
  H   H17       1.0  0.4873100000000001  0.27095  0.14258  1.0000
  H   H18       1.0  0.7884900000000001  0.40665  0.11128000000000002  1.0000
  H   H19       1.0  0.6144300000000003  0.4232699999999999  0.17523  1.0000
  H   H20       1.0  0.78498  0.41516  0.9677100000000001  1.0000
  H   H21       1.0  0.36802  0.50122  0.13227000000000003  1.0000
  H   H22       1.0  0.2797800000000001  0.7684699999999998  0.42244  1.0000
  H   H23       1.0  0.33165  0.00812  0.53706  1.0000
  H   H24       1.0  0.6078200000000001  0.8444299999999998  0.51338  1.0000
  H   H25       1.0  0.6942300000000001  0.67464  0.45968000000000003  1.0000
  H   H26       1.0  0.6199499999999998  0.6723  0.3765  1.0000
  H   H27       1.0  0.5271899999999999  0.62513  0.58789  1.0000
  H   H28       1.0  0.5449100000000001  0.53036  0.36149  1.0000
  H   H29       1.0  0.88496  0.03462  0.33365  1.0000
  H   H30       1.0  0.009670000000000135  0.7658699999999998  0.46779  1.0000
  H   H31       1.0  0.9555499999999999  0.71287  0.33320000000000005  1.0000
  H   H32       1.0  0.9521000000000001  0.82158  0.20069  1.0000
  H   H33       1.0  0.8762900000000001  0.9570999999999997  0.20966  1.0000
  H   H34       1.0  0.7774299999999998  0.71589  0.24064  1.0000
  H   H35       1.0  0.60657  0.04898  0.24494  1.0000
  H   H36       1.0  0.8122199999999999  0.23661  0.42153  1.0000
  H   H37       1.0  0.28184999999999993  0.06775  0.39604  1.0000
  H   H38       1.0  0.24150000000000005  0.27472  0.35824  1.0000
  H   H39       1.0  0.8046600000000003  0.4107099999999999  0.38826  1.0000
  H   H40       1.0  0.9622300000000001  0.4273299999999999  0.32437  1.0000
  H   H41       1.0  0.7992700000000001  0.41968999999999995  0.53205  1.0000
  H   H42       1.0  0.13026000000000001  0.50534  0.36713  1.0000
  H   H43       1.0  0.049640000000000004  0.23212  0.9220000000000002  1.0000
  H   H44       1.0  0.34016000000000024  0.9924999999999998  0.03724000000000001  1.0000
  H   H45       1.0  0.4536299999999999  0.15601999999999996  0.01306  1.0000
  H   H46       1.0  0.3708600000000001  0.32557  0.95895  1.0000
  H   H47       1.0  0.29447  0.32836  0.87574  1.0000
  H   H48       1.0  0.15471000000000007  0.37480999999999987  0.08727  1.0000
  H   H49       1.0  0.07623000000000002  0.47006999999999993  0.86083  1.0000
  H   H50       1.0  0.9205299999999998  0.9649899999999998  0.83326  1.0000
  H   H51       1.0  0.77876  0.23375999999999994  0.96694  1.0000
  H   H52       1.0  0.6684  0.28638  0.83289  1.0000
  H   H53       1.0  0.7736799999999998  0.17824  0.70047  1.0000
  H   H54       1.0  0.83295  0.04273999999999999  0.70948  1.0000
  H   H55       1.0  0.49328999999999995  0.28401  0.74026  1.0000
  H   H56       1.0  0.65515  0.9508999999999999  0.74507  1.0000
  H   H57       1.0  0.05145000000000004  0.7634199999999999  0.92148  1.0000
  H   H58       1.0  0.35359000000000007  0.9312199999999998  0.89617  1.0000
  H   H59       1.0  0.51928  0.72416  0.85847  1.0000
  H   H60       1.0  0.21803000000000006  0.58881  0.88794  1.0000
  H   H61       1.0  0.39194000000000007  0.57252  0.82396  1.0000
  H   H62       1.0  0.22133999999999998  0.57993  0.03138  1.0000
  H   H63       1.0  0.63823  0.4939399999999999  0.86681  1.0000
  H   H64       1.0  0.71768  0.23525  0.57791  1.0000
  H   H65       1.0  0.6659600000000001  0.9967699999999999  0.46205  1.0000
  H   H66       1.0  0.38894999999999996  0.1604  0.48673  1.0000
  H   H67       1.0  0.30271  0.3295699999999999  0.54126  1.0000
  H   H68       1.0  0.3771400000000001  0.33152  0.62434  1.0000
  H   H69       1.0  0.47072999999999987  0.37871  0.41298  1.0000
  H   H70       1.0  0.45271000000000017  0.47380999999999995  0.63951  1.0000
  H   H71       1.0  0.1155700000000001  0.9690699999999999  0.66516  1.0000
  H   H72       1.0  0.9836200000000002  0.23909999999999998  0.53292  1.0000
  H   H73       1.0  0.04157000000000007  0.29105999999999993  0.66702  1.0000
  H   H74       1.0  0.04755999999999999  0.18196  0.79867  1.0000
  H   H75       1.0  0.12146999999999998  0.04648999999999998  0.78978  1.0000
  H   H76       1.0  0.22665  0.28557  0.75582  1.0000
  H   H77       1.0  0.38938  0.95244  0.75844  1.0000
  H   H78       1.0  0.18509000000000003  0.7679  0.5781  1.0000
  H   H79       1.0  0.71535  0.93622  0.60326  1.0000
  H   H80       1.0  0.75648  0.7288  0.64075  1.0000
  H   H81       1.0  0.19281999999999996  0.59354  0.61141  1.0000
  H   H82       1.0  0.035180000000000114  0.5771099999999999  0.67527  1.0000
  H   H83       1.0  0.19862000000000005  0.58404  0.46772  1.0000
  H   H84       1.0  0.8678900000000003  0.49824999999999997  0.63268  1.0000
  C   C1        1.0  0.8610600000000002  0.80933  0.05047  1.0000
  C   C2        1.0  0.70846  0.9298599999999999  0.9906400000000001  1.0000
  C   C3        1.0  0.6498900000000001  0.85033  0.00199  1.0000
  C   C4        1.0  0.7347400000000001  0.67158  0.06188  1.0000
  C   C5        1.0  0.87436  0.58356  0.03025  1.0000
  C   C6        1.0  0.9175399999999999  0.5680499999999999  0.95046  1.0000
  C   C7        1.0  0.96136  0.51344  0.07782  1.0000
  C   C8        1.0  0.13513999999999998  0.95113  0.1465  1.0000
  C   C9        1.0  0.21013000000000004  0.81003  0.08044  1.0000
  C   C10       1.0  0.26448  0.78252  0.14721  1.0000
  C   C11       1.0  0.2502399999999999  0.88179  0.26382  1.0000
  C   C12       1.0  0.4101000000000002  0.8809999999999998  0.25864  1.0000
  C   C13       1.0  0.5333299999999999  0.78768  0.2535  1.0000
  C   C14       1.0  0.43757000000000007  0.9750099999999998  0.25475  1.0000
  C   C15       1.0  0.85291  0.2111  0.09117  1.0000
  C   C16       1.0  0.69167  0.12901  0.10545000000000002  1.0000
  C   C17       1.0  0.60817  0.23057999999999995  0.12531  1.0000
  C   C18       1.0  0.67712  0.3961  0.11841000000000002  1.0000
  C   C19       1.0  0.58889  0.45236  0.058199999999999995  1.0000
  C   C20       1.0  0.66155  0.4504399999999999  0.9818400000000002  1.0000
  C   C21       1.0  0.4279800000000001  0.5001199999999999  0.07424  1.0000
  C   C22       1.0  0.3282300000000001  0.81426  0.4496300000000001  1.0000
  C   C23       1.0  0.36077000000000004  0.93488  0.50904  1.0000
  C   C24       1.0  0.49851000000000006  0.8549999999999998  0.49812  1.0000
  C   C25       1.0  0.59194  0.67625  0.43851  1.0000
  C   C26       1.0  0.5409499999999999  0.58788  0.47014000000000006  1.0000
  C   C27       1.0  0.5135200000000001  0.57199  0.54989  1.0000
  C   C28       1.0  0.52484  0.51763  0.42249  1.0000
  C   C29       1.0  0.91367  0.95496  0.35269  1.0000
  C   C30       1.0  0.97772  0.81445  0.41976  1.0000
  C   C31       1.0  0.9510600000000001  0.78654  0.35313  1.0000
  C   C32       1.0  0.86742  0.88485  0.23585  1.0000
  C   C33       1.0  0.70903  0.88267  0.24128999999999998  1.0000
  C   C34       1.0  0.68177  0.7885  0.24463  1.0000
  C   C35       1.0  0.5857799999999999  0.97578  0.24692  1.0000
  C   C36       1.0  0.93501  0.21530999999999997  0.4081500000000001  1.0000
  C   C37       1.0  0.17812000000000003  0.13289  0.39474  1.0000
  C   C38       1.0  0.16068  0.2345  0.37515  1.0000
  C   C39       1.0  0.92655  0.4001999999999999  0.38122  1.0000
  C   C40       1.0  0.9584599999999999  0.45647  0.4413700000000001  1.0000
  C   C41       1.0  0.8877799999999999  0.45467  0.51776  1.0000
  C   C42       1.0  0.07171999999999998  0.50412  0.42521  1.0000
  C   C43       1.0  0.14390000000000003  0.18622999999999995  0.9491600000000001  1.0000
  C   C44       1.0  0.29655  0.06573  0.009010000000000002  1.0000
  C   C45       1.0  0.3550199999999999  0.14532  0.99767  1.0000
  C   C46       1.0  0.2701899999999999  0.32404999999999995  0.9377500000000001  1.0000
  C   C47       1.0  0.13078  0.41221999999999986  0.96944  1.0000
  C   C48       1.0  0.08769000000000007  0.4278399999999999  0.04923  1.0000
  C   C49       1.0  0.043850000000000035  0.48243999999999987  0.9218700000000001  1.0000
  C   C50       1.0  0.8697900000000001  0.04459  0.85236  1.0000
  C   C51       1.0  0.79436  0.18513  0.9191400000000001  1.0000
  C   C52       1.0  0.73893  0.21301999999999993  0.85268  1.0000
  C   C53       1.0  0.75223  0.11496  0.73573  1.0000
  C   C54       1.0  0.5915200000000002  0.11727999999999998  0.74135  1.0000
  C   C55       1.0  0.47017  0.21139  0.74451  1.0000
  C   C56       1.0  0.5612900000000001  0.024139999999999995  0.74708  1.0000
  C   C57       1.0  0.15318000000000004  0.78443  0.90779  1.0000
  C   C58       1.0  0.3145100000000001  0.8663599999999998  0.89461  1.0000
  C   C59       1.0  0.39831  0.76469  0.87521  1.0000
  C   C60       1.0  0.3293299999999998  0.5993999999999999  0.88086  1.0000
  C   C61       1.0  0.41756000000000015  0.54297  0.9409700000000001  1.0000
  C   C62       1.0  0.34485000000000005  0.5449199999999998  0.01731  1.0000
  C   C63       1.0  0.5784299999999999  0.49524999999999997  0.92491  1.0000
  C   C64       1.0  0.66902  0.18981999999999993  0.5505  1.0000
  C   C65       1.0  0.63646  0.06994  0.49028  1.0000
  C   C66       1.0  0.4985899999999999  0.14961  0.5017400000000001  1.0000
  C   C67       1.0  0.40521  0.32778  0.56232  1.0000
  C   C68       1.0  0.45661999999999997  0.41604  0.53081  1.0000
  C   C69       1.0  0.48453999999999997  0.43173999999999996  0.45102000000000003  1.0000
  C   C70       1.0  0.4730199999999999  0.48619  0.57847  1.0000
  C   C71       1.0  0.08526  0.048939999999999984  0.64655  1.0000
  C   C72       1.0  0.01774000000000002  0.19008999999999995  0.58046  1.0000
  C   C73       1.0  0.04522000000000002  0.21765  0.64701  1.0000
  C   C74       1.0  0.13166000000000008  0.11837999999999997  0.76355  1.0000
  C   C75       1.0  0.29088999999999987  0.11898999999999998  0.75823  1.0000
  C   C76       1.0  0.32087  0.21229999999999996  0.7531500000000001  1.0000
  C   C77       1.0  0.41226  0.02503  0.75474  1.0000
  C   C78       1.0  0.06233000000000001  0.78905  0.5916  1.0000
  C   C79       1.0  0.8191200000000002  0.87117  0.60471  1.0000
  C   C80       1.0  0.8368400000000001  0.7694199999999998  0.62404  1.0000
  C   C81       1.0  0.07101000000000002  0.6039599999999999  0.61836  1.0000
  C   C82       1.0  0.03933999999999996  0.54735  0.55835  1.0000
  C   C83       1.0  0.11005000000000005  0.54912  0.48198  1.0000
  C   C84       1.0  0.92621  0.4995799999999999  0.5745600000000002  1.0000
  N   N1        1.0  0.8412600000000002  0.9038699999999997  0.02072  1.0000
  N   N2        1.0  0.7481200000000001  0.77382  0.0399  1.0000
  N   N3        1.0  0.12712000000000004  0.9152  0.08055  1.0000
  N   N4        1.0  0.21573000000000003  0.87266  0.18909  1.0000
  N   N5        1.0  0.8447500000000001  0.11709999999999998  0.08334  1.0000
  N   N6        1.0  0.71226  0.28221  0.11636000000000002  1.0000
  N   N7        1.0  0.25387000000000015  0.90899  0.47894  1.0000
  N   N8        1.0  0.4764500000000001  0.77845  0.46052  1.0000
  N   N9        1.0  0.95679  0.91948  0.41894  1.0000
  N   N10       1.0  0.91113  0.87626  0.31054  1.0000
  N   N11       1.0  0.03667000000000002  0.12117999999999997  0.41619  1.0000
  N   N12       1.0  0.005109999999999998  0.28632  0.38342  1.0000
  N   N13       1.0  0.16381000000000012  0.09164999999999998  0.9788499999999999  1.0000
  N   N14       1.0  0.25686999999999993  0.22175999999999996  0.9596800000000001  1.0000
  N   N15       1.0  0.8782200000000001  0.08005  0.91843  1.0000
  N   N16       1.0  0.78809  0.12331999999999999  0.81028  1.0000
  N   N17       1.0  0.1611900000000001  0.87843  0.9157300000000002  1.0000
  N   N18       1.0  0.29414999999999997  0.71321  0.88332  1.0000
  N   N19       1.0  0.7434100000000002  0.09549  0.52056  1.0000
  N   N20       1.0  0.52057  0.22567  0.53996  1.0000
  N   N21       1.0  0.040559999999999985  0.08482  0.58069  1.0000
  N   N22       1.0  0.08732000000000002  0.12751  0.68897  1.0000
  N   N23       1.0  0.9604700000000002  0.88313  0.58366  1.0000
  N   N24       1.0  0.9924300000000001  0.7178199999999998  0.61586  1.0000
