data_image0
_chemical_formula_structural       Cd4H60C92N8O12
_chemical_formula_sum              "Cd4 H60 C92 N8 O12"
_cell_length_a       9.40862
_cell_length_b       18.04007
_cell_length_c       21.38767
_cell_angle_alpha    113.11038
_cell_angle_beta     90.03080999999999
_cell_angle_gamma    105.17763

_symmetry_space_group_name_H-M    'P 1'
_symmetry_Int_Tables_number       1

loop_
  _symmetry_equiv_pos_as_xyz
  'x,y,z'

loop_
  _atom_site_type_symbol
  _atom_site_label
  _atom_site_symmetry_multiplicity
  _atom_site_fract_x
  _atom_site_fract_y
  _atom_site_fract_z
  _atom_site_occupancy
  Cd  Cd1       1.0  0.6146200000000003  0.46654000000000007  0.04591  1.0000
  Cd  Cd2       1.0  0.14853  0.53347  0.45387000000000005  1.0000
  Cd  Cd3       1.0  0.38538000000000006  0.5334699999999999  0.9540899999999999  1.0000
  Cd  Cd4       1.0  0.85147  0.46654000000000007  0.54614  1.0000
  H   H1        1.0  0.6741700000000004  0.6234200000000002  0.90093  1.0000
  H   H2        1.0  0.91344  0.72774  0.90989  1.0000
  H   H3        1.0  0.13256000000000004  0.74833  0.9868200000000001  1.0000
  H   H4        1.0  0.2417100000000001  0.7056400000000002  0.07144  1.0000
  H   H5        1.0  0.20836000000000007  0.61496  0.135  1.0000
  H   H6        1.0  0.8395500000000001  0.4509700000000001  0.11641  1.0000
  H   H7        1.0  0.13541  0.55943  0.20665  1.0000
  H   H8        1.0  0.8106200000000002  0.35737  0.1579  1.0000
  H   H9        1.0  0.75229  0.28791  0.23951  1.0000
  H   H10       1.0  0.8997300000000001  0.35478  0.35541  1.0000
  H   H11       1.0  0.16334999999999994  0.54662  0.31089  1.0000
  H   H12       1.0  0.4924600000000001  0.15454000000000007  0.90585  1.0000
  H   H13       1.0  0.46507  0.009789999999999993  0.89434  1.0000
  H   H14       1.0  0.5597  0.10296000000000002  0.11365000000000001  1.0000
  H   H15       1.0  0.5868100000000002  0.24660000000000004  0.12325  1.0000
  H   H16       1.0  0.05156000000000002  0.37670000000000003  0.59919  1.0000
  H   H17       1.0  0.18598  0.27235  0.59004  1.0000
  H   H18       1.0  0.38399000000000005  0.25167  0.51303  1.0000
  H   H19       1.0  0.53573  0.29443  0.42836  1.0000
  H   H20       1.0  0.59334  0.38519  0.36493  1.0000
  H   H21       1.0  0.38879  0.54894  0.38345  1.0000
  H   H22       1.0  0.57601  0.4407  0.29335  1.0000
  H   H23       1.0  0.45352  0.64244  0.34188  1.0000
  H   H24       1.0  0.4644100000000002  0.7118500000000002  0.26028  1.0000
  H   H25       1.0  0.5450800000000001  0.6452  0.14449  1.0000
  H   H26       1.0  0.6169200000000001  0.4536000000000001  0.1891  1.0000
  H   H27       1.0  0.3377900000000001  0.84504  0.59383  1.0000
  H   H28       1.0  0.4545500000000001  0.9900200000000001  0.60558  1.0000
  H   H29       1.0  0.45611000000000007  0.89726  0.38624  1.0000
  H   H30       1.0  0.3399900000000002  0.7533400000000002  0.37657  1.0000
  H   H31       1.0  0.32584000000000013  0.37659000000000004  0.09907  1.0000
  H   H32       1.0  0.08656000000000005  0.2722600000000001  0.09012  1.0000
  H   H33       1.0  0.86744  0.25168  0.013190000000000002  1.0000
  H   H34       1.0  0.75829  0.29437  0.92857  1.0000
  H   H35       1.0  0.7916500000000001  0.3850400000000001  0.865  1.0000
  H   H36       1.0  0.16045000000000012  0.5490300000000001  0.88359  1.0000
  H   H37       1.0  0.86459  0.44058  0.79335  1.0000
  H   H38       1.0  0.18939  0.64264  0.8421  1.0000
  H   H39       1.0  0.24771  0.7121  0.7605  1.0000
  H   H40       1.0  0.10027000000000012  0.6452200000000002  0.64459  1.0000
  H   H41       1.0  0.83666  0.45339  0.68911  1.0000
  H   H42       1.0  0.5075500000000001  0.8454700000000003  0.09415000000000001  1.0000
  H   H43       1.0  0.53494  0.99022  0.10566000000000002  1.0000
  H   H44       1.0  0.44031000000000015  0.8970500000000002  0.8863500000000001  1.0000
  H   H45       1.0  0.4132  0.75341  0.8767600000000001  1.0000
  H   H46       1.0  0.9484500000000001  0.6233  0.40081  1.0000
  H   H47       1.0  0.8140300000000001  0.7276500000000001  0.40997  1.0000
  H   H48       1.0  0.61601  0.74834  0.48697  1.0000
  H   H49       1.0  0.4642800000000001  0.70557  0.57165  1.0000
  H   H50       1.0  0.4066700000000001  0.6148200000000003  0.63507  1.0000
  H   H51       1.0  0.61122  0.45107  0.61655  1.0000
  H   H52       1.0  0.42399  0.55931  0.70665  1.0000
  H   H53       1.0  0.54649  0.35756  0.65813  1.0000
  H   H54       1.0  0.53559  0.28816  0.73973  1.0000
  H   H55       1.0  0.45493000000000006  0.35481  0.85552  1.0000
  H   H56       1.0  0.38309000000000004  0.54641  0.8109  1.0000
  H   H57       1.0  0.6622200000000003  0.15496  0.40618  1.0000
  H   H58       1.0  0.54545  0.009980000000000017  0.39442  1.0000
  H   H59       1.0  0.54389  0.10274000000000003  0.61376  1.0000
  H   H60       1.0  0.66001  0.24667000000000003  0.62343  1.0000
  C   C1        1.0  0.7506800000000002  0.58147  0.97188  1.0000
  C   C2        1.0  0.7691900000000003  0.63109  0.9342700000000002  1.0000
  C   C3        1.0  0.9052700000000001  0.6902900000000002  0.9398200000000001  1.0000
  C   C4        1.0  0.027840000000000014  0.70219  0.98251  1.0000
  C   C5        1.0  0.015459999999999967  0.65365  0.02153  1.0000
  C   C6        1.0  0.87764  0.59292  0.01644  1.0000
  C   C7        1.0  0.13433000000000012  0.6612200000000001  0.06666  1.0000
  C   C8        1.0  0.11570000000000014  0.6113400000000002  0.10244  1.0000
  C   C9        1.0  0.9753600000000001  0.5529100000000002  0.09554  1.0000
  C   C10       1.0  0.9450200000000001  0.50007  0.13326  1.0000
  C   C11       1.0  0.031799999999999974  0.50896  0.18769  1.0000
  C   C12       1.0  0.9921800000000001  0.45911  0.22786  1.0000
  C   C13       1.0  0.8750300000000001  0.3842700000000001  0.20802  1.0000
  C   C14       1.0  0.8420600000000003  0.34578  0.25349  1.0000
  C   C15       1.0  0.92477  0.38185  0.31784  1.0000
  C   C16       1.0  0.07194000000000007  0.4889900000000001  0.29271  1.0000
  C   C17       1.0  0.56135  0.29786  0.021520000000000004  1.0000
  C   C18       1.0  0.54164  0.21009  0.015180000000000003  1.0000
  C   C19       1.0  0.50701  0.14213000000000006  0.9509200000000001  1.0000
  C   C20       1.0  0.49150999999999995  0.060699999999999914  0.94508  1.0000
  C   C21       1.0  0.50916  0.04348000000000001  0.00308  1.0000
  C   C22       1.0  0.54441  0.11262000000000004  0.06735  1.0000
  C   C23       1.0  0.56041  0.19406  0.07332  1.0000
  C   C24       1.0  0.16946000000000003  0.4183700000000001  0.52777  1.0000
  C   C25       1.0  0.13859  0.36909000000000003  0.56572  1.0000
  C   C26       1.0  0.21525  0.30988  0.56016  1.0000
  C   C27       1.0  0.3256800000000001  0.29787000000000013  0.51742  1.0000
  C   C28       1.0  0.36188  0.34634  0.47833  1.0000
  C   C29       1.0  0.28506000000000004  0.40698000000000006  0.48338  1.0000
  C   C30       1.0  0.47285000000000005  0.33876  0.43315  1.0000
  C   C31       1.0  0.50433  0.38872  0.39742  1.0000
  C   C32       1.0  0.4226000000000001  0.4470700000000002  0.40431  1.0000
  C   C33       1.0  0.44508  0.49992  0.3666  1.0000
  C   C34       1.0  0.52291  0.49107  0.31222  1.0000
  C   C35       1.0  0.53331  0.54089  0.27203  1.0000
  C   C36       1.0  0.4910100000000003  0.6156100000000002  0.29182  1.0000
  C   C37       1.0  0.49640000000000006  0.6540999999999999  0.24636  1.0000
  C   C38       1.0  0.5430900000000001  0.6181600000000003  0.18207  1.0000
  C   C39       1.0  0.5832  0.51115  0.20722999999999997  1.0000
  C   C40       1.0  0.26519  0.70199  0.47803999999999996  1.0000
  C   C41       1.0  0.33247000000000004  0.7898100000000001  0.48455999999999994  1.0000
  C   C42       1.0  0.36501  0.85765  0.54887  1.0000
  C   C43       1.0  0.4304900000000001  0.93919  0.55481  1.0000
  C   C44       1.0  0.46546  0.95652  0.49685999999999997  1.0000
  C   C45       1.0  0.43151  0.88749  0.43252  1.0000
  C   C46       1.0  0.36648000000000003  0.8059700000000001  0.42645999999999995  1.0000
  C   C47       1.0  0.24932000000000007  0.41854000000000013  0.028120000000000003  1.0000
  C   C48       1.0  0.23082000000000003  0.36891  0.06573  1.0000
  C   C49       1.0  0.09472999999999997  0.30972  0.06018  1.0000
  C   C50       1.0  0.97216  0.29782  0.01749  1.0000
  C   C51       1.0  0.98455  0.34636000000000017  0.97847  1.0000
  C   C52       1.0  0.12236000000000001  0.40709000000000006  0.9835700000000002  1.0000
  C   C53       1.0  0.8656800000000001  0.33877999999999997  0.9333499999999999  1.0000
  C   C54       1.0  0.8843000000000001  0.38867  0.89756  1.0000
  C   C55       1.0  0.024650000000000064  0.4471000000000001  0.90447  1.0000
  C   C56       1.0  0.05497999999999999  0.49993000000000004  0.86674  1.0000
  C   C57       1.0  0.96821  0.49104  0.81231  1.0000
  C   C58       1.0  0.007819999999999999  0.5409  0.77214  1.0000
  C   C59       1.0  0.12498  0.61573  0.79198  1.0000
  C   C60       1.0  0.15795  0.65423  0.74652  1.0000
  C   C61       1.0  0.07523000000000016  0.6181600000000003  0.68216  1.0000
  C   C62       1.0  0.92807  0.5110200000000003  0.70729  1.0000
  C   C63       1.0  0.43865  0.70215  0.97848  1.0000
  C   C64       1.0  0.4583700000000002  0.7899200000000003  0.9848300000000001  1.0000
  C   C65       1.0  0.493  0.85787  0.04909  1.0000
  C   C66       1.0  0.50849  0.9393  0.05493  1.0000
  C   C67       1.0  0.49085000000000006  0.95653  0.9969300000000001  1.0000
  C   C68       1.0  0.45560000000000017  0.8873900000000001  0.93265  1.0000
  C   C69       1.0  0.4396000000000001  0.8059500000000002  0.9266900000000001  1.0000
  C   C70       1.0  0.83055  0.5816400000000002  0.47223000000000004  1.0000
  C   C71       1.0  0.8614200000000001  0.63092  0.43428  1.0000
  C   C72       1.0  0.78476  0.69012  0.4398500000000001  1.0000
  C   C73       1.0  0.6743300000000001  0.7021400000000001  0.48257999999999995  1.0000
  C   C74       1.0  0.63812  0.65367  0.52167  1.0000
  C   C75       1.0  0.7149400000000002  0.5930200000000002  0.51663  1.0000
  C   C76       1.0  0.52716  0.66125  0.56685  1.0000
  C   C77       1.0  0.49568000000000006  0.61129  0.60259  1.0000
  C   C78       1.0  0.57741  0.55294  0.59569  1.0000
  C   C79       1.0  0.55492  0.50009  0.6334  1.0000
  C   C80       1.0  0.4771  0.50894  0.68779  1.0000
  C   C81       1.0  0.4667  0.45911  0.72798  1.0000
  C   C82       1.0  0.509  0.3844  0.70819  1.0000
  C   C83       1.0  0.5036000000000002  0.34591000000000005  0.75365  1.0000
  C   C84       1.0  0.4569100000000001  0.3818400000000001  0.81793  1.0000
  C   C85       1.0  0.41680000000000006  0.48886  0.79277  1.0000
  C   C86       1.0  0.73481  0.29802  0.52197  1.0000
  C   C87       1.0  0.66753  0.21020000000000005  0.51545  1.0000
  C   C88       1.0  0.63499  0.14235000000000006  0.45113000000000003  1.0000
  C   C89       1.0  0.56952  0.06081999999999999  0.44519  1.0000
  C   C90       1.0  0.53454  0.04349  0.50315  1.0000
  C   C91       1.0  0.56849  0.11252000000000005  0.56748  1.0000
  C   C92       1.0  0.63353  0.19404000000000002  0.57354  1.0000
  N   N1        1.0  0.8613000000000001  0.54506  0.0532  1.0000
  N   N2        1.0  0.03912000000000005  0.45242  0.33679  1.0000
  N   N3        1.0  0.31655  0.45485  0.44662  1.0000
  N   N4        1.0  0.5870200000000001  0.54776  0.16318  1.0000
  N   N5        1.0  0.13871000000000014  0.45495000000000024  0.9468000000000001  1.0000
  N   N6        1.0  0.96089  0.54759  0.66321  1.0000
  N   N7        1.0  0.68345  0.54515  0.55339  1.0000
  N   N8        1.0  0.4129900000000001  0.45225000000000015  0.8368200000000001  1.0000
  O   O1        1.0  0.6240000000000002  0.52576  0.96833  1.0000
  O   O2        1.0  0.53595  0.3111699999999999  0.96915  1.0000
  O   O3        1.0  0.60756  0.3578  0.08139  1.0000
  O   O4        1.0  0.09842000000000005  0.47369  0.53075  1.0000
  O   O5        1.0  0.22845000000000004  0.68852  0.53049  1.0000
  O   O6        1.0  0.24999  0.64216  0.41805000000000003  1.0000
  O   O7        1.0  0.37600000000000006  0.47425  0.03168  1.0000
  O   O8        1.0  0.46406000000000025  0.6888400000000002  0.03085  1.0000
  O   O9        1.0  0.39244  0.64221  0.91862  1.0000
  O   O10       1.0  0.9015900000000002  0.5263200000000001  0.46926000000000007  1.0000
  O   O11       1.0  0.77156  0.31148999999999993  0.46952  1.0000
  O   O12       1.0  0.75002  0.35785  0.58196  1.0000
