data_image0
_chemical_formula_structural       Zn4H68C104N8O24
_chemical_formula_sum              "Zn4 H68 C104 N8 O24"
_cell_length_a       9.03174
_cell_length_b       13.43809
_cell_length_c       25.32432
_cell_angle_alpha    85.71803000000001
_cell_angle_beta     79.77356
_cell_angle_gamma    70.46971

_space_group_name_H-M_alt    "P 1"
_space_group_IT_number       1

loop_
  _space_group_symop_operation_xyz
  'x, y, z'

loop_
  _atom_site_type_symbol
  _atom_site_label
  _atom_site_symmetry_multiplicity
  _atom_site_fract_x
  _atom_site_fract_y
  _atom_site_fract_z
  _atom_site_occupancy
  Zn  Zn1       1.0  0.9880099999999995  0.93708  0.8321  1.0000
  Zn  Zn2       1.0  0.24339999999999998  0.4382399999999999  0.3322  1.0000
  Zn  Zn3       1.0  0.7565999999999999  0.56177  0.6678  1.0000
  Zn  Zn4       1.0  0.011989999999999997  0.06293  0.1679  1.0000
  H   H1        1.0  0.57766  0.10330999999999999  0.6894099999999999  1.0000
  H   H2        1.0  0.56539  0.09670999999999999  0.59217  1.0000
  H   H3        1.0  0.025149999999999995  0.85133  0.57152  1.0000
  H   H4        1.0  0.03035000000000001  0.8566799999999998  0.66893  1.0000
  H   H5        1.0  0.94513  0.9481799999999999  0.41923  1.0000
  H   H6        1.0  0.07450000000000004  0.7785899999999999  0.36982  1.0000
  H   H7        1.0  0.9345099999999998  0.60811  0.50963  1.0000
  H   H8        1.0  0.8049100000000001  0.7749099999999999  0.55946  1.0000
  H   H9        1.0  0.7647099999999998  0.17215  0.53286  1.0000
  H   H10       1.0  0.6075799999999999  0.32676999999999995  0.48218999999999995  1.0000
  H   H11       1.0  0.4766700000000001  0.11992  0.39227999999999996  1.0000
  H   H12       1.0  0.6268600000000001  0.9645599999999998  0.4438799999999999  1.0000
  H   H13       1.0  0.22991000000000017  0.8570799999999997  0.7350799999999997  1.0000
  H   H14       1.0  0.52647  0.8038299999999999  0.7061299999999999  1.0000
  H   H15       1.0  0.6919899999999999  0.8271999999999998  0.7716099999999999  1.0000
  H   H16       1.0  0.5564299999999998  0.8954399999999998  0.86327  1.0000
  H   H17       1.0  0.2603300000000001  0.93287  0.8870199999999998  1.0000
  H   H18       1.0  0.62781  0.60342  0.18892  1.0000
  H   H19       1.0  0.7443099999999999  0.59596  0.09178  1.0000
  H   H20       1.0  0.5530100000000001  0.3483599999999999  0.07172  1.0000
  H   H21       1.0  0.44332999999999995  0.35532  0.16888999999999998  1.0000
  H   H22       1.0  0.6850600000000002  0.4478199999999999  0.9192699999999999  1.0000
  H   H23       1.0  0.7761299999999998  0.2794  0.86874  1.0000
  H   H24       1.0  0.9487799999999998  0.10657999999999998  0.00777  1.0000
  H   H25       1.0  0.8603399999999999  0.27215  0.05866999999999999  1.0000
  H   H26       1.0  0.53103  0.67126  0.03222  1.0000
  H   H27       1.0  0.5858799999999998  0.82537  0.98155  1.0000
  H   H28       1.0  0.012680000000000163  0.6177599999999999  0.8923699999999999  1.0000
  H   H29       1.0  0.96467  0.46286999999999995  0.94404  1.0000
  H   H30       1.0  0.17797999999999997  0.3582  0.23534  1.0000
  H   H31       1.0  0.9644400000000001  0.3042499999999999  0.20609  1.0000
  H   H32       1.0  0.7102200000000004  0.32672  0.27135  1.0000
  H   H33       1.0  0.68575  0.39479  0.36319  1.0000
  H   H34       1.0  0.9195599999999999  0.4331499999999999  0.38721  1.0000
  H   H35       1.0  0.3721899999999999  0.39657999999999993  0.81108  1.0000
  H   H36       1.0  0.2557000000000001  0.4040399999999999  0.9082299999999998  1.0000
  H   H37       1.0  0.44700000000000023  0.6516399999999999  0.9282799999999999  1.0000
  H   H38       1.0  0.5566700000000003  0.64469  0.83112  1.0000
  H   H39       1.0  0.31494000000000005  0.55218  0.08073  1.0000
  H   H40       1.0  0.22387000000000015  0.7206099999999998  0.13126  1.0000
  H   H41       1.0  0.051219999999999925  0.89342  0.99223  1.0000
  H   H42       1.0  0.13966  0.72785  0.94133  1.0000
  H   H43       1.0  0.4689800000000001  0.32875  0.9677799999999999  1.0000
  H   H44       1.0  0.4141199999999998  0.17463  0.01846  1.0000
  H   H45       1.0  0.98733  0.38224  0.10762999999999998  1.0000
  H   H46       1.0  0.035329999999999966  0.53714  0.05596  1.0000
  H   H47       1.0  0.8220299999999999  0.6418099999999999  0.7646599999999998  1.0000
  H   H48       1.0  0.03557000000000007  0.69575  0.7939099999999999  1.0000
  H   H49       1.0  0.2897799999999999  0.67328  0.72865  1.0000
  H   H50       1.0  0.31426  0.60522  0.63682  1.0000
  H   H51       1.0  0.08045  0.56685  0.61279  1.0000
  H   H52       1.0  0.4223400000000002  0.8966899999999998  0.3106  1.0000
  H   H53       1.0  0.4346100000000001  0.9032999999999999  0.40783999999999987  1.0000
  H   H54       1.0  0.97485  0.14866999999999994  0.42849  1.0000
  H   H55       1.0  0.9696499999999999  0.14331999999999998  0.33107  1.0000
  H   H56       1.0  0.054869999999999974  0.051829999999999994  0.58077  1.0000
  H   H57       1.0  0.9255  0.22140999999999994  0.63018  1.0000
  H   H58       1.0  0.06548999999999998  0.3919  0.49037  1.0000
  H   H59       1.0  0.1951000000000001  0.22509999999999994  0.4405399999999999  1.0000
  H   H60       1.0  0.2353000000000001  0.8278599999999999  0.46714  1.0000
  H   H61       1.0  0.3924200000000002  0.6732399999999997  0.51781  1.0000
  H   H62       1.0  0.5233300000000001  0.88008  0.60772  1.0000
  H   H63       1.0  0.37314  0.035440000000000006  0.55613  1.0000
  H   H64       1.0  0.7700899999999999  0.14292  0.26493  1.0000
  H   H65       1.0  0.47354000000000007  0.19618  0.29387  1.0000
  H   H66       1.0  0.30802  0.17281  0.2284  1.0000
  H   H67       1.0  0.44357  0.10455999999999999  0.13673  1.0000
  H   H68       1.0  0.73967  0.06713  0.11298  1.0000
  C   C1        1.0  0.80627  0.98183  0.68487  1.0000
  C   C2        1.0  0.6747500000000001  0.04921  0.6629199999999997  1.0000
  C   C3        1.0  0.6682100000000001  0.0454  0.60875  1.0000
  C   C4        1.0  0.7946699999999999  0.97376  0.57512  1.0000
  C   C5        1.0  0.9259900000000001  0.90521  0.59726  1.0000
  C   C6        1.0  0.9299000000000006  0.9089599999999998  0.65152  1.0000
  C   C7        1.0  0.8673699999999994  0.87259  0.4925399999999999  1.0000
  C   C8        1.0  0.94245  0.87378  0.43864  1.0000
  C   C9        1.0  0.014600000000000021  0.7796599999999999  0.41114999999999996  1.0000
  C   C10       1.0  0.01219000000000008  0.6835799999999999  0.43678  1.0000
  C   C11       1.0  0.93753  0.6828499999999998  0.49042  1.0000
  C   C12       1.0  0.8658700000000003  0.7763199999999999  0.51841  1.0000
  C   C13       1.0  0.7052  0.05826  0.49159  1.0000
  C   C14       1.0  0.7000199999999998  0.16078  0.50274  1.0000
  C   C15       1.0  0.6135900000000001  0.24677999999999997  0.4744099999999999  1.0000
  C   C16       1.0  0.5325999999999999  0.23265  0.43453  1.0000
  C   C17       1.0  0.54006  0.13023  0.4231  1.0000
  C   C18       1.0  0.6241900000000001  0.04367999999999998  0.45151  1.0000
  C   C19       1.0  0.8128600000000001  0.9850199999999999  0.74374  1.0000
  C   C20       1.0  0.08140000000000004  0.58179  0.40683999999999987  1.0000
  C   C21       1.0  0.44192  0.32782  0.40427  1.0000
  C   C22       1.0  0.30853  0.86097  0.76222  1.0000
  C   C23       1.0  0.47256000000000004  0.83365  0.74632  1.0000
  C   C24       1.0  0.5640500000000002  0.8454299999999999  0.78293  1.0000
  C   C25       1.0  0.48951000000000006  0.8821199999999998  0.8342399999999999  1.0000
  C   C26       1.0  0.32557000000000025  0.9046899999999999  0.8475999999999998  1.0000
  C   C27       1.0  0.52558  0.48136999999999996  0.18462999999999996  1.0000
  C   C28       1.0  0.6115200000000001  0.5488799999999999  0.16253999999999996  1.0000
  C   C29       1.0  0.6763399999999998  0.5445199999999999  0.10842  1.0000
  C   C30       1.0  0.6558700000000001  0.47215999999999997  0.0749  1.0000
  C   C31       1.0  0.57154  0.40322  0.09723  1.0000
  C   C32       1.0  0.50873  0.40779999999999994  0.15143  1.0000
  C   C33       1.0  0.7669200000000002  0.37115999999999993  0.9920899999999998  1.0000
  C   C34       1.0  0.7439000000000001  0.37316  0.93818  1.0000
  C   C35       1.0  0.7942199999999997  0.27962999999999993  0.91009  1.0000
  C   C36       1.0  0.8683300000000003  0.18321999999999994  0.93516  1.0000
  C   C37       1.0  0.8898700000000003  0.18161  0.9889099999999998  1.0000
  C   C38       1.0  0.83927  0.27451  0.01751  1.0000
  C   C39       1.0  0.74527  0.5567799999999999  0.99146  1.0000
  C   C40       1.0  0.6374899999999999  0.6595  0.00229  1.0000
  C   C41       1.0  0.6671899999999998  0.7453299999999998  0.97391  1.0000
  C   C42       1.0  0.8024299999999999  0.73102  0.9342  1.0000
  C   C43       1.0  0.9080299999999997  0.6284100000000001  0.92306  1.0000
  C   C44       1.0  0.8811199999999998  0.5420499999999999  0.95155  1.0000
  C   C45       1.0  0.45724  0.48496  0.24352  1.0000
  C   C46       1.0  0.9305499999999999  0.08193  0.90479  1.0000
  C   C47       1.0  0.8296200000000001  0.8261899999999998  0.9040699999999999  1.0000
  C   C48       1.0  0.06849999999999999  0.36175  0.2624  1.0000
  C   C49       1.0  0.9480799999999999  0.3339899999999999  0.24634  1.0000
  C   C50       1.0  0.8083199999999997  0.34528  0.28281  1.0000
  C   C51       1.0  0.79477  0.3818599999999999  0.33419  1.0000
  C   C52       1.0  0.9223200000000001  0.40498999999999996  0.34772  1.0000
  C   C53       1.0  0.4744200000000001  0.5186399999999999  0.8153699999999999  1.0000
  C   C54       1.0  0.38848999999999984  0.45111999999999997  0.83747  1.0000
  C   C55       1.0  0.32366  0.45549  0.89158  1.0000
  C   C56       1.0  0.34413  0.52784  0.9250999999999998  1.0000
  C   C57       1.0  0.42846  0.59679  0.90278  1.0000
  C   C58       1.0  0.49127  0.5922  0.84857  1.0000
  C   C59       1.0  0.23307999999999998  0.62884  0.00791  1.0000
  C   C60       1.0  0.2561  0.6268499999999999  0.06182  1.0000
  C   C61       1.0  0.20577999999999994  0.72037  0.08992  1.0000
  C   C62       1.0  0.13166999999999995  0.81679  0.06484  1.0000
  C   C63       1.0  0.11013000000000005  0.8183999999999999  0.01109  1.0000
  C   C64       1.0  0.16073000000000018  0.7254899999999999  0.9824999999999999  1.0000
  C   C65       1.0  0.25473  0.44322  0.00854  1.0000
  C   C66       1.0  0.3625099999999998  0.3405  0.99772  1.0000
  C   C67       1.0  0.33281000000000005  0.25468  0.02609  1.0000
  C   C68       1.0  0.19758  0.26898  0.06581  1.0000
  C   C69       1.0  0.09198000000000003  0.3715899999999999  0.07694  1.0000
  C   C70       1.0  0.11888  0.45796  0.04844999999999999  1.0000
  C   C71       1.0  0.54276  0.5150499999999999  0.7564899999999999  1.0000
  C   C72       1.0  0.06945000000000007  0.9180699999999998  0.09522  1.0000
  C   C73       1.0  0.17039  0.17381999999999997  0.09594  1.0000
  C   C74       1.0  0.9315000000000001  0.63826  0.7375999999999998  1.0000
  C   C75       1.0  0.0519200000000001  0.6660099999999999  0.75367  1.0000
  C   C76       1.0  0.19168  0.65472  0.71719  1.0000
  C   C77       1.0  0.2052400000000001  0.6181499999999998  0.66581  1.0000
  C   C78       1.0  0.07768000000000007  0.5950199999999999  0.65228  1.0000
  C   C79       1.0  0.19372999999999993  0.018169999999999995  0.31514  1.0000
  C   C80       1.0  0.3252600000000001  0.9508  0.33709  1.0000
  C   C81       1.0  0.3317899999999998  0.9546  0.39125  1.0000
  C   C82       1.0  0.20533000000000004  0.02623999999999999  0.42487999999999987  1.0000
  C   C83       1.0  0.0740100000000001  0.09478999999999997  0.4027499999999999  1.0000
  C   C84       1.0  0.07010000000000001  0.09103999999999997  0.34848  1.0000
  C   C85       1.0  0.13264  0.12741  0.50746  1.0000
  C   C86       1.0  0.05755  0.12621999999999997  0.56136  1.0000
  C   C87       1.0  0.98541  0.22033999999999998  0.58885  1.0000
  C   C88       1.0  0.98782  0.31642  0.56323  1.0000
  C   C89       1.0  0.0624700000000001  0.3171599999999999  0.50959  1.0000
  C   C90       1.0  0.13413000000000005  0.22367999999999996  0.48159  1.0000
  C   C91       1.0  0.2948  0.9417399999999998  0.50842  1.0000
  C   C92       1.0  0.29999  0.83922  0.49727  1.0000
  C   C93       1.0  0.38642000000000015  0.7532199999999998  0.52559  1.0000
  C   C94       1.0  0.46740000000000004  0.76735  0.56547  1.0000
  C   C95       1.0  0.45994000000000035  0.8697699999999999  0.57691  1.0000
  C   C96       1.0  0.37581000000000003  0.9563199999999997  0.54849  1.0000
  C   C97       1.0  0.18715  0.01499  0.25627  1.0000
  C   C98       1.0  0.9186000000000001  0.41821  0.59317  1.0000
  C   C99       1.0  0.5580800000000001  0.6721899999999997  0.59574  1.0000
  C   C100      1.0  0.6914799999999997  0.13904  0.23778999999999995  1.0000
  C   C101      1.0  0.52744  0.16635  0.25368  1.0000
  C   C102      1.0  0.43595  0.15456999999999996  0.21707  1.0000
  C   C103      1.0  0.51049  0.11788999999999998  0.16576  1.0000
  C   C104      1.0  0.6744399999999998  0.09530999999999998  0.1524  1.0000
  N   N1        1.0  0.7909500000000002  0.9691399999999998  0.52  1.0000
  N   N2        1.0  0.23568000000000025  0.8951099999999997  0.8120899999999998  1.0000
  N   N3        1.0  0.71943  0.46759  0.0198  1.0000
  N   N4        1.0  0.057149999999999986  0.39596  0.31233  1.0000
  N   N5        1.0  0.2805799999999999  0.53241  0.9802  1.0000
  N   N6        1.0  0.9428499999999997  0.6040399999999999  0.68768  1.0000
  N   N7        1.0  0.20905000000000007  0.03086  0.48000999999999994  1.0000
  N   N8        1.0  0.76432  0.10488999999999998  0.18790999999999997  1.0000
  O   O1        1.0  0.6891699999999997  0.03045  0.7749499999999999  1.0000
  O   O2        1.0  0.9519000000000001  0.93479  0.7567199999999998  1.0000
  O   O3        1.0  0.05424999999999996  0.50078  0.42813  1.0000
  O   O4        1.0  0.16189000000000003  0.58513  0.35964  1.0000
  O   O5        1.0  0.3627500000000001  0.3082199999999999  0.37028  1.0000
  O   O6        1.0  0.45111999999999997  0.4155  0.4124799999999999  1.0000
  O   O7        1.0  0.5041800000000001  0.53064  0.27475  1.0000
  O   O8        1.0  0.3551  0.43486  0.25666  1.0000
  O   O9        1.0  0.014889999999999994  0.99989  0.92607  1.0000
  O   O10       1.0  0.89625  0.08583  0.8572099999999999  1.0000
  O   O11       1.0  0.9621899999999999  0.8066999999999998  0.87012  1.0000
  O   O12       1.0  0.7259599999999999  0.9142199999999998  0.91247  1.0000
  O   O13       1.0  0.4958300000000003  0.46935999999999994  0.72525  1.0000
  O   O14       1.0  0.6449099999999999  0.5651399999999999  0.7433499999999997  1.0000
  O   O15       1.0  0.98511  0.00010999999999999984  0.07393  1.0000
  O   O16       1.0  0.10375000000000004  0.9141799999999999  0.14279  1.0000
  O   O17       1.0  0.03781999999999999  0.19331  0.12988  1.0000
  O   O18       1.0  0.27404  0.08577999999999997  0.08754  1.0000
  O   O19       1.0  0.3108299999999999  0.96955  0.22505999999999998  1.0000
  O   O20       1.0  0.0481  0.06521  0.24329  1.0000
  O   O21       1.0  0.9457600000000002  0.4992199999999999  0.57188  1.0000
  O   O22       1.0  0.83811  0.41487  0.64037  1.0000
  O   O23       1.0  0.63726  0.6917899999999999  0.6297299999999999  1.0000
  O   O24       1.0  0.54888  0.5845099999999999  0.58752  1.0000
