data_image0
_chemical_formula_structural       Cd8H40C72N16O32
_chemical_formula_sum              "Cd8 H40 C72 N16 O32"
_cell_length_a       14.4158
_cell_length_b       14.40339
_cell_length_c       16.83368
_cell_angle_alpha    105.47834999999999
_cell_angle_beta     109.64313000000001
_cell_angle_gamma    107.4412

_space_group_name_H-M_alt    "P 1"
_space_group_IT_number       1

loop_
  _space_group_symop_operation_xyz
  'x, y, z'

loop_
  _atom_site_type_symbol
  _atom_site_label
  _atom_site_symmetry_multiplicity
  _atom_site_fract_x
  _atom_site_fract_y
  _atom_site_fract_z
  _atom_site_occupancy
  Cd  Cd1       1.0  0.86356  0.08387  0.22547  1.0000
  Cd  Cd2       1.0  0.60542  0.91563  0.27047  1.0000
  Cd  Cd3       1.0  0.35699  0.63771  0.27416  1.0000
  Cd  Cd4       1.0  0.14624999999999994  0.3345199999999999  0.22875  1.0000
  Cd  Cd5       1.0  0.13644000000000003  0.91614  0.77453  1.0000
  Cd  Cd6       1.0  0.39458  0.08437  0.72954  1.0000
  Cd  Cd7       1.0  0.64301  0.36229  0.72584  1.0000
  Cd  Cd8       1.0  0.85375  0.66548  0.77125  1.0000
  H   H1        1.0  0.24443999999999994  0.07435  0.19199  1.0000
  H   H2        1.0  0.99158  0.8205  0.19130000000000003  1.0000
  H   H3        1.0  0.034580000000000014  0.04614  0.13048  1.0000
  H   H4        1.0  0.02969999999999994  0.93828  0.04405  1.0000
  H   H5        1.0  0.68498  0.67983  0.999  1.0000
  H   H6        1.0  0.21348999999999999  0.7345699999999998  0.98198  1.0000
  H   H7        1.0  0.49972999999999995  0.08267  0.06189  1.0000
  H   H8        1.0  0.59318  0.07523  0.15913  1.0000
  H   H9        1.0  0.37395  0.16384  0.07953  1.0000
  H   H10       1.0  0.61493  0.16235999999999998  0.3138  1.0000
  H   H11       1.0  0.3829199999999999  0.05289000000000003  0.3087  1.0000
  H   H12       1.0  0.12964  0.80106  0.30943  1.0000
  H   H13       1.0  0.4161599999999999  0.9052599999999998  0.37105  1.0000
  H   H14       1.0  0.39422999999999986  0.9865499999999998  0.45718  1.0000
  H   H15       1.0  0.1813  0.68557  0.50077  1.0000
  H   H16       1.0  0.25429  0.23311  0.51804  1.0000
  H   H17       1.0  0.5220599999999999  0.43832999999999994  0.43826  1.0000
  H   H18       1.0  0.41695  0.4344299999999999  0.34113  1.0000
  H   H19       1.0  0.58507  0.29469  0.42049  1.0000
  H   H20       1.0  0.34896000000000005  0.30097  0.18621  1.0000
  H   H21       1.0  0.75556  0.92566  0.80801  1.0000
  H   H22       1.0  0.008420000000000018  0.17950999999999992  0.8087  1.0000
  H   H23       1.0  0.96542  0.95386  0.86952  1.0000
  H   H24       1.0  0.97031  0.061720000000000025  0.95596  1.0000
  H   H25       1.0  0.31502  0.32016999999999995  0.00101  1.0000
  H   H26       1.0  0.78651  0.26543  0.01802  1.0000
  H   H27       1.0  0.50027  0.9173299999999999  0.93812  1.0000
  H   H28       1.0  0.40682  0.92477  0.84087  1.0000
  H   H29       1.0  0.62605  0.83617  0.92047  1.0000
  H   H30       1.0  0.38506999999999997  0.8376499999999998  0.6862100000000001  1.0000
  H   H31       1.0  0.61708  0.9471199999999997  0.6913  1.0000
  H   H32       1.0  0.87036  0.19895000000000007  0.69058  1.0000
  H   H33       1.0  0.58384  0.0947400000000001  0.6289500000000002  1.0000
  H   H34       1.0  0.60577  0.013460000000000024  0.54282  1.0000
  H   H35       1.0  0.8187  0.31443  0.49923  1.0000
  H   H36       1.0  0.74571  0.76689  0.4819600000000001  1.0000
  H   H37       1.0  0.47794  0.56168  0.56174  1.0000
  H   H38       1.0  0.58305  0.56558  0.65887  1.0000
  H   H39       1.0  0.41493  0.70532  0.57951  1.0000
  H   H40       1.0  0.65104  0.69903  0.8138  1.0000
  C   C1        1.0  0.21827  0.013890000000000005  0.21711  1.0000
  C   C2        1.0  0.07694000000000002  0.87245  0.21674  1.0000
  C   C3        1.0  0.1069  0.94909  0.18275  1.0000
  C   C4        1.0  0.02332000000000003  0.9629299999999997  0.1088  1.0000
  C   C5        1.0  0.84246  0.7940699999999998  0.01994  1.0000
  C   C6        1.0  0.75496  0.7566299999999999  0.03904  1.0000
  C   C7        1.0  0.77603  0.8406199999999999  0.11777  1.0000
  C   C8        1.0  0.36476  0.74722  0.16565  1.0000
  C   C9        1.0  0.71002  0.85088  0.16776  1.0000
  C   C10       1.0  0.2903800000000001  0.92524  0.94073  1.0000
  C   C11       1.0  0.33531999999999995  0.8964799999999999  0.019530000000000002  1.0000
  C   C12       1.0  0.29032  0.80304  0.0301  1.0000
  C   C13       1.0  0.36621  0.81656  0.11528  1.0000
  C   C14       1.0  0.8527699999999999  0.74223  0.93658  1.0000
  C   C15       1.0  0.51164  0.0712  0.12563  1.0000
  C   C16       1.0  0.49417  0.15256  0.18984  1.0000
  C   C17       1.0  0.41941  0.19219999999999998  0.15415  1.0000
  C   C18       1.0  0.55426  0.19040000000000004  0.28584000000000004  1.0000
  C   C19       1.0  0.29724  0.0016299999999999956  0.28367  1.0000
  C   C20       1.0  0.15592999999999999  0.8608499999999999  0.28394  1.0000
  C   C21       1.0  0.26671  0.9248699999999999  0.31808  1.0000
  C   C22       1.0  0.35433999999999993  0.91534  0.39226  1.0000
  C   C23       1.0  0.27405  0.82297  0.48038  1.0000
  C   C24       1.0  0.21776999999999996  0.7160099999999999  0.46102  1.0000
  C   C25       1.0  0.22311  0.65826  0.38253  1.0000
  C   C26       1.0  0.08227  0.20057000000000003  0.33418  1.0000
  C   C27       1.0  0.18323999999999996  0.54192  0.33244  1.0000
  C   C28       1.0  0.48587  0.35044  0.55908  1.0000
  C   C29       1.0  0.37815  0.31646  0.48025  1.0000
  C   C30       1.0  0.27409  0.26126  0.46969  1.0000
  C   C31       1.0  0.20219  0.25188  0.38459  1.0000
  C   C32       1.0  0.3058699999999999  0.91693  0.564  1.0000
  C   C33       1.0  0.44654999999999995  0.38634  0.37443  1.0000
  C   C34       1.0  0.4633  0.30435  0.31016  1.0000
  C   C35       1.0  0.53859  0.26524  0.34586  1.0000
  C   C36       1.0  0.40486  0.26816999999999996  0.21416  1.0000
  C   C37       1.0  0.78173  0.98612  0.78289  1.0000
  C   C38       1.0  0.92306  0.12756  0.78326  1.0000
  C   C39       1.0  0.8930999999999999  0.050910000000000025  0.81725  1.0000
  C   C40       1.0  0.97668  0.03707000000000002  0.89121  1.0000
  C   C41       1.0  0.15754  0.20592999999999992  0.98006  1.0000
  C   C42       1.0  0.24504  0.24338000000000007  0.96096  1.0000
  C   C43       1.0  0.22396999999999995  0.15938  0.88223  1.0000
  C   C44       1.0  0.63524  0.25278  0.83435  1.0000
  C   C45       1.0  0.28999  0.14913  0.83224  1.0000
  C   C46       1.0  0.70962  0.07476  0.05927000000000001  1.0000
  C   C47       1.0  0.66468  0.10352  0.98047  1.0000
  C   C48       1.0  0.7096799999999999  0.19696999999999995  0.96991  1.0000
  C   C49       1.0  0.6338  0.18344000000000005  0.88472  1.0000
  C   C50       1.0  0.14723  0.25777  0.06342  1.0000
  C   C51       1.0  0.48836  0.9288  0.87437  1.0000
  C   C52       1.0  0.50584  0.84744  0.81016  1.0000
  C   C53       1.0  0.58059  0.8077999999999999  0.84585  1.0000
  C   C54       1.0  0.44574  0.8096  0.71416  1.0000
  C   C55       1.0  0.70276  0.9983799999999999  0.71633  1.0000
  C   C56       1.0  0.84407  0.13915999999999995  0.71606  1.0000
  C   C57       1.0  0.73329  0.07513000000000002  0.68192  1.0000
  C   C58       1.0  0.6456600000000001  0.08467000000000005  0.6077400000000001  1.0000
  C   C59       1.0  0.7259499999999999  0.17703999999999995  0.51962  1.0000
  C   C60       1.0  0.7822299999999999  0.284  0.53898  1.0000
  C   C61       1.0  0.7768899999999999  0.34174999999999983  0.61747  1.0000
  C   C62       1.0  0.9177299999999999  0.7994299999999999  0.66582  1.0000
  C   C63       1.0  0.81676  0.45808  0.66756  1.0000
  C   C64       1.0  0.51413  0.64957  0.44092  1.0000
  C   C65       1.0  0.62185  0.68355  0.51975  1.0000
  C   C66       1.0  0.72591  0.73874  0.53031  1.0000
  C   C67       1.0  0.79781  0.74812  0.61541  1.0000
  C   C68       1.0  0.69413  0.08307  0.436  1.0000
  C   C69       1.0  0.55346  0.61367  0.62557  1.0000
  C   C70       1.0  0.5367000000000001  0.69566  0.6898500000000001  1.0000
  C   C71       1.0  0.46141  0.73476  0.65415  1.0000
  C   C72       1.0  0.59514  0.73184  0.78584  1.0000
  N   N1        1.0  0.87098  0.92486  0.14567  1.0000
  N   N2        1.0  0.91084  0.8965199999999998  0.08617  1.0000
  N   N3        1.0  0.45345  0.91262  0.15504  1.0000
  N   N4        1.0  0.43411  0.96059  0.09705  1.0000
  N   N5        1.0  0.27923  0.72556  0.3549  1.0000
  N   N6        1.0  0.31024  0.82518  0.41439  1.0000
  N   N7        1.0  0.2585  0.29885  0.34485  1.0000
  N   N8        1.0  0.36463  0.33735  0.40281  1.0000
  N   N9        1.0  0.12902  0.07515  0.85434  1.0000
  N   N10       1.0  0.08917000000000003  0.10347999999999999  0.91383  1.0000
  N   N11       1.0  0.54655  0.08738  0.84496  1.0000
  N   N12       1.0  0.56589  0.03941999999999995  0.90295  1.0000
  N   N13       1.0  0.72077  0.27445  0.6451  1.0000
  N   N14       1.0  0.68976  0.17481999999999998  0.58561  1.0000
  N   N15       1.0  0.7415  0.70115  0.65515  1.0000
  N   N16       1.0  0.63537  0.6626499999999999  0.59719  1.0000
  O   O1        1.0  0.62379  0.7755300000000002  0.14767  1.0000
  O   O2        1.0  0.74739  0.94454  0.23493  1.0000
  O   O3        1.0  0.45083  0.77968  0.24274  1.0000
  O   O4        1.0  0.28213999999999995  0.66148  0.13701  1.0000
  O   O5        1.0  0.20461  0.8473299999999999  0.86966  1.0000
  O   O6        1.0  0.33491999999999994  0.01741000000000001  0.94598  1.0000
  O   O7        1.0  0.93282  0.79177  0.92382  1.0000
  O   O8        1.0  0.77538  0.65205  0.8775  1.0000
  O   O9        1.0  0.12949999999999998  0.47569  0.35317  1.0000
  O   O10       1.0  0.20787  0.51214  0.26422  1.0000
  O   O11       1.0  0.037919999999999995  0.20835  0.25659  1.0000
  O   O12       1.0  0.024769999999999983  0.14814999999999998  0.36326  1.0000
  O   O13       1.0  0.4791500000000001  0.3359500000000001  0.6299900000000002  1.0000
  O   O14       1.0  0.5727  0.38953  0.55382  1.0000
  O   O15       1.0  0.36747  0.010190000000000013  0.57681  1.0000
  O   O16       1.0  0.27576  0.8984300000000001  0.62322  1.0000
  O   O17       1.0  0.37620999999999993  0.22446999999999992  0.85233  1.0000
  O   O18       1.0  0.25261  0.05545999999999996  0.76508  1.0000
  O   O19       1.0  0.54918  0.2203199999999999  0.75727  1.0000
  O   O20       1.0  0.71786  0.33852  0.863  1.0000
  O   O21       1.0  0.79539  0.15268  0.13034  1.0000
  O   O22       1.0  0.66508  0.9825999999999999  0.05402  1.0000
  O   O23       1.0  0.06719  0.20822999999999997  0.07618  1.0000
  O   O24       1.0  0.22462  0.34796  0.1225  1.0000
  O   O25       1.0  0.8705  0.5243199999999999  0.64683  1.0000
  O   O26       1.0  0.79214  0.48786  0.73578  1.0000
  O   O27       1.0  0.96208  0.79165  0.74341  1.0000
  O   O28       1.0  0.97523  0.85186  0.63674  1.0000
  O   O29       1.0  0.52085  0.66405  0.37001  1.0000
  O   O30       1.0  0.42731  0.61047  0.44618  1.0000
  O   O31       1.0  0.63253  0.98981  0.4232  1.0000
  O   O32       1.0  0.72424  0.10157999999999999  0.37679  1.0000
