data_image0
_chemical_formula_structural       Ag4H80C60N16
_chemical_formula_sum              "Ag4 H80 C60 N16"
_cell_length_a       8.25706
_cell_length_b       13.51856
_cell_length_c       17.833659999999995
_cell_angle_alpha    85.8983
_cell_angle_beta     76.60582000000001
_cell_angle_gamma    72.01855

_symmetry_space_group_name_H-M    'P 1'
_symmetry_Int_Tables_number       1

loop_
  _symmetry_equiv_pos_as_xyz
  'x,y,z'

loop_
  _atom_site_type_symbol
  _atom_site_label
  _atom_site_symmetry_multiplicity
  _atom_site_fract_x
  _atom_site_fract_y
  _atom_site_fract_z
  _atom_site_occupancy
  Ag  Ag1       1.0  0.7143500000000002  0.7498399999999997  0.5716  1.0000
  Ag  Ag2       1.0  0.53611  0.7498999999999999  0.92784  1.0000
  Ag  Ag3       1.0  0.28565000000000007  0.25016  0.4284  1.0000
  Ag  Ag4       1.0  0.46388999999999997  0.2501  0.07216  1.0000
  H   H1        1.0  0.37781000000000003  0.42421  0.32747  1.0000
  H   H2        1.0  0.98937  0.5464399999999999  0.6231  1.0000
  H   H3        1.0  0.2594200000000001  0.41188999999999987  0.56335  1.0000
  H   H4        1.0  0.32338000000000006  0.6226599999999998  0.37206  1.0000
  H   H5        1.0  0.04919000000000009  0.7477599999999998  0.4381  1.0000
  H   H6        1.0  0.5831200000000001  0.46498999999999996  0.39511  1.0000
  H   H7        1.0  0.54031  0.36704999999999993  0.46042  1.0000
  H   H8        1.0  0.6927100000000002  0.25796  0.34509  1.0000
  H   H9        1.0  0.6912899999999998  0.3627299999999999  0.27905  1.0000
  H   H10       1.0  0.50586  0.19766999999999996  0.28258  1.0000
  H   H11       1.0  0.29486  0.07618  0.32776  1.0000
  H   H12       1.0  0.3870600000000003  0.9538099999999998  0.62361  1.0000
  H   H13       1.0  0.17727  0.08823  0.56347  1.0000
  H   H14       1.0  0.30656000000000005  0.8776299999999999  0.37201  1.0000
  H   H15       1.0  0.51382  0.75257  0.43849  1.0000
  H   H16       1.0  0.022729999999999997  0.03451  0.39519  1.0000
  H   H17       1.0  0.99912  0.13247  0.46065  1.0000
  H   H18       1.0  0.9621899999999999  0.24246999999999994  0.34579  1.0000
  H   H19       1.0  0.028980000000000002  0.13766  0.27975  1.0000
  H   H20       1.0  0.21193999999999996  0.30224999999999996  0.28291  1.0000
  H   H21       1.0  0.19869  0.4243699999999999  0.17307  1.0000
  H   H22       1.0  0.46306  0.54671  0.87685  1.0000
  H   H23       1.0  0.32955000000000007  0.41212  0.93693  1.0000
  H   H24       1.0  0.05475000000000004  0.6228699999999999  0.12836  1.0000
  H   H25       1.0  0.20173000000000008  0.7481999999999999  0.062  1.0000
  H   H26       1.0  0.9522500000000002  0.4668  0.10541  1.0000
  H   H27       1.0  0.09219  0.36825  0.04025  1.0000
  H   H28       1.0  0.04804999999999999  0.25987  0.15552  1.0000
  H   H29       1.0  0.9458199999999998  0.36461999999999994  0.22169  1.0000
  H   H30       1.0  0.29609  0.19719  0.21781  1.0000
  H   H31       1.0  0.6280199999999998  0.07606  0.17276  1.0000
  H   H32       1.0  0.6604699999999998  0.95356  0.87638  1.0000
  H   H33       1.0  0.73377  0.08794999999999999  0.9367299999999998  1.0000
  H   H34       1.0  0.8149  0.8774499999999998  0.12842  1.0000
  H   H35       1.0  0.73471  0.75226  0.06174999999999999  1.0000
  H   H36       1.0  0.9421799999999999  0.03275  0.10532  1.0000
  H   H37       1.0  0.86847  0.13132  0.03998  1.0000
  H   H38       1.0  0.7963599999999995  0.24059  0.15483  1.0000
  H   H39       1.0  0.8330600000000001  0.13576  0.22101  1.0000
  H   H40       1.0  0.48612  0.30273  0.21749  1.0000
  H   H41       1.0  0.6221899999999996  0.57578  0.67253  1.0000
  H   H42       1.0  0.010639999999999952  0.45356  0.3769  1.0000
  H   H43       1.0  0.74058  0.58811  0.43665  1.0000
  H   H44       1.0  0.6766200000000001  0.37734  0.62794  1.0000
  H   H45       1.0  0.95081  0.25223999999999996  0.5619  1.0000
  H   H46       1.0  0.41689  0.535  0.60489  1.0000
  H   H47       1.0  0.4597000000000001  0.6329399999999997  0.53958  1.0000
  H   H48       1.0  0.3072900000000002  0.7420399999999998  0.65491  1.0000
  H   H49       1.0  0.30871  0.63726  0.72095  1.0000
  H   H50       1.0  0.49415000000000003  0.8023299999999998  0.71742  1.0000
  H   H51       1.0  0.70514  0.9238199999999999  0.67224  1.0000
  H   H52       1.0  0.61295  0.04618999999999999  0.37639  1.0000
  H   H53       1.0  0.8227400000000002  0.9117699999999997  0.43653  1.0000
  H   H54       1.0  0.69344  0.12235999999999998  0.62799  1.0000
  H   H55       1.0  0.4861900000000002  0.24742999999999996  0.56151  1.0000
  H   H56       1.0  0.9772799999999998  0.9654799999999999  0.60481  1.0000
  H   H57       1.0  0.0008800000000000881  0.8675199999999997  0.53935  1.0000
  H   H58       1.0  0.03781000000000006  0.7575199999999997  0.65421  1.0000
  H   H59       1.0  0.9710299999999998  0.86233  0.72026  1.0000
  H   H60       1.0  0.7880700000000003  0.6977499999999998  0.7171  1.0000
  H   H61       1.0  0.8013199999999999  0.57563  0.82693  1.0000
  H   H62       1.0  0.5369399999999998  0.4532899999999999  0.12314999999999998  1.0000
  H   H63       1.0  0.6704599999999998  0.58788  0.06307  1.0000
  H   H64       1.0  0.94526  0.37713  0.87164  1.0000
  H   H65       1.0  0.7982699999999999  0.2518  0.9380000000000001  1.0000
  H   H66       1.0  0.04776000000000007  0.5332  0.89459  1.0000
  H   H67       1.0  0.9078200000000001  0.6317499999999998  0.95975  1.0000
  H   H68       1.0  0.9519599999999999  0.74013  0.84448  1.0000
  H   H69       1.0  0.05417999999999999  0.6353799999999998  0.77831  1.0000
  H   H70       1.0  0.70391  0.8028  0.78219  1.0000
  H   H71       1.0  0.37199000000000015  0.9239399999999998  0.82724  1.0000
  H   H72       1.0  0.33953  0.04643999999999999  0.12363  1.0000
  H   H73       1.0  0.26622999999999997  0.91205  0.06327  1.0000
  H   H74       1.0  0.18510000000000001  0.12254999999999998  0.87158  1.0000
  H   H75       1.0  0.26529  0.24774  0.93825  1.0000
  H   H76       1.0  0.057830000000000055  0.96725  0.89468  1.0000
  H   H77       1.0  0.13153999999999993  0.86868  0.96002  1.0000
  H   H78       1.0  0.20364000000000002  0.7593999999999999  0.84518  1.0000
  H   H79       1.0  0.16694000000000012  0.8642399999999999  0.77899  1.0000
  H   H80       1.0  0.5138800000000002  0.6972699999999997  0.78251  1.0000
  C   C1        1.0  0.06672000000000003  0.5605799999999999  0.56737  1.0000
  C   C2        1.0  0.2188700000000001  0.48568999999999996  0.53365  1.0000
  C   C3        1.0  0.3209800000000001  0.50412  0.46182999999999996  1.0000
  C   C4        1.0  0.25329999999999997  0.60163  0.42747  1.0000
  C   C5        1.0  0.09915000000000009  0.67256  0.46447999999999995  1.0000
  C   C6        1.0  0.48331000000000013  0.4261299999999999  0.4206  1.0000
  C   C7        1.0  0.6149800000000001  0.31124999999999997  0.30822  1.0000
  C   C8        1.0  0.3658200000000002  0.9395899999999998  0.56781  1.0000
  C   C9        1.0  0.24771  0.014399999999999998  0.53389  1.0000
  C   C10       1.0  0.21792  0.9959  0.462  1.0000
  C   C11       1.0  0.3204800000000001  0.8985599999999998  0.42758  1.0000
  C   C12       1.0  0.4371200000000001  0.8276999999999999  0.46481999999999996  1.0000
  C   C13       1.0  0.09643999999999998  0.07363  0.42082  1.0000
  C   C14       1.0  0.07649  0.18904  0.3088  1.0000
  C   C15       1.0  0.37220999999999993  0.56085  0.93278  1.0000
  C   C16       1.0  0.29586  0.48593999999999987  0.9665899999999998  1.0000
  C   C17       1.0  0.17574  0.50449  0.03856  1.0000
  C   C18       1.0  0.14563  0.6019099999999998  0.07284  1.0000
  C   C19       1.0  0.22784999999999994  0.6729  0.03569  1.0000
  C   C20       1.0  0.09097000000000001  0.42711  0.07991  1.0000
  C   C21       1.0  0.07344000000000003  0.31247999999999987  0.19238  1.0000
  C   C22       1.0  0.69507  0.93932  0.93237  1.0000
  C   C23       1.0  0.73747  0.01415  0.9663499999999999  1.0000
  C   C24       1.0  0.78525  0.9955699999999998  0.03837  1.0000
  C   C25       1.0  0.78027  0.8983399999999998  0.07276  1.0000
  C   C26       1.0  0.73547  0.8274399999999998  0.03542  1.0000
  C   C27       1.0  0.82932  0.07269  0.07966  1.0000
  C   C28       1.0  0.73453  0.18782999999999994  0.1918  1.0000
  C   C29       1.0  0.9332899999999998  0.43942  0.43263  1.0000
  C   C30       1.0  0.7811300000000002  0.5143099999999999  0.46634999999999993  1.0000
  C   C31       1.0  0.67902  0.4958799999999999  0.53818  1.0000
  C   C32       1.0  0.7467  0.39837  0.57253  1.0000
  C   C33       1.0  0.9008599999999999  0.32744  0.53552  1.0000
  C   C34       1.0  0.5166900000000001  0.57387  0.5794  1.0000
  C   C35       1.0  0.38502  0.68874  0.69178  1.0000
  C   C36       1.0  0.63418  0.06040999999999999  0.43219  1.0000
  C   C37       1.0  0.7523000000000001  0.9855999999999998  0.46611  1.0000
  C   C38       1.0  0.7820800000000001  0.0041  0.538  1.0000
  C   C39       1.0  0.67952  0.10143  0.57242  1.0000
  C   C40       1.0  0.56288  0.17229  0.53518  1.0000
  C   C41       1.0  0.90356  0.92637  0.57918  1.0000
  C   C42       1.0  0.9235199999999998  0.81096  0.6912  1.0000
  C   C43       1.0  0.6278  0.43914999999999993  0.06722  1.0000
  C   C44       1.0  0.70414  0.51406  0.03341  1.0000
  C   C45       1.0  0.82426  0.4955099999999999  0.96144  1.0000
  C   C46       1.0  0.8543699999999999  0.39809  0.92716  1.0000
  C   C47       1.0  0.7721500000000001  0.32709  0.9643099999999999  1.0000
  C   C48       1.0  0.90903  0.5728899999999999  0.9201  1.0000
  C   C49       1.0  0.9265599999999998  0.68752  0.80762  1.0000
  C   C50       1.0  0.30494  0.060679999999999984  0.06763  1.0000
  C   C51       1.0  0.2625400000000001  0.9858499999999999  0.03365  1.0000
  C   C52       1.0  0.21475999999999995  0.00442  0.9616400000000002  1.0000
  C   C53       1.0  0.21973000000000006  0.10165999999999997  0.92724  1.0000
  C   C54       1.0  0.26454000000000005  0.17255  0.9645799999999999  1.0000
  C   C55       1.0  0.17068  0.9273099999999999  0.92034  1.0000
  C   C56       1.0  0.26547000000000026  0.8121699999999997  0.8082  1.0000
  C   C57       1.0  0.5763199999999999  0.24991  0.25002  1.0000
  C   C58       1.0  0.17357000000000003  0.25016  0.25046  1.0000
  C   C59       1.0  0.42367999999999995  0.7500899999999998  0.74998  1.0000
  C   C60       1.0  0.8264299999999999  0.7498299999999999  0.74955  1.0000
  N   N1        1.0  0.0027799999999999787  0.6555599999999999  0.53443  1.0000
  N   N2        1.0  0.4507900000000001  0.3701699999999999  0.3593  1.0000
  N   N3        1.0  0.46273999999999993  0.84461  0.53496  1.0000
  N   N4        1.0  0.18985  0.12997  0.35969  1.0000
  N   N5        1.0  0.3407399999999999  0.65584  0.96559  1.0000
  N   N6        1.0  0.17947000000000002  0.3706299999999999  0.14126  1.0000
  N   N7        1.0  0.69351  0.8443699999999997  0.96516  1.0000
  N   N8        1.0  0.67957  0.12951999999999997  0.14085  1.0000
  N   N9        1.0  0.9972300000000001  0.3444399999999999  0.46557  1.0000
  N   N10       1.0  0.5492100000000001  0.62983  0.6407  1.0000
  N   N11       1.0  0.5372599999999998  0.15539  0.46504  1.0000
  N   N12       1.0  0.8101500000000003  0.8700299999999999  0.64031  1.0000
  N   N13       1.0  0.65926  0.3441599999999999  0.03441  1.0000
  N   N14       1.0  0.8205399999999999  0.62936  0.85874  1.0000
  N   N15       1.0  0.30649  0.15562  0.03484  1.0000
  N   N16       1.0  0.3204299999999997  0.87047  0.85915  1.0000
