data_image0
_chemical_formula_structural       Cu6H48C84O30
_chemical_formula_sum              "Cu6 H48 C84 O30"
_cell_length_a       17.20163
_cell_length_b       17.18575
_cell_length_c       17.18512
_cell_angle_alpha    67.55777
_cell_angle_beta     67.43875
_cell_angle_gamma    67.43277

_symmetry_space_group_name_H-M    'P 1'
_symmetry_Int_Tables_number       1

loop_
  _symmetry_equiv_pos_as_xyz
  'x,y,z'

loop_
  _atom_site_type_symbol
  _atom_site_label
  _atom_site_symmetry_multiplicity
  _atom_site_fract_x
  _atom_site_fract_y
  _atom_site_fract_z
  _atom_site_occupancy
  Cu  Cu1       1.0  0.50498  0.5062700000000002  0.06631  1.0000
  Cu  Cu2       1.0  0.06637000000000004  0.5053  0.5055999999999999  1.0000
  Cu  Cu3       1.0  0.50493  0.0663  0.50628  1.0000
  Cu  Cu4       1.0  0.9336499999999996  0.4944800000000002  0.4946  1.0000
  Cu  Cu5       1.0  0.49498000000000003  0.4938400000000001  0.9336799999999997  1.0000
  Cu  Cu6       1.0  0.4949999999999999  0.9337000000000001  0.4937499999999999  1.0000
  H   H1        1.0  0.5351100000000001  0.21949000000000005  0.9938099999999997  1.0000
  H   H2        1.0  0.8094200000000001  0.91389  0.007899999999999999  1.0000
  H   H3        1.0  0.99365  0.53512  0.21939  1.0000
  H   H4        1.0  0.008239999999999886  0.8094100000000004  0.9138999999999998  1.0000
  H   H5        1.0  0.21941999999999992  0.9932800000000002  0.53523  1.0000
  H   H6        1.0  0.9140300000000001  0.008340000000000057  0.8094899999999998  1.0000
  H   H7        1.0  0.006299999999999994  0.7805800000000003  0.4650299999999999  1.0000
  H   H8        1.0  0.9917699999999999  0.08597  0.19056999999999993  1.0000
  H   H9        1.0  0.7806299999999999  0.46463  0.00676  1.0000
  H   H10       1.0  0.08591000000000011  0.19039000000000006  0.9919799999999998  1.0000
  H   H11       1.0  0.4649  0.006170000000000078  0.7805299999999997  1.0000
  H   H12       1.0  0.1905999999999999  0.9921700000000001  0.08609  1.0000
  H   H13       1.0  0.46491  0.78052  0.00618  1.0000
  H   H14       1.0  0.19060000000000007  0.08612000000000009  0.9920199999999998  1.0000
  H   H15       1.0  0.006410000000000043  0.46489  0.7807099999999998  1.0000
  H   H16       1.0  0.9918100000000001  0.19060000000000002  0.08609  1.0000
  H   H17       1.0  0.7805200000000001  0.006630000000000028  0.4647699999999999  1.0000
  H   H18       1.0  0.08586999999999992  0.9918600000000003  0.19043999999999994  1.0000
  H   H19       1.0  0.9936199999999998  0.21933999999999998  0.53499  1.0000
  H   H20       1.0  0.008030000000000023  0.9141300000000001  0.8094099999999997  1.0000
  H   H21       1.0  0.21941999999999998  0.5353400000000004  0.9933399999999998  1.0000
  H   H22       1.0  0.9140899999999996  0.80966  0.00796  1.0000
  H   H23       1.0  0.5351000000000005  0.9938499999999999  0.21947999999999995  1.0000
  H   H24       1.0  0.80939  0.007910000000000052  0.9138799999999998  1.0000
  H   H25       1.0  0.51409  0.24253000000000005  0.24250999999999995  1.0000
  H   H26       1.0  0.38019  0.10686  0.10683999999999998  1.0000
  H   H27       1.0  0.7343299999999998  0.9214700000000003  0.9214599999999997  1.0000
  H   H28       1.0  0.83153  0.007750000000000001  0.007759999999999999  1.0000
  H   H29       1.0  0.24214000000000002  0.51423  0.24207999999999993  1.0000
  H   H30       1.0  0.10674999999999997  0.38026  0.10661  1.0000
  H   H31       1.0  0.9217200000000002  0.7343100000000001  0.9216499999999997  1.0000
  H   H32       1.0  0.00788999999999991  0.8317500000000002  0.007769999999999998  1.0000
  H   H33       1.0  0.24206  0.24197000000000007  0.51431  1.0000
  H   H34       1.0  0.10664999999999998  0.10654000000000007  0.3802699999999999  1.0000
  H   H35       1.0  0.9217600000000002  0.9216300000000001  0.7343399999999998  1.0000
  H   H36       1.0  0.007920000000000049  0.007960000000000064  0.8316099999999997  1.0000
  H   H37       1.0  0.75785  0.7579400000000002  0.48576  1.0000
  H   H38       1.0  0.8933200000000001  0.8933500000000001  0.6197899999999997  1.0000
  H   H39       1.0  0.07814999999999998  0.07837  0.26567  1.0000
  H   H40       1.0  0.99207  0.9921  0.16831999999999994  1.0000
  H   H41       1.0  0.7579299999999999  0.48572  0.75803  1.0000
  H   H42       1.0  0.8933699999999999  0.61968  0.89342  1.0000
  H   H43       1.0  0.07828  0.26568  0.07843  1.0000
  H   H44       1.0  0.99206  0.1683000000000001  0.9922399999999998  1.0000
  H   H45       1.0  0.4859  0.75749  0.7575  1.0000
  H   H46       1.0  0.6198299999999998  0.8931400000000004  0.8931499999999998  1.0000
  H   H47       1.0  0.2656899999999999  0.07853  0.07851999999999998  1.0000
  H   H48       1.0  0.16851999999999995  0.9922000000000001  0.9922599999999998  1.0000
  C   C1        1.0  0.5186299999999999  0.33579  0.07182  1.0000
  C   C2        1.0  0.52303  0.24083  0.114  1.0000
  C   C3        1.0  0.53124  0.18932  0.06303999999999998  1.0000
  C   C4        1.0  0.07163999999999993  0.5186900000000002  0.3356699999999999  1.0000
  C   C5        1.0  0.11371999999999993  0.5230400000000002  0.24062999999999996  1.0000
  C   C6        1.0  0.06286999999999998  0.53128  0.18916999999999995  1.0000
  C   C7        1.0  0.33542  0.07138  0.51934  1.0000
  C   C8        1.0  0.24055999999999997  0.11350000000000002  0.52322  1.0000
  C   C9        1.0  0.18924000000000002  0.06256000000000006  0.5313099999999997  1.0000
  C   C10       1.0  0.9284  0.6643600000000003  0.48121999999999987  1.0000
  C   C11       1.0  0.8862399999999999  0.75937  0.4769999999999999  1.0000
  C   C12       1.0  0.9370999999999999  0.8107900000000002  0.46883999999999987  1.0000
  C   C13       1.0  0.66454  0.48072000000000015  0.9286399999999998  1.0000
  C   C14       1.0  0.7594300000000003  0.47673000000000004  0.8865299999999998  1.0000
  C   C15       1.0  0.81079  0.4686000000000001  0.9374599999999997  1.0000
  C   C16       1.0  0.4813300000000003  0.9282000000000002  0.6642299999999998  1.0000
  C   C17       1.0  0.47698  0.8860000000000001  0.7591799999999999  1.0000
  C   C18       1.0  0.46878000000000003  0.9369500000000001  0.8106999999999998  1.0000
  C   C19       1.0  0.48121000000000014  0.66427  0.9282099999999998  1.0000
  C   C20       1.0  0.47692999999999997  0.7591900000000001  0.8859899999999998  1.0000
  C   C21       1.0  0.46877  0.81068  0.9369699999999997  1.0000
  C   C22       1.0  0.9284300000000002  0.48119  0.66449  1.0000
  C   C23       1.0  0.88632  0.47691999999999996  0.7595  1.0000
  C   C24       1.0  0.9371899999999999  0.4687500000000001  0.8109399999999998  1.0000
  C   C25       1.0  0.6644899999999997  0.9285600000000002  0.4806799999999999  1.0000
  C   C26       1.0  0.7593599999999997  0.8864300000000004  0.4767999999999999  1.0000
  C   C27       1.0  0.81072  0.93734  0.4686999999999999  1.0000
  C   C28       1.0  0.07156000000000004  0.33550000000000013  0.5188999999999998  1.0000
  C   C29       1.0  0.11367999999999996  0.2405300000000001  0.52303  1.0000
  C   C30       1.0  0.06283999999999998  0.1891  0.53117  1.0000
  C   C31       1.0  0.33546  0.51936  0.07144999999999997  1.0000
  C   C32       1.0  0.24058999999999997  0.52329  0.11355999999999997  1.0000
  C   C33       1.0  0.18925000000000003  0.5314  0.06265  1.0000
  C   C34       1.0  0.5185999999999997  0.07185000000000005  0.33578  1.0000
  C   C35       1.0  0.5230300000000001  0.11404000000000003  0.24080999999999994  1.0000
  C   C36       1.0  0.53124  0.06305000000000002  0.18931999999999993  1.0000
  C   C37       1.0  0.5196599999999999  0.20303000000000002  0.20300999999999994  1.0000
  C   C38       1.0  0.53668  0.1  0.09998999999999997  1.0000
  C   C39       1.0  0.39845  0.06500999999999998  0.06499  1.0000
  C   C40       1.0  0.48850999999999994  0.027660000000000004  0.027669999999999993  1.0000
  C   C41       1.0  0.55561  0.04357000000000001  0.04358999999999998  1.0000
  C   C42       1.0  0.64308  0.00539  0.00538  1.0000
  C   C43       1.0  0.6659899999999999  0.9509700000000002  0.9509899999999999  1.0000
  C   C44       1.0  0.7935  0.9858100000000001  0.9858099999999997  1.0000
  C   C45       1.0  0.20269999999999996  0.51977  0.20268  1.0000
  C   C46       1.0  0.09991999999999994  0.53685  0.09974  1.0000
  C   C47       1.0  0.0649  0.39849  0.06488999999999998  1.0000
  C   C48       1.0  0.027669999999999976  0.48854  0.027619999999999992  1.0000
  C   C49       1.0  0.043610000000000045  0.55574  0.043459999999999985  1.0000
  C   C50       1.0  0.005479999999999935  0.6431900000000003  0.0054  1.0000
  C   C51       1.0  0.95117  0.66601  0.9510999999999997  1.0000
  C   C52       1.0  0.9860099999999998  0.7936400000000001  0.98583  1.0000
  C   C53       1.0  0.20264999999999994  0.2025800000000001  0.51976  1.0000
  C   C54       1.0  0.09989999999999999  0.09967  0.53678  1.0000
  C   C55       1.0  0.06480000000000005  0.06483000000000008  0.3984799999999999  1.0000
  C   C56       1.0  0.027630000000000016  0.027530000000000044  0.4885299999999999  1.0000
  C   C57       1.0  0.04360000000000004  0.04337000000000002  0.5556999999999999  1.0000
  C   C58       1.0  0.005440000000000092  0.0054100000000000615  0.6431599999999997  1.0000
  C   C59       1.0  0.9511799999999998  0.9510600000000005  0.6660099999999998  1.0000
  C   C60       1.0  0.9859400000000003  0.9860599999999999  0.79356  1.0000
  C   C61       1.0  0.7972700000000001  0.7973400000000002  0.48027  1.0000
  C   C62       1.0  0.90006  0.9002300000000001  0.4631899999999999  1.0000
  C   C63       1.0  0.93512  0.93512  0.60154  1.0000
  C   C64       1.0  0.9723299999999998  0.9723800000000005  0.5114599999999998  1.0000
  C   C65       1.0  0.9563799999999999  0.9565200000000001  0.4442799999999999  1.0000
  C   C66       1.0  0.9944299999999999  0.99461  0.35684  1.0000
  C   C67       1.0  0.048790000000000014  0.04886000000000005  0.3339799999999999  1.0000
  C   C68       1.0  0.013960000000000007  0.014039999999999999  0.20641  1.0000
  C   C69       1.0  0.7973599999999998  0.48022000000000015  0.7974499999999998  1.0000
  C   C70       1.0  0.90012  0.46315000000000023  0.9003599999999998  1.0000
  C   C71       1.0  0.9351500000000001  0.6015000000000001  0.9351899999999997  1.0000
  C   C72       1.0  0.9723999999999999  0.51145  0.97245  1.0000
  C   C73       1.0  0.9564399999999998  0.4442600000000001  0.9566299999999998  1.0000
  C   C74       1.0  0.9945400000000002  0.3568100000000001  0.9946999999999998  1.0000
  C   C75       1.0  0.04886999999999998  0.33399  0.04896  1.0000
  C   C76       1.0  0.01398999999999998  0.20638000000000006  0.014159999999999997  1.0000
  C   C77       1.0  0.48035  0.7969899999999999  0.79698  1.0000
  C   C78       1.0  0.46333  0.90001  0.9000199999999998  1.0000
  C   C79       1.0  0.6015599999999998  0.93499  0.9349999999999998  1.0000
  C   C80       1.0  0.5114900000000002  0.9723400000000001  0.9723399999999998  1.0000
  C   C81       1.0  0.44439  0.9564200000000002  0.95643  1.0000
  C   C82       1.0  0.3569200000000001  0.99462  0.99461  1.0000
  C   C83       1.0  0.33402  0.04901  0.04901999999999999  1.0000
  C   C84       1.0  0.20653  0.0142  0.014169999999999999  1.0000
  O   O1        1.0  0.52077  0.37863  0.11737999999999997  1.0000
  O   O2        1.0  0.5126400000000001  0.3671600000000001  0.9929099999999997  1.0000
  O   O3        1.0  0.11739000000000001  0.5208700000000002  0.3781899999999999  1.0000
  O   O4        1.0  0.9927599999999999  0.51266  0.36743  1.0000
  O   O5        1.0  0.37733  0.11700000000000006  0.5228399999999999  1.0000
  O   O6        1.0  0.36762999999999996  0.99278  0.51232  1.0000
  O   O7        1.0  0.8826300000000001  0.62194  0.4788599999999999  1.0000
  O   O8        1.0  0.007220000000000098  0.63252  0.4873499999999999  1.0000
  O   O9        1.0  0.6225800000000001  0.4773  0.8829999999999998  1.0000
  O   O10       1.0  0.63237  0.48766  0.007249999999999999  1.0000
  O   O11       1.0  0.47918000000000016  0.8826699999999998  0.62135  1.0000
  O   O12       1.0  0.4874  0.0070600000000000055  0.63289  1.0000
  O   O13       1.0  0.4788700000000001  0.6214800000000001  0.8826899999999999  1.0000
  O   O14       1.0  0.4873799999999999  0.63286  0.00703  1.0000
  O   O15       1.0  0.8826899999999996  0.47881  0.62204  1.0000
  O   O16       1.0  0.007230000000000025  0.4873700000000001  0.6326599999999999  1.0000
  O   O17       1.0  0.6225399999999996  0.8829900000000004  0.47718  1.0000
  O   O18       1.0  0.63233  0.00719  0.48765  1.0000
  O   O19       1.0  0.11724  0.37784000000000006  0.52149  1.0000
  O   O20       1.0  0.99278  0.36738  0.51258  1.0000
  O   O21       1.0  0.37738999999999995  0.52289  0.11700999999999998  1.0000
  O   O22       1.0  0.3676299999999999  0.5124000000000001  0.9927999999999998  1.0000
  O   O23       1.0  0.52071  0.11740000000000003  0.3786599999999999  1.0000
  O   O24       1.0  0.51259  0.9929700000000001  0.3671199999999999  1.0000
  O   O25       1.0  0.70368  0.024220000000000005  0.02425  1.0000
  O   O26       1.0  0.024309999999999964  0.70386  0.02424  1.0000
  O   O27       1.0  0.02436000000000009  0.024260000000000045  0.7037699999999998  1.0000
  O   O28       1.0  0.9756000000000001  0.9757200000000001  0.2961899999999999  1.0000
  O   O29       1.0  0.97569  0.29618000000000005  0.9758099999999997  1.0000
  O   O30       1.0  0.2963400000000001  0.97576  0.9757599999999997  1.0000
