data_image0
_chemical_formula_structural       Mn4H96C88N16O16
_chemical_formula_sum              "Mn4 H96 C88 N16 O16"
_cell_length_a       4.41366
_cell_length_b       20.157199999999996
_cell_length_c       22.793409999999998
_cell_angle_alpha    100.82969000000001
_cell_angle_beta     90.06794
_cell_angle_gamma    90.15993

_symmetry_space_group_name_H-M    'P 1'
_symmetry_Int_Tables_number       1

loop_
  _symmetry_equiv_pos_as_xyz
  'x,y,z'

loop_
  _atom_site_type_symbol
  _atom_site_label
  _atom_site_symmetry_multiplicity
  _atom_site_fract_x
  _atom_site_fract_y
  _atom_site_fract_z
  _atom_site_occupancy
  Mn  Mn1       1.0  0.79186  0.73943  0.7715299999999999  1.0000
  Mn  Mn2       1.0  0.20817  0.26056  0.22847999999999996  1.0000
  Mn  Mn3       1.0  0.29112  0.7602999999999999  0.23133  1.0000
  Mn  Mn4       1.0  0.7088999999999998  0.2397  0.76868  1.0000
  H   H1        1.0  0.39719999999999994  0.60346  0.50185  1.0000
  H   H2        1.0  0.057359999999999994  0.53558  0.0645  1.0000
  H   H3        1.0  0.7734599999999999  0.85777  0.28356  1.0000
  H   H4        1.0  0.83402  0.4136000000000001  0.40277  1.0000
  H   H5        1.0  0.08574000000000001  0.34555  0.8920700000000001  1.0000
  H   H6        1.0  0.27086  0.64244  0.7167799999999999  1.0000
  H   H7        1.0  0.83048  0.46825  0.71675  1.0000
  H   H8        1.0  0.58153  0.10803999999999994  0.9892999999999998  1.0000
  H   H9        1.0  0.7965699999999998  0.15943000000000002  0.49945999999999996  1.0000
  H   H10       1.0  0.28774  0.33986  0.49901  1.0000
  H   H11       1.0  0.56898  0.21426000000000003  0.60989  1.0000
  H   H12       1.0  0.20346  0.84056  0.50055  1.0000
  H   H13       1.0  0.16955  0.53174  0.28325  1.0000
  H   H14       1.0  0.65532  0.9595900000000002  0.8279099999999999  1.0000
  H   H15       1.0  0.21297  0.91074  0.66741  1.0000
  H   H16       1.0  0.5863799999999998  0.15563  0.10621999999999998  1.0000
  H   H17       1.0  0.55152  0.9740899999999999  0.31008  1.0000
  H   H18       1.0  0.08338  0.12076000000000002  0.24653  1.0000
  H   H19       1.0  0.71229  0.66014  0.50099  1.0000
  H   H20       1.0  0.08232  0.51539  0.87603  1.0000
  H   H21       1.0  0.33719  0.08634999999999998  0.59735  1.0000
  H   H22       1.0  0.9169899999999999  0.010560000000000016  0.57403  1.0000
  H   H23       1.0  0.4204  0.08954000000000001  0.4399199999999999  1.0000
  H   H24       1.0  0.9177  0.48460999999999993  0.12397999999999999  1.0000
  H   H25       1.0  0.166  0.5864  0.59723  1.0000
  H   H26       1.0  0.21837  0.63843  0.94901  1.0000
  H   H27       1.0  0.97983  0.97217  0.71358  1.0000
  H   H28       1.0  0.6773199999999999  0.9667200000000001  0.71861  1.0000
  H   H29       1.0  0.83932  0.09269  0.14377  1.0000
  H   H30       1.0  0.5283899999999999  0.47318000000000005  0.7124  1.0000
  H   H31       1.0  0.57044  0.98195  0.12261999999999999  1.0000
  H   H32       1.0  0.42959  0.018040000000000014  0.87738  1.0000
  H   H33       1.0  0.3558099999999999  0.43404  0.07817  1.0000
  H   H34       1.0  0.3447  0.04041  0.17209  1.0000
  H   H35       1.0  0.91953  0.60802  0.99103  1.0000
  H   H36       1.0  0.78706  0.08925  0.33259  1.0000
  H   H37       1.0  0.6832  0.4414  0.20809  1.0000
  H   H38       1.0  0.020199999999999992  0.027830000000000014  0.28642  1.0000
  H   H39       1.0  0.91406  0.40953  0.55887  1.0000
  H   H40       1.0  0.85527  0.06462000000000001  0.9209800000000001  1.0000
  H   H41       1.0  0.28161  0.13718999999999998  0.94677  1.0000
  H   H42       1.0  0.64422  0.56595  0.92183  1.0000
  H   H43       1.0  0.64717  0.70939  0.00781  1.0000
  H   H44       1.0  0.9166499999999999  0.8792399999999999  0.75348  1.0000
  H   H45       1.0  0.82469  0.28272  0.12137  1.0000
  H   H46       1.0  0.35285  0.29061  0.9922  1.0000
  H   H47       1.0  0.16071  0.9073  0.8562300000000002  1.0000
  H   H48       1.0  0.41849999999999987  0.89196  0.0107  1.0000
  H   H49       1.0  0.93671  0.47191  0.3105  1.0000
  H   H50       1.0  0.22655999999999998  0.14223  0.71644  1.0000
  H   H51       1.0  0.8910599999999997  0.89732  0.49891  1.0000
  H   H52       1.0  0.3244399999999999  0.21709000000000003  0.87527  1.0000
  H   H53       1.0  0.41313  0.6215  0.25034  1.0000
  H   H54       1.0  0.85165  0.45824000000000004  0.8255499999999999  1.0000
  H   H55       1.0  0.06332  0.52809  0.68951  1.0000
  H   H56       1.0  0.32271  0.03327  0.2814  1.0000
  H   H57       1.0  0.91429  0.65444  0.10793  1.0000
  H   H58       1.0  0.71842  0.8628  0.053230000000000006  1.0000
  H   H59       1.0  0.14838  0.54176  0.17445  1.0000
  H   H60       1.0  0.47162999999999994  0.52681  0.2876  1.0000
  H   H61       1.0  0.17532999999999999  0.71727  0.8786299999999999  1.0000
  H   H62       1.0  0.19409  0.05882000000000001  0.79197  1.0000
  H   H63       1.0  0.72916  0.35755  0.28322  1.0000
  H   H64       1.0  0.043509999999999986  0.02817  0.16939  1.0000
  H   H65       1.0  0.34505  0.40467  0.85278  1.0000
  H   H66       1.0  0.43104  0.78573  0.39010999999999996  1.0000
  H   H67       1.0  0.08596  0.59046  0.4411300000000001  1.0000
  H   H68       1.0  0.95651  0.97183  0.8306099999999998  1.0000
  H   H69       1.0  0.31682  0.55859  0.79192  1.0000
  H   H70       1.0  0.14597  0.79174  0.9953399999999999  1.0000
  H   H71       1.0  0.44872999999999996  0.53018  0.17165  1.0000
  H   H72       1.0  0.67559  0.7829  0.12473  1.0000
  H   H73       1.0  0.0805  0.39197  0.00898  1.0000
  H   H74       1.0  0.44514999999999993  0.03679  0.06392  1.0000
  H   H75       1.0  0.6549699999999999  0.59532  0.14722  1.0000
  H   H76       1.0  0.5796299999999999  0.91046  0.56008  1.0000
  H   H77       1.0  0.66283  0.91364  0.40265  1.0000
  H   H78       1.0  0.9426599999999999  0.46441  0.9355  1.0000
  H   H79       1.0  0.10896  0.10267  0.50109  1.0000
  H   H80       1.0  0.9368500000000001  0.7145  0.6119  1.0000
  H   H81       1.0  0.5512899999999998  0.46981  0.82836  1.0000
  H   H82       1.0  0.08304  0.9894300000000001  0.42597  1.0000
  H   H83       1.0  0.5869  0.37848999999999994  0.74967  1.0000
  H   H84       1.0  0.55488  0.9631999999999998  0.9360799999999999  1.0000
  H   H85       1.0  0.7816599999999998  0.36157  0.05099000000000001  1.0000
  H   H86       1.0  0.41364  0.84437  0.8937799999999999  1.0000
  H   H87       1.0  0.85405  0.20824999999999996  0.00466  1.0000
  H   H88       1.0  0.4485099999999999  0.025910000000000006  0.68993  1.0000
  H   H89       1.0  0.58185  0.51002  0.57351  1.0000
  H   H90       1.0  0.14475  0.9353800000000001  0.07903  1.0000
  H   H91       1.0  0.41818  0.48996999999999996  0.42649  1.0000
  H   H92       1.0  0.7075199999999998  0.58664  0.33518  1.0000
  H   H93       1.0  0.29251  0.41335999999999995  0.66482  1.0000
  H   H94       1.0  0.06318  0.28549  0.38810000000000006  1.0000
  H   H95       1.0  0.8059399999999998  0.9411700000000001  0.20804000000000003  1.0000
  H   H96       1.0  0.60282  0.39653  0.49815  1.0000
  C   C1        1.0  0.6651299999999999  0.5615  0.1797  1.0000
  C   C2        1.0  0.4083399999999999  0.46049  0.04173  1.0000
  C   C3        1.0  0.6592799999999998  0.16487  0.2444  1.0000
  C   C4        1.0  0.3676  0.90432  0.20076  1.0000
  C   C5        1.0  0.7597  0.48263999999999996  0.96594  1.0000
  C   C6        1.0  0.49337999999999993  0.25262  0.89674  1.0000
  C   C7        1.0  0.44707999999999987  0.9933700000000001  0.7235599999999999  1.0000
  C   C8        1.0  0.55485  0.94752  0.5311  1.0000
  C   C9        1.0  0.83394  0.38053  0.01009  1.0000
  C   C10       1.0  0.88265  0.11871000000000001  0.52072  1.0000
  C   C11       1.0  0.83939  0.6656599999999999  0.24931  1.0000
  C   C12       1.0  0.17167999999999997  0.9404200000000001  0.82315  1.0000
  C   C13       1.0  0.4317  0.9882800000000002  0.83207  1.0000
  C   C14       1.0  0.79847  0.05764  0.28764  1.0000
  C   C15       1.0  0.1795  0.44103  0.48955  1.0000
  C   C16       1.0  0.66639  0.3775  0.3823  1.0000
  C   C17       1.0  0.69505  0.55646  0.28968  1.0000
  C   C18       1.0  0.9122699999999999  0.46451999999999993  0.21347  1.0000
  C   C19       1.0  0.49785999999999997  0.71099  0.045599999999999995  1.0000
  C   C20       1.0  0.37613  0.3808  0.47820999999999997  1.0000
  C   C21       1.0  0.33495  0.11902000000000003  0.98801  1.0000
  C   C22       1.0  0.23457999999999998  0.31808  0.37495999999999996  1.0000
  C   C23       1.0  0.55295  0.006630000000000003  0.27644  1.0000
  C   C24       1.0  0.82977  0.8773499999999999  0.38278  1.0000
  C   C25       1.0  0.16608  0.6194599999999999  0.98991  1.0000
  C   C26       1.0  0.09988999999999998  0.14765000000000006  0.67646  1.0000
  C   C27       1.0  0.24098  0.49510000000000004  0.4601  1.0000
  C   C28       1.0  0.26088  0.8182900000000001  0.37671000000000004  1.0000
  C   C29       1.0  0.9966199999999998  0.78934  0.9573700000000002  1.0000
  C   C30       1.0  0.76545  0.68191  0.62505  1.0000
  C   C31       1.0  0.59169  0.5395  0.95827  1.0000
  C   C32       1.0  0.33363  0.62249  0.6177  1.0000
  C   C33       1.0  0.66082  0.44260999999999995  0.00651  1.0000
  C   C34       1.0  0.50216  0.289  0.9544  1.0000
  C   C35       1.0  0.17025  0.12264  0.61723  1.0000
  C   C36       1.0  0.16063  0.33434  0.75069  1.0000
  C   C37       1.0  0.99398  0.24745  0.10011999999999999  1.0000
  C   C38       1.0  0.9380299999999999  0.5053  0.27755  1.0000
  C   C39       1.0  0.7385  0.98212  0.96631  1.0000
  C   C40       1.0  0.73914  0.18171  0.62329  1.0000
  C   C41       1.0  0.06199000000000001  0.49469  0.7224499999999999  1.0000
  C   C42       1.0  0.4225799999999999  0.03568999999999999  0.78707  1.0000
  C   C43       1.0  0.4451699999999999  0.052469999999999996  0.46891  1.0000
  C   C44       1.0  0.003399999999999999  0.21065  0.04264  1.0000
  C   C45       1.0  0.82053  0.55897  0.51045  1.0000
  C   C46       1.0  0.11737  0.88128  0.47928  1.0000
  C   C47       1.0  0.20156  0.94235  0.71236  1.0000
  C   C48       1.0  0.30497  0.44353  0.71032  1.0000
  C   C49       1.0  0.35113  0.39717  0.75604  1.0000
  C   C50       1.0  0.15298  0.89781  0.75949  1.0000
  C   C51       1.0  0.05881  0.55305  0.46973999999999994  1.0000
  C   C52       1.0  0.64889  0.60282  0.24396  1.0000
  C   C53       1.0  0.16176  0.05703000000000001  0.99253  1.0000
  C   C54       1.0  0.3392  0.55738  0.99349  1.0000
  C   C55       1.0  0.59985  0.35226999999999997  0.32289  1.0000
  C   C56       1.0  0.9412100000000001  0.44694000000000006  0.53026  1.0000
  C   C57       1.0  0.0060399999999999985  0.75255  0.8998900000000001  1.0000
  C   C58       1.0  0.57745  0.96431  0.21294  1.0000
  C   C59       1.0  0.08775999999999998  0.53547  0.78653  1.0000
  C   C60       1.0  0.26152  0.01788  0.03369  1.0000
  C   C61       1.0  0.34074  0.83512  0.7556  1.0000
  C   C62       1.0  0.8283499999999999  0.05957  0.17685  1.0000
  C   C63       1.0  0.66507  0.88097  0.011990000000000002  1.0000
  C   C64       1.0  0.9227599999999999  0.51341  0.1697  1.0000
  C   C65       1.0  0.12050999999999999  0.4046100000000001  0.19992  1.0000
  C   C66       1.0  0.56832  0.011719999999999994  0.16793  1.0000
  C   C67       1.0  0.9077  0.03864999999999999  0.9577099999999998  1.0000
  C   C68       1.0  0.59723  0.8146100000000001  0.90607  1.0000
  C   C69       1.0  0.09749  0.68481  0.09616  1.0000
  C   C70       1.0  0.07726999999999999  0.48658  0.8303  1.0000
  C   C71       1.0  0.90014  0.85235  0.32354  1.0000
  C   C72       1.0  0.6324199999999998  0.09567999999999996  0.7992399999999998  1.0000
  C   C73       1.0  0.40017999999999987  0.64773  0.67711  1.0000
  C   C74       1.0  0.75904  0.5049  0.5399  1.0000
  C   C75       1.0  0.33489  0.43849  0.8203  1.0000
  C   C76       1.0  0.09232  0.9613400000000001  0.04229  1.0000
  C   C77       1.0  0.73987  0.005239999999999988  0.54029  1.0000
  C   C78       1.0  0.8382699999999998  0.94297  0.00747  1.0000
  C   C79       1.0  0.87951  0.59538  0.8000900000000001  1.0000
  C   C80       1.0  0.2601499999999999  0.9947500000000001  0.45971999999999996  1.0000
  C   C81       1.0  0.62389  0.6192  0.52179  1.0000
  C   C82       1.0  0.31699  0.94129  0.49011  1.0000
  C   C83       1.0  0.8470499999999999  0.10218  0.24051  1.0000
  C   C84       1.0  0.90253  0.31518000000000007  0.9038400000000001  1.0000
  C   C85       1.0  0.50664  0.74738  0.10327  1.0000
  C   C86       1.0  0.6830399999999998  0.05869999999999998  0.50989  1.0000
  C   C87       1.0  0.24032999999999996  0.51735  0.03406  1.0000
  C   C88       1.0  0.40279  0.18538  0.09393  1.0000
  N   N1        1.0  0.76281  0.3272  0.9587  1.0000
  N   N2        1.0  0.65977  0.68515  0.68077  1.0000
  N   N3        1.0  0.7602399999999998  0.76879  0.86835  1.0000
  N   N4        1.0  0.73592  0.8271600000000001  0.96111  1.0000
  N   N5        1.0  0.84132  0.1849  0.67922  1.0000
  N   N6        1.0  0.5663699999999999  0.64405  0.58522  1.0000
  N   N7        1.0  0.43364999999999987  0.35594  0.41479  1.0000
  N   N8        1.0  0.34025  0.31485  0.31924  1.0000
  N   N9        1.0  0.9400099999999999  0.14417  0.58406  1.0000
  N   N10       1.0  0.15871  0.8151  0.32079  1.0000
  N   N11       1.0  0.23722  0.6728  0.04131  1.0000
  N   N12       1.0  0.2641  0.17283  0.03889  1.0000
  N   N13       1.0  0.06001  0.8558300000000001  0.4159399999999999  1.0000
  N   N14       1.0  0.26044  0.73051  0.13439  1.0000
  N   N15       1.0  0.23979  0.2312  0.13165  1.0000
  N   N16       1.0  0.73959  0.26949  0.86562  1.0000
  O   O1        1.0  0.6532  0.59643  0.83357  1.0000
  O   O2        1.0  0.34681999999999996  0.40356000000000003  0.16643  1.0000
  O   O3        1.0  0.4529499999999999  0.85493  0.22632000000000002  1.0000
  O   O4        1.0  0.7617199999999998  0.2118  0.21759000000000003  1.0000
  O   O5        1.0  0.96724  0.64629  0.77659  1.0000
  O   O6        1.0  0.26186999999999994  0.2868  0.77688  1.0000
  O   O7        1.0  0.23831000000000002  0.7882  0.7824099999999999  1.0000
  O   O8        1.0  0.73816  0.7132  0.22312  1.0000
  O   O9        1.0  0.03278  0.3537  0.22341  1.0000
  O   O10       1.0  0.90883  0.32715999999999995  0.7232899999999999  1.0000
  O   O11       1.0  0.0912  0.67283  0.27671  1.0000
  O   O12       1.0  0.54708  0.14506  0.77368  1.0000
  O   O13       1.0  0.85809  0.09817  0.83326  1.0000
  O   O14       1.0  0.40725  0.17212  0.27148  1.0000
  O   O15       1.0  0.14194  0.90183  0.16674  1.0000
  O   O16       1.0  0.59277  0.82788  0.7285299999999999  1.0000
