data_image0
_chemical_formula_structural       Fe2H84C60N24
_chemical_formula_sum              "Fe2 H84 C60 N24"
_cell_length_a       12.55572
_cell_length_b       13.318430000000001
_cell_length_c       13.31849
_cell_angle_alpha    119.98891
_cell_angle_beta     90.01668
_cell_angle_gamma    90.01848000000001

_space_group_name_H-M_alt    "P 1"
_space_group_IT_number       1

loop_
  _space_group_symop_operation_xyz
  'x, y, z'

loop_
  _atom_site_type_symbol
  _atom_site_label
  _atom_site_symmetry_multiplicity
  _atom_site_fract_x
  _atom_site_fract_y
  _atom_site_fract_z
  _atom_site_occupancy
  Fe  Fe1       1.0  0.22453999999999996  0.6666199999999998  0.33325  1.0000
  Fe  Fe2       1.0  0.72453  0.33327  0.66662  1.0000
  H   H1        1.0  0.471  0.74322  0.46119  1.0000
  H   H2        1.0  0.36768  0.09404  0.64929  1.0000
  H   H3        1.0  0.56239  0.05925999999999999  0.65988  1.0000
  H   H4        1.0  0.61514  0.9213099999999999  0.56242  1.0000
  H   H5        1.0  0.21226  0.9557499999999999  0.48842  1.0000
  H   H6        1.0  0.48733  0.39678  0.6022  1.0000
  H   H7        1.0  0.42619  0.617  0.6532  1.0000
  H   H8        1.0  0.72919  0.6297600000000001  0.8035200000000001  1.0000
  H   H9        1.0  0.51856  0.8297299999999997  0.8511500000000001  1.0000
  H   H10       1.0  0.6582499999999999  0.8180999999999999  0.8332700000000001  1.0000
  H   H11       1.0  0.51008  0.98733  0.79526  1.0000
  H   H12       1.0  0.64881  0.9818299999999998  0.76976  1.0000
  H   H13       1.0  0.63658  0.7692199999999999  0.62589  1.0000
  H   H14       1.0  0.49699  0.77419  0.64206  1.0000
  H   H15       1.0  0.47103  0.71777  0.25652  1.0000
  H   H16       1.0  0.36696  0.55469  0.90586  1.0000
  H   H17       1.0  0.56178  0.6004800000000001  0.9404400000000002  1.0000
  H   H18       1.0  0.61481  0.64081  0.07837  1.0000
  H   H19       1.0  0.21157  0.53318  0.04468  1.0000
  H   H20       1.0  0.4876  0.20557  0.60326  1.0000
  H   H21       1.0  0.42595000000000005  0.036489999999999995  0.38316  1.0000
  H   H22       1.0  0.72895  0.17380999999999994  0.36989  1.0000
  H   H23       1.0  0.51778  0.021489999999999995  0.17049  1.0000
  H   H24       1.0  0.65744  0.015450000000000007  0.1816  1.0000
  H   H25       1.0  0.50943  0.8074499999999998  0.01225  1.0000
  H   H26       1.0  0.64812  0.7876  0.01748  1.0000
  H   H27       1.0  0.6366  0.8564699999999998  0.23037  1.0000
  H   H28       1.0  0.49704  0.8674899999999999  0.22567  1.0000
  H   H29       1.0  0.47091  0.53888  0.28193  1.0000
  H   H30       1.0  0.36718  0.35119  0.44505000000000006  1.0000
  H   H31       1.0  0.5619  0.3402099999999999  0.39957  1.0000
  H   H32       1.0  0.6148  0.43784  0.35918000000000005  1.0000
  H   H33       1.0  0.21200999999999998  0.5116699999999998  0.46684999999999993  1.0000
  H   H34       1.0  0.48740999999999995  0.3975  0.79407  1.0000
  H   H35       1.0  0.42648  0.34669  0.96364  1.0000
  H   H36       1.0  0.72929  0.19649000000000005  0.82633  1.0000
  H   H37       1.0  0.51868  0.14906000000000003  0.97896  1.0000
  H   H38       1.0  0.6582  0.16668999999999995  0.98516  1.0000
  H   H39       1.0  0.50962  0.20493  0.19232000000000002  1.0000
  H   H40       1.0  0.6484  0.23051999999999997  0.21267  1.0000
  H   H41       1.0  0.637  0.37412999999999996  0.1435  1.0000
  H   H42       1.0  0.49736  0.35837  0.13223  1.0000
  H   H43       1.0  0.97126  0.28204  0.53891  1.0000
  H   H44       1.0  0.86726  0.44501000000000007  0.35118000000000005  1.0000
  H   H45       1.0  0.06209  0.39959  0.34013  1.0000
  H   H46       1.0  0.11506  0.35917999999999994  0.4377  1.0000
  H   H47       1.0  0.71215  0.46669  0.51171  1.0000
  H   H48       1.0  0.98718  0.794  0.39732  1.0000
  H   H49       1.0  0.9266599999999999  0.9638400000000001  0.3467  1.0000
  H   H50       1.0  0.22938  0.82623  0.19657000000000002  1.0000
  H   H51       1.0  0.01883  0.9789  0.1491  1.0000
  H   H52       1.0  0.15834  0.98522  0.16671  1.0000
  H   H53       1.0  0.00963  0.19237  0.20495  1.0000
  H   H54       1.0  0.14843  0.21260999999999994  0.2304  1.0000
  H   H55       1.0  0.13703  0.14359999999999995  0.37417  1.0000
  H   H56       1.0  0.99741  0.13224000000000002  0.35833  1.0000
  H   H57       1.0  0.9714199999999998  0.46115  0.74328  1.0000
  H   H58       1.0  0.86782  0.64931  0.094  1.0000
  H   H59       1.0  0.06262  0.6599699999999997  0.05936  1.0000
  H   H60       1.0  0.11546999999999999  0.56259  0.9214400000000001  1.0000
  H   H61       1.0  0.71248  0.48837999999999987  0.95554  1.0000
  H   H62       1.0  0.9870999999999999  0.60238  0.39687000000000006  1.0000
  H   H63       1.0  0.92634  0.65315  0.61716  1.0000
  H   H64       1.0  0.22925  0.8034599999999997  0.62958  1.0000
  H   H65       1.0  0.0187  0.85111  0.82965  1.0000
  H   H66       1.0  0.15839  0.83324  0.81811  1.0000
  H   H67       1.0  0.01011  0.79525  0.98737  1.0000
  H   H68       1.0  0.14888  0.7699099999999999  0.9818700000000001  1.0000
  H   H69       1.0  0.13661  0.62586  0.7692600000000002  1.0000
  H   H70       1.0  0.99703  0.6421000000000001  0.7742800000000001  1.0000
  H   H71       1.0  0.9713899999999999  0.25644  0.71768  1.0000
  H   H72       1.0  0.86704  0.90589  0.55474  1.0000
  H   H73       1.0  0.061959999999999994  0.94034  0.60047  1.0000
  H   H74       1.0  0.11508  0.07823999999999992  0.64082  1.0000
  H   H75       1.0  0.71173  0.04488  0.53333  1.0000
  H   H76       1.0  0.98735  0.6031799999999999  0.20563000000000003  1.0000
  H   H77       1.0  0.92606  0.38303  0.03629  1.0000
  H   H78       1.0  0.22896  0.37006  0.1739  1.0000
  H   H79       1.0  0.01787  0.17054999999999995  0.02152  1.0000
  H   H80       1.0  0.15754  0.18161  0.01543  1.0000
  H   H81       1.0  0.00944  0.012219999999999946  0.80741  1.0000
  H   H82       1.0  0.14816  0.017450000000000014  0.78769  1.0000
  H   H83       1.0  0.13661  0.23032  0.85638  1.0000
  H   H84       1.0  0.99706  0.22559000000000007  0.8674400000000001  1.0000
  C   C1        1.0  0.42078  0.81863  0.48964  1.0000
  C   C2        1.0  0.36487  0.002279999999999971  0.58673  1.0000
  C   C3        1.0  0.55389  0.96632  0.62914  1.0000
  C   C4        1.0  0.28913  0.93249  0.50725  1.0000
  C   C5        1.0  0.52806  0.47851  0.65335  1.0000
  C   C6        1.0  0.49589  0.5877199999999999  0.6791  1.0000
  C   C7        1.0  0.65588  0.59482  0.75588  1.0000
  C   C8        1.0  0.58238  0.7859999999999999  0.78702  1.0000
  C   C9        1.0  0.57195  0.9423799999999998  0.72918  1.0000
  C   C10       1.0  0.57174  0.81281  0.68846  1.0000
  C   C11       1.0  0.42066  0.67083  0.18121  1.0000
  C   C12       1.0  0.36435  0.58415  0.99769  1.0000
  C   C13       1.0  0.55347  0.66252  0.0334  1.0000
  C   C14       1.0  0.28862  0.57492  0.0677  1.0000
  C   C15       1.0  0.52822  0.17486999999999994  0.52148  1.0000
  C   C16       1.0  0.49592  0.09127999999999994  0.41235  1.0000
  C   C17       1.0  0.65591  0.16076  0.40499  1.0000
  C   C18       1.0  0.58187  0.000889999999999995  0.21384  1.0000
  C   C19       1.0  0.57146  0.7864899999999998  0.05723  1.0000
  C   C20       1.0  0.57159  0.87538  0.18683  1.0000
  C   C21       1.0  0.42073999999999995  0.5104100000000001  0.32889  1.0000
  C   C22       1.0  0.36454  0.41350999999999993  0.4155400000000001  1.0000
  C   C23       1.0  0.55358  0.37103  0.33741  1.0000
  C   C24       1.0  0.28893  0.4929199999999999  0.42499000000000003  1.0000
  C   C25       1.0  0.52815  0.34641  0.82477  1.0000
  C   C26       1.0  0.49617999999999995  0.32094  0.90852  1.0000
  C   C27       1.0  0.65611  0.24425999999999995  0.8389100000000002  1.0000
  C   C28       1.0  0.58252  0.21320999999999996  0.99925  1.0000
  C   C29       1.0  0.57162  0.27101  0.21351  1.0000
  C   C30       1.0  0.57191  0.31177  0.12463000000000002  1.0000
  C   C31       1.0  0.92105  0.32900999999999997  0.5105  1.0000
  C   C32       1.0  0.8647  0.41553999999999996  0.41353999999999996  1.0000
  C   C33       1.0  0.05376  0.33745  0.37098  1.0000
  C   C34       1.0  0.78914  0.4249699999999999  0.49298  1.0000
  C   C35       1.0  0.02805  0.8247399999999998  0.34631  1.0000
  C   C36       1.0  0.99628  0.90861  0.32094  1.0000
  C   C37       1.0  0.15616  0.8387999999999999  0.24424  1.0000
  C   C38       1.0  0.08269  0.9992699999999999  0.21323  1.0000
  C   C39       1.0  0.07168  0.21351  0.27096  1.0000
  C   C40       1.0  0.07198  0.12466  0.31176  1.0000
  C   C41       1.0  0.92117  0.48953  0.81865  1.0000
  C   C42       1.0  0.8651  0.58671  0.00224  1.0000
  C   C43       1.0  0.054139999999999994  0.6291999999999999  0.9664  1.0000
  C   C44       1.0  0.7894  0.5071999999999999  0.9324100000000001  1.0000
  C   C45       1.0  0.02797  0.65343  0.47855  1.0000
  C   C46       1.0  0.99596  0.67908  0.58779  1.0000
  C   C47       1.0  0.15591  0.75587  0.59472  1.0000
  C   C48       1.0  0.08253  0.7869899999999997  0.78598  1.0000
  C   C49       1.0  0.07204  0.7292399999999998  0.94243  1.0000
  C   C50       1.0  0.07181  0.6884699999999998  0.8128400000000001  1.0000
  C   C51       1.0  0.92097  0.18118  0.67072  1.0000
  C   C52       1.0  0.8645099999999999  0.9977100000000001  0.58416  1.0000
  C   C53       1.0  0.05366  0.03331  0.66249  1.0000
  C   C54       1.0  0.78884  0.06777  0.57494  1.0000
  C   C55       1.0  0.02809  0.52144  0.1749  1.0000
  C   C56       1.0  0.9959499999999999  0.41229  0.0912  1.0000
  C   C57       1.0  0.15589  0.40508999999999995  0.16086  1.0000
  C   C58       1.0  0.08198  0.21385999999999994  0.00088  1.0000
  C   C59       1.0  0.07151  0.05718000000000001  0.78649  1.0000
  C   C60       1.0  0.07162  0.1868  0.87535  1.0000
  N   N1        1.0  0.4501  0.92963  0.57417  1.0000
  N   N2        1.0  0.32356  0.8187299999999998  0.44739000000000007  1.0000
  N   N3        1.0  0.62712  0.4827199999999999  0.7008500000000001  1.0000
  N   N4        1.0  0.57799  0.6620900000000001  0.7446200000000001  1.0000
  N   N5        1.0  0.44982  0.6440099999999997  0.07011  1.0000
  N   N6        1.0  0.32331  0.62892  0.18141  1.0000
  N   N7        1.0  0.62729  0.21805999999999998  0.51709  1.0000
  N   N8        1.0  0.57793  0.08219999999999995  0.33785  1.0000
  N   N9        1.0  0.44991  0.4260499999999999  0.35562999999999995  1.0000
  N   N10       1.0  0.32352999999999993  0.55268  0.37102000000000007  1.0000
  N   N11       1.0  0.62725  0.29901000000000005  0.7815700000000001  1.0000
  N   N12       1.0  0.5783  0.25558000000000003  0.9175800000000001  1.0000
  N   N13       1.0  0.95016  0.35577  0.42614  1.0000
  N   N14       1.0  0.8238399999999999  0.3711  0.5528  1.0000
  N   N15       1.0  0.12713  0.7814399999999999  0.29892  1.0000
  N   N16       1.0  0.07849  0.91767  0.2557  1.0000
  N   N17       1.0  0.9504199999999999  0.57406  0.92967  1.0000
  N   N18       1.0  0.82393  0.44727  0.81868  1.0000
  N   N19       1.0  0.12702  0.7009  0.48267  1.0000
  N   N20       1.0  0.07816  0.7445099999999998  0.66205  1.0000
  N   N21       1.0  0.95007  0.07006000000000005  0.64389  1.0000
  N   N22       1.0  0.82363  0.18145  0.62884  1.0000
  N   N23       1.0  0.12714  0.51713  0.21816  1.0000
  N   N24       1.0  0.07804  0.33789999999999987  0.08212  1.0000
