data_image0
_chemical_formula_structural       Ga9Fe3P12H66C24N18O48
_chemical_formula_sum              "Ga9 Fe3 P12 H66 C24 N18 O48"
_cell_length_a       13.37333
_cell_length_b       14.479219999999998
_cell_length_c       14.30758
_cell_angle_alpha    110.13248
_cell_angle_beta     107.8443
_cell_angle_gamma    108.83587

_symmetry_space_group_name_H-M    'P 1'
_symmetry_Int_Tables_number       1

loop_
  _symmetry_equiv_pos_as_xyz
  'x,y,z'

loop_
  _atom_site_type_symbol
  _atom_site_label
  _atom_site_symmetry_multiplicity
  _atom_site_fract_x
  _atom_site_fract_y
  _atom_site_fract_z
  _atom_site_occupancy
  Ga  Ga1       1.0  0.26705999999999996  0.45385  0.58262  1.0000
  Ga  Ga2       1.0  0.525  0.38404000000000005  0.55099  1.0000
  Ga  Ga3       1.0  0.6863999999999998  0.41724  0.87127  1.0000
  Ga  Ga4       1.0  0.9793700000000001  0.45372  0.82856  1.0000
  Ga  Ga5       1.0  0.8202699999999998  0.13742000000000004  0.56797  1.0000
  Ga  Ga6       1.0  0.14557999999999993  0.1722  0.62165  1.0000
  Ga  Ga7       1.0  0.74204  0.56835  0.4304600000000001  1.0000
  Ga  Ga8       1.0  0.31330999999999987  0.56953  0.13861  1.0000
  Ga  Ga9       1.0  0.17359  0.85802  0.42724  1.0000
  Fe  Fe1       1.0  0.46911999999999987  0.6094600000000001  0.46047  1.0000
  Fe  Fe2       1.0  0.014210000000000049  0.54127  0.14718  1.0000
  Fe  Fe3       1.0  0.86522  0.8423000000000002  0.38818  1.0000
  P   P1        1.0  0.54594  0.61151  0.66739  1.0000
  P   P2        1.0  0.60138  0.66751  0.31936  1.0000
  P   P3        1.0  0.8822699999999999  0.3367500000000001  0.9422500000000001  1.0000
  P   P4        1.0  0.28127  0.67819  0.3485  1.0000
  P   P5        1.0  0.9368500000000001  0.06310000000000003  0.39942000000000005  1.0000
  P   P6        1.0  0.9295499999999998  0.64622  0.32283  1.0000
  P   P7        1.0  0.45862  0.3923400000000001  0.34086000000000005  1.0000
  P   P8        1.0  0.40158  0.34342000000000006  0.69425  1.0000
  P   P9        1.0  0.1248  0.66189  0.050530000000000005  1.0000
  P   P10       1.0  0.7109899999999998  0.31575  0.65039  1.0000
  P   P11       1.0  0.06881999999999996  0.9455299999999998  0.60561  1.0000
  P   P12       1.0  0.059100000000000014  0.34997  0.65897  1.0000
  H   H1        1.0  0.40834  0.65814  0.76298  1.0000
  H   H2        1.0  0.26498  0.60731  0.74791  1.0000
  H   H3        1.0  0.14220000000000002  0.24461000000000002  0.42966000000000004  1.0000
  H   H4        1.0  0.26526  0.30227  0.41802  1.0000
  H   H5        1.0  0.36625  0.73426  0.64783  1.0000
  H   H6        1.0  0.15949  0.64219  0.48636000000000007  1.0000
  H   H7        1.0  0.09576999999999998  0.5863500000000001  0.55792  1.0000
  H   H8        1.0  0.0016500000000000097  0.36435000000000006  0.38321  1.0000
  H   H9        1.0  0.052959999999999986  0.43743  0.31454  1.0000
  H   H10       1.0  0.05467000000000001  0.24649  0.26391  1.0000
  H   H11       1.0  0.19206999999999996  0.36375  0.30709  1.0000
  H   H12       1.0  0.65057  0.23751  0.89748  1.0000
  H   H13       1.0  0.52125  0.24913000000000007  0.8621700000000001  1.0000
  H   H14       1.0  0.71072  0.57005  0.8123  1.0000
  H   H15       1.0  0.8456799999999999  0.5827400000000001  0.8776100000000001  1.0000
  H   H16       1.0  0.7229699999999999  0.35178  0.08784  1.0000
  H   H17       1.0  0.6705599999999999  0.50654  0.15495  1.0000
  H   H18       1.0  0.53729  0.43361000000000005  0.02705  1.0000
  H   H19       1.0  0.6172699999999998  0.60981  0.97805  1.0000
  H   H20       1.0  0.73544  0.6792  0.11929000000000001  1.0000
  H   H21       1.0  0.79025  0.7337  0.9789  1.0000
  H   H22       1.0  0.8843999999999996  0.69054  0.05189  1.0000
  H   H23       1.0  0.7420700000000001  0.05966  0.30076  1.0000
  H   H24       1.0  0.6487399999999998  0.10592  0.3454  1.0000
  H   H25       1.0  0.8839799999999999  0.17157  0.76844  1.0000
  H   H26       1.0  0.96799  0.1262800000000001  0.7207500000000001  1.0000
  H   H27       1.0  0.6391299999999998  0.88626  0.30186  1.0000
  H   H28       1.0  0.49265999999999993  0.88215  0.38099  1.0000
  H   H29       1.0  0.53197  0.025720000000000017  0.41643  1.0000
  H   H30       1.0  0.6336  0.0004899999999999812  0.62978  1.0000
  H   H31       1.0  0.6177399999999997  0.8691600000000003  0.54005  1.0000
  H   H32       1.0  0.8017899999999999  0.9853400000000001  0.73545  1.0000
  H   H33       1.0  0.8326099999999997  0.9436300000000001  0.61892  1.0000
  H   H34       1.0  0.5529599999999999  0.2968  0.24027  1.0000
  H   H35       1.0  0.6922499999999998  0.34978  0.23729  1.0000
  H   H36       1.0  0.8719799999999998  0.77106  0.58981  1.0000
  H   H37       1.0  0.74388  0.71248  0.59479  1.0000
  H   H38       1.0  0.65702  0.29852  0.41227000000000014  1.0000
  H   H39       1.0  0.88098  0.38314000000000004  0.49746  1.0000
  H   H40       1.0  0.8812399999999998  0.42282  0.39066  1.0000
  H   H41       1.0  0.9965399999999996  0.63519  0.61728  1.0000
  H   H42       1.0  0.9325299999999999  0.5499699999999997  0.67045  1.0000
  H   H43       1.0  0.9425299999999998  0.7435500000000002  0.7446600000000001  1.0000
  H   H44       1.0  0.7986299999999998  0.62589  0.68482  1.0000
  H   H45       1.0  0.32495999999999997  0.76489  0.06263  1.0000
  H   H46       1.0  0.46473  0.76109  0.11321  1.0000
  H   H47       1.0  0.28156999999999993  0.40965999999999997  0.18224  1.0000
  H   H48       1.0  0.14869  0.40436  0.12006  1.0000
  H   H49       1.0  0.25042  0.59775  0.89154  1.0000
  H   H50       1.0  0.38041999999999987  0.50519  0.8804500000000001  1.0000
  H   H51       1.0  0.4903099999999999  0.60665  0.025480000000000003  1.0000
  H   H52       1.0  0.3781  0.38586  0.01545  1.0000
  H   H53       1.0  0.26066  0.33279000000000003  0.87854  1.0000
  H   H54       1.0  0.19703999999999994  0.25688  0.00105  1.0000
  H   H55       1.0  0.11311999999999998  0.31638  0.94389  1.0000
  H   H56       1.0  0.26226999999999984  0.9449199999999999  0.70466  1.0000
  H   H57       1.0  0.3519199999999999  0.89402  0.65632  1.0000
  H   H58       1.0  0.10431  0.82103  0.2247  1.0000
  H   H59       1.0  0.025060000000000117  0.87064  0.27681  1.0000
  H   H60       1.0  0.3591  0.11193999999999998  0.69574  1.0000
  H   H61       1.0  0.50051  0.11414000000000006  0.61134  1.0000
  H   H62       1.0  0.46166000000000007  0.97096  0.5762400000000001  1.0000
  H   H63       1.0  0.36012999999999995  0.99655  0.36449  1.0000
  H   H64       1.0  0.37336  0.12654999999999994  0.4533  1.0000
  H   H65       1.0  0.18994  0.007340000000000008  0.25661  1.0000
  H   H66       1.0  0.15952  0.051390000000000005  0.37314  1.0000
  C   C1        1.0  0.28967  0.6769  0.64746  1.0000
  C   C2        1.0  0.17334999999999992  0.60391  0.54032  1.0000
  C   C3        1.0  0.08044000000000003  0.40843  0.37479000000000007  1.0000
  C   C4        1.0  0.12894999999999995  0.32761  0.33449  1.0000
  C   C5        1.0  0.64514  0.34946  0.0311  1.0000
  C   C6        1.0  0.63306  0.45398000000000005  0.06341  1.0000
  C   C7        1.0  0.7047199999999999  0.62027  0.030970000000000008  1.0000
  C   C8        1.0  0.79413  0.66329  0.98957  1.0000
  C   C9        1.0  0.61916  0.9551300000000001  0.32953  1.0000
  C   C10       1.0  0.5642499999999999  0.9637400000000002  0.40601000000000004  1.0000
  C   C11       1.0  0.6721599999999999  0.9605  0.58123  1.0000
  C   C12       1.0  0.79955  0.995  0.66225  1.0000
  C   C13       1.0  0.7058899999999998  0.32973000000000013  0.37175000000000014  1.0000
  C   C14       1.0  0.83644  0.40981  0.4417  1.0000
  C   C15       1.0  0.91259  0.58739  0.61692  1.0000
  C   C16       1.0  0.8685199999999997  0.66807  0.6669  1.0000
  C   C17       1.0  0.33984  0.63372  0.9597400000000001  1.0000
  C   C18       1.0  0.39417  0.5595  0.96421  1.0000
  C   C19       1.0  0.29412  0.38525  0.96922  1.0000
  C   C20       1.0  0.20077  0.33419  0.00267  1.0000
  C   C21       1.0  0.37923000000000007  0.04320000000000005  0.6677500000000001  1.0000
  C   C22       1.0  0.4293399999999999  0.032860000000000014  0.58745  1.0000
  C   C23       1.0  0.32013  0.035029999999999985  0.41232  1.0000
  C   C24       1.0  0.19236999999999996  0.9991599999999999  0.33057  1.0000
  N   N1        1.0  0.31725999999999993  0.62236  0.70989  1.0000
  N   N2        1.0  0.17103  0.49891  0.48397  1.0000
  N   N3        1.0  0.19614  0.31329  0.42829000000000006  1.0000
  N   N4        1.0  0.6113999999999998  0.28851  0.91468  1.0000
  N   N5        1.0  0.6881499999999998  0.51254  0.01447  1.0000
  N   N6        1.0  0.7673899999999998  0.57157  0.88152  1.0000
  N   N7        1.0  0.6662499999999999  0.04134  0.31524  1.0000
  N   N8        1.0  0.6752099999999998  0.9978  0.49888  1.0000
  N   N9        1.0  0.8823900000000001  0.11417  0.70026  1.0000
  N   N10       1.0  0.6454099999999998  0.3156  0.27205  1.0000
  N   N11       1.0  0.8209  0.50224  0.5022  1.0000
  N   N12       1.0  0.8121599999999998  0.69984  0.58365  1.0000
  N   N13       1.0  0.3838  0.73167  0.04718000000000001  1.0000
  N   N14       1.0  0.31683000000000006  0.49901000000000006  0.9976900000000001  1.0000
  N   N15       1.0  0.22802999999999998  0.41596  0.11755  1.0000
  N   N16       1.0  0.33597  0.95976  0.68634  1.0000
  N   N17       1.0  0.31754  0.99851  0.49521000000000004  1.0000
  N   N18       1.0  0.10960999999999993  0.88063  0.29449  1.0000
  O   O1        1.0  0.4127299999999999  0.52919  0.56705  1.0000
  O   O2        1.0  0.59679  0.68451  0.61611  1.0000
  O   O3        1.0  0.60772  0.53331  0.6673  1.0000
  O   O4        1.0  0.5594399999999999  0.67585  0.78176  1.0000
  O   O5        1.0  0.57748  0.69523  0.42296  1.0000
  O   O6        1.0  0.69804  0.7788300000000001  0.33934  1.0000
  O   O7        1.0  0.49062999999999996  0.6196700000000002  0.20821  1.0000
  O   O8        1.0  0.65174  0.58311  0.30979  1.0000
  O   O9        1.0  0.8485199999999998  0.4347800000000001  0.9582600000000001  1.0000
  O   O10       1.0  0.98138  0.38612  0.06647  1.0000
  O   O11       1.0  0.9472899999999997  0.339  0.8652  1.0000
  O   O12       1.0  0.78216  0.22139  0.89284  1.0000
  O   O13       1.0  0.15348999999999993  0.57434  0.27269  1.0000
  O   O14       1.0  0.35227  0.65762  0.44219  1.0000
  O   O15       1.0  0.27949999999999997  0.7877000000000001  0.4071000000000001  1.0000
  O   O16       1.0  0.3460499999999999  0.68839  0.27567  1.0000
  O   O17       1.0  0.89349  0.05919000000000004  0.4884300000000001  1.0000
  O   O18       1.0  0.9086799999999998  0.9382  0.32743  1.0000
  O   O19       1.0  0.07989000000000002  0.13753000000000007  0.4702400000000001  1.0000
  O   O20       1.0  0.88396  0.10585  0.32569  1.0000
  O   O21       1.0  0.8794  0.72218  0.29342  1.0000
  O   O22       1.0  0.9106199999999998  0.55593  0.2103  1.0000
  O   O23       1.0  0.8644999999999996  0.58489  0.37155  1.0000
  O   O24       1.0  0.06581000000000008  0.7203900000000001  0.40803000000000006  1.0000
  O   O25       1.0  0.5906699999999998  0.48206  0.43214  1.0000
  O   O26       1.0  0.41506999999999994  0.3245  0.4006100000000001  1.0000
  O   O27       1.0  0.38601  0.45922999999999997  0.33171  1.0000
  O   O28       1.0  0.43912999999999996  0.31494  0.22684  1.0000
  O   O29       1.0  0.4143399999999999  0.30068  0.58459  1.0000
  O   O30       1.0  0.31239  0.23647  0.68874  1.0000
  O   O31       1.0  0.5186099999999999  0.40198  0.80291  1.0000
  O   O32       1.0  0.34615  0.42297  0.696  1.0000
  O   O33       1.0  0.16214  0.57108  0.0558  1.0000
  O   O34       1.0  0.02836999999999995  0.6039599999999999  0.92191  1.0000
  O   O35       1.0  0.05569000000000003  0.6704600000000001  0.12287000000000002  1.0000
  O   O36       1.0  0.22290999999999994  0.77548  0.08801  1.0000
  O   O37       1.0  0.83472  0.42486  0.71874  1.0000
  O   O38       1.0  0.6306900000000001  0.32616000000000006  0.5521900000000001  1.0000
  O   O39       1.0  0.71702  0.20817  0.59619  1.0000
  O   O40       1.0  0.6517899999999998  0.30806  0.72727  1.0000
  O   O41       1.0  0.10133  0.93849  0.50815  1.0000
  O   O42       1.0  0.09874999999999999  0.07245000000000006  0.67349  1.0000
  O   O43       1.0  0.9269899999999998  0.8714700000000001  0.54189  1.0000
  O   O44       1.0  0.12706  0.90917  0.68382  1.0000
  O   O45       1.0  0.11331999999999996  0.28303  0.70251  1.0000
  O   O46       1.0  0.08350000000000007  0.45338000000000017  0.7658000000000001  1.0000
  O   O47       1.0  0.11309  0.39387  0.59359  1.0000
  O   O48       1.0  0.9211399999999997  0.27559  0.58383  1.0000
