data_image0
_chemical_formula_structural       Gd8H32C64N8O56
_chemical_formula_sum              "Gd8 H32 C64 N8 O56"
_cell_length_a       9.9574
_cell_length_b       17.83978
_cell_length_c       20.50323
_cell_angle_alpha    89.98741
_cell_angle_beta     90.02368
_cell_angle_gamma    89.60291

_space_group_name_H-M_alt    "P 1"
_space_group_IT_number       1

loop_
  _space_group_symop_operation_xyz
  'x, y, z'

loop_
  _atom_site_type_symbol
  _atom_site_label
  _atom_site_symmetry_multiplicity
  _atom_site_fract_x
  _atom_site_fract_y
  _atom_site_fract_z
  _atom_site_occupancy
  Gd  Gd1       1.0  0.17783  0.49448  0.24179999999999996  1.0000
  Gd  Gd2       1.0  0.25047  0.99795  0.49468  1.0000
  Gd  Gd3       1.0  0.32206  0.50552  0.74178  1.0000
  Gd  Gd4       1.0  0.24832999999999997  0.0018799999999999997  0.9938300000000001  1.0000
  Gd  Gd5       1.0  0.82217  0.50553  0.7582  1.0000
  Gd  Gd6       1.0  0.74953  0.00206  0.50532  1.0000
  Gd  Gd7       1.0  0.67794  0.49448  0.25822  1.0000
  Gd  Gd8       1.0  0.75167  0.99812  0.006170000000000001  1.0000
  H   H1        1.0  0.15993  0.68256  0.32964  1.0000
  H   H2        1.0  0.18714  0.8016799999999997  0.39298  1.0000
  H   H3        1.0  0.75759  0.82835  0.40097  1.0000
  H   H4        1.0  0.73047  0.70809  0.33902  1.0000
  H   H5        1.0  0.64828  0.30138  0.31991  1.0000
  H   H6        1.0  0.23751999999999998  0.3210499999999999  0.38332  1.0000
  H   H7        1.0  0.26775  0.20711999999999994  0.45329  1.0000
  H   H8        1.0  0.6788099999999999  0.18828999999999996  0.39030999999999993  1.0000
  H   H9        1.0  0.34009  0.3175  0.82997  1.0000
  H   H10       1.0  0.31277  0.19792999999999994  0.89257  1.0000
  H   H11       1.0  0.7423599999999999  0.17116999999999993  0.90069  1.0000
  H   H12       1.0  0.76962  0.29181  0.83933  1.0000
  H   H13       1.0  0.85197  0.69847  0.8198199999999999  1.0000
  H   H14       1.0  0.26261  0.67895  0.88357  1.0000
  H   H15       1.0  0.23176  0.7925999999999999  0.95381  1.0000
  H   H16       1.0  0.82109  0.81144  0.8905  1.0000
  H   H17       1.0  0.8400699999999999  0.31744999999999995  0.67036  1.0000
  H   H18       1.0  0.81286  0.19833  0.60702  1.0000
  H   H19       1.0  0.24240999999999996  0.17166  0.59903  1.0000
  H   H20       1.0  0.26953  0.29192  0.66099  1.0000
  H   H21       1.0  0.35172  0.69863  0.68009  1.0000
  H   H22       1.0  0.76248  0.67896  0.61668  1.0000
  H   H23       1.0  0.73225  0.79289  0.54671  1.0000
  H   H24       1.0  0.32119  0.81172  0.60969  1.0000
  H   H25       1.0  0.6599099999999999  0.6825099999999997  0.17003  1.0000
  H   H26       1.0  0.68723  0.80208  0.10742999999999998  1.0000
  H   H27       1.0  0.25764  0.8288299999999998  0.09931000000000001  1.0000
  H   H28       1.0  0.23037999999999997  0.7082  0.16067  1.0000
  H   H29       1.0  0.14802  0.30154  0.18018  1.0000
  H   H30       1.0  0.73739  0.32106  0.11643  1.0000
  H   H31       1.0  0.76824  0.20739999999999995  0.04619  1.0000
  H   H32       1.0  0.17891  0.18856  0.10950000000000001  1.0000
  C   C1        1.0  0.9282399999999998  0.6163399999999999  0.29525  1.0000
  C   C2        1.0  0.9435099999999998  0.68845  0.33094  1.0000
  C   C3        1.0  0.07279  0.7145  0.34587  1.0000
  C   C4        1.0  0.08803999999999998  0.78061  0.38085  1.0000
  C   C5        1.0  0.97423  0.8216499999999998  0.4005699999999999  1.0000
  C   C6        1.0  0.84484  0.7961  0.38516  1.0000
  C   C7        1.0  0.82963  0.72947  0.35063  1.0000
  C   C8        1.0  0.9929  0.8925299999999998  0.43767000000000006  1.0000
  C   C9        1.0  0.42335  0.38398  0.30376  1.0000
  C   C10       1.0  0.56577  0.28046  0.34923  1.0000
  C   C11       1.0  0.33347  0.29166  0.38518  1.0000
  C   C12       1.0  0.4924  0.12185999999999998  0.46584  1.0000
  C   C13       1.0  0.35044  0.22851  0.42430999999999996  1.0000
  C   C14       1.0  0.44087  0.31759999999999994  0.34709  1.0000
  C   C15       1.0  0.5828699999999999  0.21762999999999996  0.38854  1.0000
  C   C16       1.0  0.47503999999999996  0.19102  0.42594000000000004  1.0000
  C   C17       1.0  0.5716699999999999  0.38361  0.7953299999999999  1.0000
  C   C18       1.0  0.55651  0.31147  0.83111  1.0000
  C   C19       1.0  0.42724000000000006  0.28535  0.84595  1.0000
  C   C20       1.0  0.41195  0.21897999999999995  0.88061  1.0000
  C   C21       1.0  0.52569  0.17773999999999995  0.90021  1.0000
  C   C22       1.0  0.65506  0.20346999999999996  0.88496  1.0000
  C   C23       1.0  0.67038  0.27032  0.85071  1.0000
  C   C24       1.0  0.50742  0.10684999999999999  0.93743  1.0000
  C   C25       1.0  0.0768  0.61601  0.8037500000000001  1.0000
  C   C26       1.0  0.9343399999999998  0.71938  0.84927  1.0000
  C   C27       1.0  0.16657  0.70821  0.88538  1.0000
  C   C28       1.0  0.007400000000000003  0.8777999999999998  0.9661  1.0000
  C   C29       1.0  0.1494  0.77126  0.92457  1.0000
  C   C30       1.0  0.059320000000000005  0.68234  0.84712  1.0000
  C   C31       1.0  0.91706  0.7821299999999998  0.8886300000000001  1.0000
  C   C32       1.0  0.02483  0.80874  0.9261099999999999  1.0000
  C   C33       1.0  0.07175  0.38367  0.70475  1.0000
  C   C34       1.0  0.05649  0.31156  0.66906  1.0000
  C   C35       1.0  0.9272099999999999  0.2855  0.65413  1.0000
  C   C36       1.0  0.9119599999999999  0.21938999999999995  0.61915  1.0000
  C   C37       1.0  0.02577  0.17836  0.59943  1.0000
  C   C38       1.0  0.15516  0.20389999999999994  0.61484  1.0000
  C   C39       1.0  0.17037  0.27053  0.64937  1.0000
  C   C40       1.0  0.0071  0.10746999999999997  0.56233  1.0000
  C   C41       1.0  0.57665  0.61603  0.69624  1.0000
  C   C42       1.0  0.43423  0.7195499999999999  0.65077  1.0000
  C   C43       1.0  0.66653  0.70835  0.61482  1.0000
  C   C44       1.0  0.5076  0.87814  0.53416  1.0000
  C   C45       1.0  0.64956  0.7714899999999999  0.57569  1.0000
  C   C46       1.0  0.55913  0.68241  0.65291  1.0000
  C   C47       1.0  0.41713  0.7823699999999998  0.61146  1.0000
  C   C48       1.0  0.52496  0.8089899999999999  0.57406  1.0000
  C   C49       1.0  0.42833  0.6164  0.20466999999999996  1.0000
  C   C50       1.0  0.44349  0.68853  0.16889  1.0000
  C   C51       1.0  0.57276  0.71466  0.15405  1.0000
  C   C52       1.0  0.58805  0.78103  0.11939  1.0000
  C   C53       1.0  0.47431  0.8222599999999998  0.09979000000000002  1.0000
  C   C54       1.0  0.34492999999999996  0.79654  0.11504  1.0000
  C   C55       1.0  0.32962  0.72969  0.14929  1.0000
  C   C56       1.0  0.49257999999999996  0.8931499999999998  0.06257  1.0000
  C   C57       1.0  0.9232  0.38398999999999994  0.19625  1.0000
  C   C58       1.0  0.06566  0.28062  0.15073  1.0000
  C   C59       1.0  0.83342  0.29179  0.11462  1.0000
  C   C60       1.0  0.9926  0.12220999999999999  0.0339  1.0000
  C   C61       1.0  0.8506  0.22874999999999998  0.07543  1.0000
  C   C62       1.0  0.94068  0.31767  0.15288  1.0000
  C   C63       1.0  0.08294  0.21787  0.11137  1.0000
  C   C64       1.0  0.9751699999999999  0.19126999999999994  0.07389  1.0000
  N   N1        1.0  0.19392999999999996  0.47805  0.10501  1.0000
  N   N2        1.0  0.26008  0.028559999999999995  0.36005  1.0000
  N   N3        1.0  0.3061  0.52192  0.60499  1.0000
  N   N4        1.0  0.23179999999999998  0.97048  0.85922  1.0000
  N   N5        1.0  0.8060699999999998  0.5219599999999998  0.89499  1.0000
  N   N6        1.0  0.73991  0.97144  0.63995  1.0000
  N   N7        1.0  0.6938999999999999  0.47808999999999996  0.39502000000000004  1.0000
  N   N8        1.0  0.7682  0.02952  0.14078  1.0000
  O   O1        1.0  0.0331  0.57507  0.28883  1.0000
  O   O2        1.0  0.10676999999999999  0.52242  0.13303  1.0000
  O   O3        1.0  0.27427  0.44302  0.1454  1.0000
  O   O4        1.0  0.52041  0.40219  0.2664  1.0000
  O   O5        1.0  0.31173  0.42016  0.30509  1.0000
  O   O6        1.0  0.8135199999999999  0.59833  0.27289  1.0000
  O   O7        1.0  0.10655  0.9046899999999999  0.46392  1.0000
  O   O8        1.0  0.17279  0.06052  0.39862999999999993  1.0000
  O   O9        1.0  0.34113  0.9811299999999998  0.38883  1.0000
  O   O10       1.0  0.39389  0.09841  0.49988999999999995  1.0000
  O   O11       1.0  0.60612  0.08789  0.46388999999999997  1.0000
  O   O12       1.0  0.89407  0.93875  0.44153  1.0000
  O   O13       1.0  0.20006999999999994  0.46975  0.0461  1.0000
  O   O14       1.0  0.26626  0.04188999999999998  0.30184  1.0000
  O   O15       1.0  0.46684  0.42492  0.7889100000000001  1.0000
  O   O16       1.0  0.39337  0.4776  0.63301  1.0000
  O   O17       1.0  0.22563  0.5569  0.64534  1.0000
  O   O18       1.0  0.9796799999999999  0.59779  0.7664  1.0000
  O   O19       1.0  0.18841  0.57984  0.80506  1.0000
  O   O20       1.0  0.68637  0.4015799999999999  0.77294  1.0000
  O   O21       1.0  0.39375  0.09466999999999998  0.96376  1.0000
  O   O22       1.0  0.32251  0.93985  0.89675  1.0000
  O   O23       1.0  0.14743  0.01512  0.8891500000000001  1.0000
  O   O24       1.0  0.10585999999999998  0.90138  0.00016  1.0000
  O   O25       1.0  0.89358  0.9116499999999998  0.9641  1.0000
  O   O26       1.0  0.60664  0.061  0.9416699999999999  1.0000
  O   O27       1.0  0.29995  0.53024  0.54608  1.0000
  O   O28       1.0  0.22597  0.9582699999999998  0.80084  1.0000
  O   O29       1.0  0.9668899999999999  0.4249399999999999  0.71118  1.0000
  O   O30       1.0  0.8932299999999999  0.47758999999999996  0.8669699999999999  1.0000
  O   O31       1.0  0.7257299999999999  0.5569799999999999  0.8546  1.0000
  O   O32       1.0  0.47958999999999996  0.59782  0.7336  1.0000
  O   O33       1.0  0.6882699999999999  0.57985  0.69491  1.0000
  O   O34       1.0  0.18648  0.40167  0.72711  1.0000
  O   O35       1.0  0.89345  0.09532  0.53608  1.0000
  O   O36       1.0  0.82721  0.9394799999999999  0.60137  1.0000
  O   O37       1.0  0.6588699999999998  0.018869999999999994  0.61117  1.0000
  O   O38       1.0  0.60611  0.9015899999999999  0.50011  1.0000
  O   O39       1.0  0.39388  0.91211  0.53611  1.0000
  O   O40       1.0  0.10593  0.06125999999999999  0.55847  1.0000
  O   O41       1.0  0.79993  0.53025  0.9539  1.0000
  O   O42       1.0  0.73374  0.95812  0.69816  1.0000
  O   O43       1.0  0.53316  0.57509  0.2111  1.0000
  O   O44       1.0  0.60663  0.5224099999999998  0.36699  1.0000
  O   O45       1.0  0.77437  0.44311  0.35466  1.0000
  O   O46       1.0  0.020320000000000005  0.4022199999999999  0.23360000000000003  1.0000
  O   O47       1.0  0.8115899999999999  0.42017  0.19494  1.0000
  O   O48       1.0  0.31363  0.59843  0.22706  1.0000
  O   O49       1.0  0.6062499999999998  0.90534  0.03624  1.0000
  O   O50       1.0  0.67749  0.060149999999999995  0.10325  1.0000
  O   O51       1.0  0.85257  0.9848899999999999  0.11085  1.0000
  O   O52       1.0  0.8941399999999999  0.09863  0.99984  1.0000
  O   O53       1.0  0.10642  0.08836  0.0359  1.0000
  O   O54       1.0  0.39336  0.939  0.05833  1.0000
  O   O55       1.0  0.70004  0.46976999999999997  0.45392  1.0000
  O   O56       1.0  0.77403  0.041739999999999985  0.19916  1.0000
