data_image0
_chemical_formula_structural       Mn6H44C84O32
_chemical_formula_sum              "Mn6 H44 C84 O32"
_cell_length_a       9.38129
_cell_length_b       17.72815
_cell_length_c       17.728180000000002
_cell_angle_alpha    76.42517000000001
_cell_angle_beta     76.085
_cell_angle_gamma    76.08498

_symmetry_space_group_name_H-M    'P 1'
_symmetry_Int_Tables_number       1

loop_
  _symmetry_equiv_pos_as_xyz
  'x,y,z'

loop_
  _atom_site_type_symbol
  _atom_site_label
  _atom_site_symmetry_multiplicity
  _atom_site_fract_x
  _atom_site_fract_y
  _atom_site_fract_z
  _atom_site_occupancy
  Mn  Mn1       1.0  0.07286  0.32585  0.19545  1.0000
  Mn  Mn2       1.0  0.9998300000000001  0.49997  7.000000000000002e-05  1.0000
  Mn  Mn3       1.0  0.57286  0.19545  0.32585000000000003  1.0000
  Mn  Mn4       1.0  0.49987000000000004  4.9999999999990184e-05  0.4999700000000001  1.0000
  Mn  Mn5       1.0  0.42713000000000007  0.80456  0.67414  1.0000
  Mn  Mn6       1.0  0.9271299999999998  0.67414  0.80456  1.0000
  H   H1        1.0  0.06613999999999999  0.66693  0.11679  1.0000
  H   H2        1.0  0.9625200000000002  0.03278  0.21865  1.0000
  H   H3        1.0  0.8092000000000003  0.77118  0.30074  1.0000
  H   H4        1.0  0.34173  0.11506999999999999  0.63755  1.0000
  H   H5        1.0  0.58372  0.32079  0.47761000000000003  1.0000
  H   H6        1.0  0.15824999999999992  0.36246000000000006  0.88493  1.0000
  H   H7        1.0  0.8032300000000001  0.64935  0.4286  1.0000
  H   H8        1.0  0.3092  0.30073000000000005  0.77119  1.0000
  H   H9        1.0  0.19078999999999982  0.22881000000000004  0.6992700000000002  1.0000
  H   H10       1.0  0.9285  0.28385  0.65729  1.0000
  H   H11       1.0  0.30322999999999983  0.42860000000000004  0.64935  1.0000
  H   H12       1.0  0.03746000000000001  0.96722  0.78135  1.0000
  H   H13       1.0  0.32768  0.27343  0.46568  1.0000
  H   H14       1.0  0.12435999999999987  0.91584  0.16293000000000005  1.0000
  H   H15       1.0  0.37562999999999996  0.8370700000000001  0.08417  1.0000
  H   H16       1.0  0.91627  0.52239  0.67922  1.0000
  H   H17       1.0  0.6243499999999998  0.16293  0.91584  1.0000
  H   H18       1.0  0.67231  0.72656  0.53432  1.0000
  H   H19       1.0  0.6945499999999999  0.53404  0.57862  1.0000
  H   H20       1.0  0.4162699999999998  0.67922  0.52239  1.0000
  H   H21       1.0  0.8756300000000001  0.08415999999999994  0.8370700000000001  1.0000
  H   H22       1.0  0.9338500000000002  0.33306  0.88321  1.0000
  H   H23       1.0  0.07147999999999996  0.7161500000000002  0.34271  1.0000
  H   H24       1.0  0.56614  0.11679000000000002  0.66693  1.0000
  H   H25       1.0  0.4368  0.36057000000000006  0.34304  1.0000
  H   H26       1.0  0.8417399999999999  0.6375500000000002  0.11507  1.0000
  H   H27       1.0  0.1945500000000001  0.57862  0.53404  1.0000
  H   H28       1.0  0.53745  0.78135  0.96723  1.0000
  H   H29       1.0  0.57148  0.34271  0.71615  1.0000
  H   H30       1.0  0.8276800000000001  0.46568  0.27344  1.0000
  H   H31       1.0  0.4284999999999997  0.6572900000000004  0.28385  1.0000
  H   H32       1.0  0.5631899999999999  0.63943  0.65697  1.0000
  H   H33       1.0  0.6907899999999998  0.6992700000000001  0.22882  1.0000
  H   H34       1.0  0.43384999999999996  0.8832100000000002  0.33307  1.0000
  H   H35       1.0  0.6967600000000002  0.5714  0.35065  1.0000
  H   H36       1.0  0.3054399999999999  0.46596000000000004  0.42138  1.0000
  H   H37       1.0  0.80544  0.4213799999999999  0.46596  1.0000
  H   H38       1.0  0.17230999999999996  0.53431  0.7265700000000003  1.0000
  H   H39       1.0  0.08371999999999996  0.47761000000000003  0.32079  1.0000
  H   H40       1.0  0.06319000000000001  0.65696  0.63943  1.0000
  H   H41       1.0  0.6582399999999999  0.8849299999999999  0.36246  1.0000
  H   H42       1.0  0.46252000000000004  0.21865  0.03278  1.0000
  H   H43       1.0  0.9368  0.34303  0.36057  1.0000
  H   H44       1.0  0.19676  0.35065  0.5714  1.0000
  C   C1        1.0  0.36004999999999987  0.4744500000000001  0.6518  1.0000
  C   C2        1.0  0.58047  0.53486  0.61132  1.0000
  C   C3        1.0  0.7871400000000001  0.69502  0.53367  1.0000
  C   C4        1.0  0.22006000000000012  0.25533  0.34347  1.0000
  C   C5        1.0  0.42496  0.65993  0.40585  1.0000
  C   C6        1.0  0.9925099999999999  0.38926000000000016  0.525  1.0000
  C   C7        1.0  0.49378  0.40648  0.34498  1.0000
  C   C8        1.0  0.2990899999999999  0.9636400000000002  0.6772100000000001  1.0000
  C   C9        1.0  0.52095  0.20566  0.91053  1.0000
  C   C10       1.0  0.92867  0.32585  0.69303  1.0000
  C   C11       1.0  0.4207999999999998  0.83579  0.49306000000000005  1.0000
  C   C12       1.0  0.14078000000000002  0.30232999999999993  0.40629  1.0000
  C   C13       1.0  0.27993  0.65653  0.74467  1.0000
  C   C14       1.0  0.5750299999999999  0.34007  0.59415  1.0000
  C   C15       1.0  0.97904  0.08946999999999998  0.79434  1.0000
  C   C16       1.0  0.7128500000000003  0.46633  0.30498  1.0000
  C   C17       1.0  0.85921  0.69766  0.59371  1.0000
  C   C18       1.0  0.4223799999999998  0.7868600000000002  0.43423  1.0000
  C   C19       1.0  0.5659  0.22663000000000003  0.69923  1.0000
  C   C20       1.0  0.007479999999999997  0.61074  0.47501000000000004  1.0000
  C   C21       1.0  0.08046999999999985  0.61131  0.5348600000000002  1.0000
  C   C22       1.0  0.07131999999999997  0.67415  0.30697  1.0000
  C   C23       1.0  0.13993999999999998  0.3482  0.52555  1.0000
  C   C24       1.0  0.50748  0.47500000000000003  0.61074  1.0000
  C   C25       1.0  0.0775999999999999  0.5657700000000001  0.21314  1.0000
  C   C26       1.0  0.5239099999999999  0.7715200000000001  0.16272  1.0000
  C   C27       1.0  0.15507  0.1723  0.71555  1.0000
  C   C28       1.0  0.43408999999999964  0.7733600000000003  0.30077000000000004  1.0000
  C   C29       1.0  0.35921  0.59371  0.69766  1.0000
  C   C30       1.0  0.5776  0.21314000000000002  0.56577  1.0000
  C   C31       1.0  0.06938000000000001  0.64607  0.17914  1.0000
  C   C32       1.0  0.06590000000000001  0.69923  0.22664  1.0000
  C   C33       1.0  0.7008900000000001  0.03636999999999999  0.32278  1.0000
  C   C34       1.0  0.4925099999999999  0.52499  0.3892600000000001  1.0000
  C   C35       1.0  0.84491  0.8277  0.28446  1.0000
  C   C36       1.0  0.47903000000000007  0.79434  0.08947  1.0000
  C   C37       1.0  0.8004800000000001  0.96606  0.29424  1.0000
  C   C38       1.0  0.9340900000000001  0.30077  0.77337  1.0000
  C   C39       1.0  0.9937799999999998  0.34498  0.4064800000000001  1.0000
  C   C40       1.0  0.50621  0.5935199999999999  0.6550200000000002  1.0000
  C   C41       1.0  0.020950000000000024  0.91053  0.20566  1.0000
  C   C42       1.0  0.023909999999999976  0.16271  0.77152  1.0000
  C   C43       1.0  0.64078  0.40629  0.30234  1.0000
  C   C44       1.0  0.4195199999999999  0.46514000000000005  0.38869  1.0000
  C   C45       1.0  0.7990800000000002  0.67721  0.96364  1.0000
  C   C46       1.0  0.5792099999999999  0.29403  0.5396  1.0000
  C   C47       1.0  0.43059999999999987  0.8208600000000003  0.35393  1.0000
  C   C48       1.0  0.24027000000000007  0.10833999999999999  0.68154  1.0000
  C   C49       1.0  0.42077999999999993  0.7059700000000001  0.4604  1.0000
  C   C50       1.0  0.9207900000000001  0.49306  0.8358  1.0000
  C   C51       1.0  0.7200599999999999  0.34347  0.25533  1.0000
  C   C52       1.0  0.6994900000000001  0.70576  0.03395  1.0000
  C   C53       1.0  0.74027  0.6815400000000001  0.10834000000000003  1.0000
  C   C54       1.0  0.92238  0.43423000000000006  0.78686  1.0000
  C   C55       1.0  0.86005  0.6518000000000002  0.47446000000000005  1.0000
  C   C56       1.0  0.9760700000000001  0.83728  0.22848  1.0000
  C   C57       1.0  0.07917  0.50693  0.16422  1.0000
  C   C58       1.0  0.7799299999999998  0.7446700000000002  0.6565300000000001  1.0000
  C   C59       1.0  0.9195200000000001  0.3886800000000001  0.46514  1.0000
  C   C60       1.0  0.6550699999999999  0.7155400000000002  0.17231  1.0000
  C   C61       1.0  0.57917  0.16421  0.50694  1.0000
  C   C62       1.0  0.19949  0.03395000000000001  0.70575  1.0000
  C   C63       1.0  0.006210000000000076  0.65502  0.59352  1.0000
  C   C64       1.0  0.42866999999999994  0.69303  0.32585000000000003  1.0000
  C   C65       1.0  0.07502999999999992  0.5941500000000002  0.34007  1.0000
  C   C66       1.0  0.7597  0.89166  0.31846  1.0000
  C   C67       1.0  0.34492  0.28446  0.8277  1.0000
  C   C68       1.0  0.9249599999999998  0.40584999999999993  0.65993  1.0000
  C   C69       1.0  0.06833000000000002  0.025089999999999987  0.76272  1.0000
  C   C70       1.0  0.21284999999999996  0.30497000000000013  0.46634  1.0000
  C   C71       1.0  0.4760700000000001  0.22848  0.83729  1.0000
  C   C72       1.0  0.93165  0.97491  0.23728  1.0000
  C   C73       1.0  0.9207799999999999  0.46038999999999997  0.70597  1.0000
  C   C74       1.0  0.25970999999999994  0.31846  0.89166  1.0000
  C   C75       1.0  0.07921  0.5396  0.2940300000000001  1.0000
  C   C76       1.0  0.57132  0.3069700000000001  0.67415  1.0000
  C   C77       1.0  0.20089  0.32278  0.03637  1.0000
  C   C78       1.0  0.6399399999999998  0.52554  0.3482  1.0000
  C   C79       1.0  0.28714  0.53366  0.69503  1.0000
  C   C80       1.0  0.5683199999999998  0.7627300000000002  0.02509  1.0000
  C   C81       1.0  0.9306099999999998  0.35393  0.82086  1.0000
  C   C82       1.0  0.43165999999999993  0.23727  0.9749100000000002  1.0000
  C   C83       1.0  0.30048  0.29423999999999995  0.9660600000000001  1.0000
  C   C84       1.0  0.56938  0.17914  0.6460700000000001  1.0000
  O   O1        1.0  0.6073000000000001  0.19709  0.43434  1.0000
  O   O2        1.0  0.8999099999999998  0.61392  0.97074  1.0000
  O   O3        1.0  0.60004  0.029260000000000005  0.38605  1.0000
  O   O4        1.0  0.08441999999999986  0.5645600000000001  0.41906  1.0000
  O   O5        1.0  0.55024  0.09497  0.5339  1.0000
  O   O6        1.0  0.14894000000000004  0.6509400000000001  0.78504  1.0000
  O   O7        1.0  0.21539  0.28042  0.10433  1.0000
  O   O8        1.0  0.4497399999999997  0.90503  0.4661  1.0000
  O   O9        1.0  0.56484  0.18973  0.77762  1.0000
  O   O10       1.0  0.15611000000000003  0.25496  0.28779  1.0000
  O   O11       1.0  0.5844200000000002  0.41906  0.56456  1.0000
  O   O12       1.0  0.8926700000000001  0.56565  0.8029100000000002  1.0000
  O   O13       1.0  0.85104  0.34906  0.21496000000000007  1.0000
  O   O14       1.0  0.93514  0.22238000000000002  0.81027  1.0000
  O   O15       1.0  0.71539  0.10433000000000002  0.28042  1.0000
  O   O16       1.0  0.43514000000000036  0.81027  0.22238  1.0000
  O   O17       1.0  0.65611  0.28779  0.25496  1.0000
  O   O18       1.0  0.2846099999999999  0.8956800000000004  0.71958  1.0000
  O   O19       1.0  0.9155699999999999  0.43543000000000004  0.58094  1.0000
  O   O20       1.0  0.78461  0.71958  0.89568  1.0000
  O   O21       1.0  0.06484000000000005  0.77762  0.18973  1.0000
  O   O22       1.0  0.3438799999999999  0.7122100000000002  0.7450300000000002  1.0000
  O   O23       1.0  0.10731  0.43434  0.19709  1.0000
  O   O24       1.0  0.6489399999999999  0.7850300000000001  0.65094  1.0000
  O   O25       1.0  0.10004000000000002  0.38605  0.02926  1.0000
  O   O26       1.0  0.35105  0.21496000000000007  0.34907  1.0000
  O   O27       1.0  0.94973  0.4661000000000001  0.90504  1.0000
  O   O28       1.0  0.4155699999999999  0.5809400000000001  0.43544  1.0000
  O   O29       1.0  0.3999200000000001  0.97073  0.61393  1.0000
  O   O30       1.0  0.05021999999999995  0.5339000000000002  0.09498  1.0000
  O   O31       1.0  0.39266  0.8029100000000001  0.56566  1.0000
  O   O32       1.0  0.84388  0.74503  0.7122100000000001  1.0000
