data_image0
_chemical_formula_structural       Ni4H56C96N16O32
_chemical_formula_sum              "Ni4 H56 C96 N16 O32"
_cell_length_a       7.45175
_cell_length_b       15.48888
_cell_length_c       26.856680000000004
_cell_angle_alpha    89.99955
_cell_angle_beta     90.0
_cell_angle_gamma    90.20212999999998

_space_group_name_H-M_alt    "P 1"
_space_group_IT_number       1

loop_
  _space_group_symop_operation_xyz
  'x, y, z'

loop_
  _atom_site_type_symbol
  _atom_site_label
  _atom_site_symmetry_multiplicity
  _atom_site_fract_x
  _atom_site_fract_y
  _atom_site_fract_z
  _atom_site_occupancy
  Ni  Ni1       1.0  0.4799499999999999  0.6531099999999997  0.69118  1.0000
  Ni  Ni2       1.0  0.020039999999999995  0.34688999999999987  0.19119  1.0000
  Ni  Ni3       1.0  0.52135  0.15232999999999994  0.8094800000000001  1.0000
  Ni  Ni4       1.0  0.97865  0.84766  0.30948  1.0000
  H   H1        1.0  0.44485  0.75901  0.78234  1.0000
  H   H2        1.0  0.24794  0.77473  0.63842  1.0000
  H   H3        1.0  0.241  0.8760699999999998  0.81187  1.0000
  H   H4        1.0  0.02838  0.8897799999999998  0.66217  1.0000
  H   H5        1.0  0.76331  0.8972499999999998  0.71172  1.0000
  H   H6        1.0  0.15112  0.024439999999999993  0.80727  1.0000
  H   H7        1.0  0.53625  0.00529  0.74129  1.0000
  H   H8        1.0  0.9090099999999998  0.12552  0.83242  1.0000
  H   H9        1.0  0.74541  0.4679099999999999  0.57397  1.0000
  H   H10       1.0  0.76336  0.4029099999999999  0.48924  1.0000
  H   H11       1.0  0.26496  0.60161  0.53107  1.0000
  H   H12       1.0  0.4210499999999999  0.30053  0.31543  1.0000
  H   H13       1.0  0.81839  0.49752999999999986  0.41118000000000005  1.0000
  H   H14       1.0  0.9164899999999998  0.4396599999999999  0.32981  1.0000
  H   H15       1.0  0.05515  0.24098  0.28234  1.0000
  H   H16       1.0  0.25206  0.22526  0.13842  1.0000
  H   H17       1.0  0.259  0.12391999999999997  0.31187  1.0000
  H   H18       1.0  0.4716199999999999  0.11021  0.16217000000000004  1.0000
  H   H19       1.0  0.73669  0.10274  0.21172  1.0000
  H   H20       1.0  0.34888  0.97556  0.30727  1.0000
  H   H21       1.0  0.96375  0.9946999999999998  0.24129  1.0000
  H   H22       1.0  0.59099  0.87447  0.33242  1.0000
  H   H23       1.0  0.75459  0.53209  0.07397  1.0000
  H   H24       1.0  0.73663  0.5970799999999998  0.98924  1.0000
  H   H25       1.0  0.23504  0.3983799999999999  0.03107  1.0000
  H   H26       1.0  0.07894  0.69946  0.81544  1.0000
  H   H27       1.0  0.6816  0.50246  0.91118  1.0000
  H   H28       1.0  0.5835  0.5603399999999997  0.82981  1.0000
  H   H29       1.0  0.55397  0.2584499999999999  0.7175600000000001  1.0000
  H   H30       1.0  0.75122  0.27442  0.8615  1.0000
  H   H31       1.0  0.7587599999999998  0.3758899999999999  0.68809  1.0000
  H   H32       1.0  0.9720499999999999  0.3896499999999999  0.83774  1.0000
  H   H33       1.0  0.2369  0.39734  0.7882  1.0000
  H   H34       1.0  0.8498099999999997  0.5241499999999998  0.6928  1.0000
  H   H35       1.0  0.46448  0.50613  0.75882  1.0000
  H   H36       1.0  0.09247  0.6257499999999998  0.66777  1.0000
  H   H37       1.0  0.25514  0.96744  0.92624  1.0000
  H   H38       1.0  0.23542  0.90226  0.01098  1.0000
  H   H39       1.0  0.73611  0.10159999999999997  0.96937  1.0000
  H   H40       1.0  0.57626  0.8003199999999998  0.18492  1.0000
  H   H41       1.0  0.18131  0.99733  0.08915000000000001  1.0000
  H   H42       1.0  0.08227  0.93956  0.17062  1.0000
  H   H43       1.0  0.94603  0.74155  0.21756  1.0000
  H   H44       1.0  0.74877  0.7255699999999998  0.3615  1.0000
  H   H45       1.0  0.74124  0.62411  0.18809  1.0000
  H   H46       1.0  0.52795  0.6103499999999997  0.33774  1.0000
  H   H47       1.0  0.2631  0.6026599999999998  0.2882  1.0000
  H   H48       1.0  0.65018  0.4758499999999999  0.19279  1.0000
  H   H49       1.0  0.03552  0.4938599999999999  0.25882  1.0000
  H   H50       1.0  0.40753  0.3742499999999999  0.16777  1.0000
  H   H51       1.0  0.24485  0.03255  0.42624  1.0000
  H   H52       1.0  0.26458  0.09773999999999997  0.51098  1.0000
  H   H53       1.0  0.76389  0.89839  0.46937000000000006  1.0000
  H   H54       1.0  0.92374  0.19968  0.68492  1.0000
  H   H55       1.0  0.31869  0.002669999999999999  0.58915  1.0000
  H   H56       1.0  0.41773  0.06043  0.67062  1.0000
  C   C1        1.0  0.35315  0.7912999999999998  0.75702  1.0000
  C   C2        1.0  0.23981  0.79924  0.67634  1.0000
  C   C3        1.0  0.23839  0.8560299999999997  0.77303  1.0000
  C   C4        1.0  0.11866999999999997  0.8627699999999998  0.68992  1.0000
  C   C5        1.0  0.1138  0.8910499999999998  0.73954  1.0000
  C   C6        1.0  0.97744  0.9529799999999999  0.7563800000000002  1.0000
  C   C7        1.0  0.80147  0.9478  0.73781  1.0000
  C   C8        1.0  0.01699  0.016939999999999993  0.7917  1.0000
  C   C9        1.0  0.67441  0.00645  0.75433  1.0000
  C   C10       1.0  0.88292  0.07397  0.80591  1.0000
  C   C11       1.0  0.5023  0.58333  0.6075  1.0000
  C   C12       1.0  0.50699  0.54067  0.55782  1.0000
  C   C13       1.0  0.6450399999999998  0.48304999999999987  0.54591  1.0000
  C   C14       1.0  0.65506  0.44701999999999986  0.49849  1.0000
  C   C15       1.0  0.52791  0.46633999999999987  0.46142000000000005  1.0000
  C   C16       1.0  0.38678  0.52182  0.47505000000000003  1.0000
  C   C17       1.0  0.37518  0.55858  0.52224  1.0000
  C   C18       1.0  0.73636  0.3313  0.26748  1.0000
  C   C19       1.0  0.67473  0.36713  0.31687  1.0000
  C   C20       1.0  0.50771  0.34385  0.33634  1.0000
  C   C21       1.0  0.4548  0.3749599999999999  0.38279  1.0000
  C   C22       1.0  0.56393  0.4311099999999999  0.41104  1.0000
  C   C23       1.0  0.73062  0.4542099999999999  0.39041  1.0000
  C   C24       1.0  0.7850499999999999  0.4227299999999999  0.34437  1.0000
  C   C25       1.0  0.14685  0.20869  0.25702  1.0000
  C   C26       1.0  0.26019  0.20075  0.17634000000000002  1.0000
  C   C27       1.0  0.26161  0.14396  0.27303  1.0000
  C   C28       1.0  0.38133  0.13723  0.18992  1.0000
  C   C29       1.0  0.3862  0.10894999999999998  0.23954000000000006  1.0000
  C   C30       1.0  0.52256  0.04702  0.25638  1.0000
  C   C31       1.0  0.69853  0.052189999999999986  0.23781  1.0000
  C   C32       1.0  0.4830099999999999  0.9830599999999998  0.2917  1.0000
  C   C33       1.0  0.8255899999999998  0.9935399999999998  0.25433  1.0000
  C   C34       1.0  0.61708  0.92602  0.30591  1.0000
  C   C35       1.0  0.9977  0.4166699999999999  0.10751  1.0000
  C   C36       1.0  0.99301  0.4593199999999999  0.05782000000000001  1.0000
  C   C37       1.0  0.85496  0.51695  0.04591  1.0000
  C   C38       1.0  0.84493  0.5529699999999997  0.9985  1.0000
  C   C39       1.0  0.97209  0.5336499999999997  0.96142  1.0000
  C   C40       1.0  0.11321  0.4781699999999999  0.97505  1.0000
  C   C41       1.0  0.12482  0.44141999999999987  0.02224  1.0000
  C   C42       1.0  0.7636299999999999  0.6686999999999997  0.76748  1.0000
  C   C43       1.0  0.82526  0.6328699999999998  0.81687  1.0000
  C   C44       1.0  0.99228  0.65614  0.83634  1.0000
  C   C45       1.0  0.04519  0.6250299999999998  0.88279  1.0000
  C   C46       1.0  0.9360599999999998  0.56888  0.91104  1.0000
  C   C47       1.0  0.76937  0.54578  0.89041  1.0000
  C   C48       1.0  0.71494  0.57726  0.84437  1.0000
  C   C49       1.0  0.64608  0.2907399999999999  0.7429  1.0000
  C   C50       1.0  0.75976  0.2988999999999999  0.82358  1.0000
  C   C51       1.0  0.76131  0.35567  0.7269000000000001  1.0000
  C   C52       1.0  0.8814699999999998  0.3625299999999999  0.81  1.0000
  C   C53       1.0  0.8864  0.39075  0.76038  1.0000
  C   C54       1.0  0.02318  0.4528899999999999  0.74359  1.0000
  C   C55       1.0  0.19905  0.4479399999999999  0.7622  1.0000
  C   C56       1.0  0.9838899999999998  0.5168599999999998  0.70837  1.0000
  C   C57       1.0  0.32631  0.50697  0.7458  1.0000
  C   C58       1.0  0.11823999999999998  0.57425  0.69426  1.0000
  C   C59       1.0  0.50017  0.08345999999999998  0.89334  1.0000
  C   C60       1.0  0.49429  0.04018  0.94273  1.0000
  C   C61       1.0  0.35551999999999995  0.98237  0.95439  1.0000
  C   C62       1.0  0.34457  0.94626  0.00175  1.0000
  C   C63       1.0  0.47156  0.9657  0.03892  1.0000
  C   C64       1.0  0.6137199999999998  0.021109999999999993  0.02541  1.0000
  C   C65       1.0  0.6262  0.05804  0.97829  1.0000
  C   C66       1.0  0.26013  0.8312499999999998  0.233  1.0000
  C   C67       1.0  0.32311  0.86703  0.18364  1.0000
  C   C68       1.0  0.48978999999999995  0.84367  0.16412000000000002  1.0000
  C   C69       1.0  0.5426  0.87474  0.11761000000000002  1.0000
  C   C70       1.0  0.43437  0.9308399999999998  0.08935  1.0000
  C   C71       1.0  0.26824  0.9540699999999998  0.11001  1.0000
  C   C72       1.0  0.21349  0.9225999999999998  0.15608  1.0000
  C   C73       1.0  0.85392  0.7092599999999998  0.2429  1.0000
  C   C74       1.0  0.74024  0.7010899999999998  0.32358000000000003  1.0000
  C   C75       1.0  0.73869  0.6443199999999998  0.2269  1.0000
  C   C76       1.0  0.6185199999999997  0.6374699999999998  0.3100000000000001  1.0000
  C   C77       1.0  0.6136  0.60925  0.26038  1.0000
  C   C78       1.0  0.47682  0.5471099999999998  0.24359  1.0000
  C   C79       1.0  0.30095  0.55205  0.2622  1.0000
  C   C80       1.0  0.5161  0.4831299999999999  0.20837  1.0000
  C   C81       1.0  0.17367999999999997  0.4930299999999999  0.24580000000000002  1.0000
  C   C82       1.0  0.38175  0.42575  0.19426  1.0000
  C   C83       1.0  0.99982  0.9165299999999997  0.39334  1.0000
  C   C84       1.0  0.005709999999999996  0.9598099999999998  0.44273  1.0000
  C   C85       1.0  0.14448  0.01762  0.45438  1.0000
  C   C86       1.0  0.15543  0.05373999999999999  0.50175  1.0000
  C   C87       1.0  0.02844  0.0343  0.53892  1.0000
  C   C88       1.0  0.88628  0.9788899999999998  0.52541  1.0000
  C   C89       1.0  0.8738  0.9419499999999997  0.47829000000000005  1.0000
  C   C90       1.0  0.23987  0.16873999999999995  0.7330100000000002  1.0000
  C   C91       1.0  0.17689  0.13296  0.68364  1.0000
  C   C92       1.0  0.01021  0.15632999999999994  0.66412  1.0000
  C   C93       1.0  0.9574  0.12526  0.61761  1.0000
  C   C94       1.0  0.06563  0.06915  0.58935  1.0000
  C   C95       1.0  0.23176  0.04591999999999999  0.61002  1.0000
  C   C96       1.0  0.28651  0.0774  0.65608  1.0000
  N   N1        1.0  0.35277  0.7623599999999998  0.70955  1.0000
  N   N2        1.0  0.71478  0.06916999999999997  0.78748  1.0000
  N   N3        1.0  0.24339  0.54372  0.43951  1.0000
  N   N4        1.0  0.27849  0.3462699999999999  0.40148000000000006  1.0000
  N   N5        1.0  0.14723  0.23762999999999995  0.20955000000000004  1.0000
  N   N6        1.0  0.78521  0.9308299999999998  0.28748  1.0000
  N   N7        1.0  0.25661  0.4562699999999999  0.93951  1.0000
  N   N8        1.0  0.22149999999999997  0.65373  0.90148  1.0000
  N   N9        1.0  0.6466  0.26182  0.79038  1.0000
  N   N10       1.0  0.28624999999999995  0.56973  0.71276  1.0000
  N   N11       1.0  0.7570199999999998  0.04331  0.06088  1.0000
  N   N12       1.0  0.7176  0.8457799999999998  0.09841000000000003  1.0000
  N   N13       1.0  0.8534  0.73818  0.29038  1.0000
  N   N14       1.0  0.21375  0.43025999999999986  0.21276  1.0000
  N   N15       1.0  0.74298  0.9566799999999998  0.56088  1.0000
  N   N16       1.0  0.7824  0.15421999999999994  0.59841  1.0000
  O   O1        1.0  0.39149  0.64513  0.61536  1.0000
  O   O2        1.0  0.60925  0.5584299999999998  0.6418300000000001  1.0000
  O   O3        1.0  0.8897399999999999  0.36428  0.25383  1.0000
  O   O4        1.0  0.64544  0.2766999999999999  0.2447  1.0000
  O   O5        1.0  0.09192  0.55854  0.4568200000000001  1.0000
  O   O6        1.0  0.28137  0.5458499999999997  0.39431000000000005  1.0000
  O   O7        1.0  0.17169  0.31502  0.37086  1.0000
  O   O8        1.0  0.2458  0.3548999999999999  0.44666  1.0000
  O   O9        1.0  0.10851  0.35486999999999996  0.11536000000000002  1.0000
  O   O10       1.0  0.89074  0.4415599999999999  0.14183  1.0000
  O   O11       1.0  0.61026  0.63571  0.75382  1.0000
  O   O12       1.0  0.85456  0.7233  0.7447  1.0000
  O   O13       1.0  0.40808  0.44145  0.95682  1.0000
  O   O14       1.0  0.21862  0.45414  0.89432  1.0000
  O   O15       1.0  0.32831  0.6849799999999998  0.87086  1.0000
  O   O16       1.0  0.25419  0.64509  0.94666  1.0000
  O   O17       1.0  0.60875  0.14678  0.8863200000000001  1.0000
  O   O18       1.0  0.39654  0.057189999999999984  0.85842  1.0000
  O   O19       1.0  0.11032  0.86647  0.24729  1.0000
  O   O20       1.0  0.34648999999999996  0.7746299999999998  0.2553  1.0000
  O   O21       1.0  0.9090099999999998  0.05661999999999998  0.04339  1.0000
  O   O22       1.0  0.71849  0.04768  0.10598  1.0000
  O   O23       1.0  0.82754  0.81721  0.12895  1.0000
  O   O24       1.0  0.74589  0.85182  0.05288000000000001  1.0000
  O   O25       1.0  0.89125  0.85321  0.38632  1.0000
  O   O26       1.0  0.10347  0.9427999999999997  0.35842000000000007  1.0000
  O   O27       1.0  0.38968  0.13351999999999994  0.74729  1.0000
  O   O28       1.0  0.15351  0.22536999999999993  0.7553  1.0000
  O   O29       1.0  0.59098  0.94337  0.54339  1.0000
  O   O30       1.0  0.7814999999999999  0.95231  0.60598  1.0000
  O   O31       1.0  0.67246  0.18277999999999994  0.6289500000000001  1.0000
  O   O32       1.0  0.7541099999999998  0.14816999999999994  0.55288  1.0000
