data_image0
_chemical_formula_structural       Co10P4H64C92N16O36
_chemical_formula_sum              "Co10 P4 H64 C92 N16 O36"
_cell_length_a       9.09603
_cell_length_b       10.451780000000001
_cell_length_c       29.319779999999998
_cell_angle_alpha    88.39316
_cell_angle_beta     90.00592
_cell_angle_gamma    90.11124

_space_group_name_H-M_alt    "P 1"
_space_group_IT_number       1

loop_
  _space_group_symop_operation_xyz
  'x, y, z'

loop_
  _atom_site_type_symbol
  _atom_site_label
  _atom_site_symmetry_multiplicity
  _atom_site_fract_x
  _atom_site_fract_y
  _atom_site_fract_z
  _atom_site_occupancy
  Co  Co1       1.0  0.10532  0.11002  0.78867  1.0000
  Co  Co2       1.0  0.8412  0.42323  0.9025500000000002  1.0000
  Co  Co3       1.0  0.985  0.50882  0.3746100000000001  1.0000
  Co  Co4       1.0  0.81473  0.09799999999999999  0.34575  1.0000
  Co  Co5       1.0  0.07863  0.4063099999999999  0.4609000000000001  1.0000
  Co  Co6       1.0  0.8955600000000001  0.61266  0.28874  1.0000
  Co  Co7       1.0  0.16075  0.92207  0.4019100000000001  1.0000
  Co  Co8       1.0  0.014810000000000002  0.009900000000000003  0.87563  1.0000
  Co  Co9       1.0  0.18563  0.59716  0.84564  1.0000
  Co  Co10      1.0  0.9197000000000001  0.9101200000000002  0.9621  1.0000
  P   P1        1.0  0.8799700000000001  0.80018  0.3749500000000001  1.0000
  P   P2        1.0  0.09185  0.21885000000000002  0.37477  1.0000
  P   P3        1.0  0.12142  0.30019  0.87528  1.0000
  P   P4        1.0  0.90798  0.7205800000000001  0.8750400000000002  1.0000
  H   H1        1.0  0.52483  0.5276  0.46461  1.0000
  H   H2        1.0  0.60902  0.83943  0.3386600000000001  1.0000
  H   H3        1.0  0.4412  0.4979799999999999  0.2864600000000001  1.0000
  H   H4        1.0  0.36646  0.17873000000000003  0.41121  1.0000
  H   H5        1.0  0.79586  0.28019  0.25429  1.0000
  H   H6        1.0  0.49406  0.0192  0.31527  1.0000
  H   H7        1.0  0.34953  0.16417  0.24888  1.0000
  H   H8        1.0  0.63115  0.39987  0.19792  1.0000
  H   H9        1.0  0.44164  0.39848  0.21362  1.0000
  H   H10       1.0  0.71413  0.27673  0.13234  1.0000
  H   H11       1.0  0.39493  0.06837  0.05471  1.0000
  H   H12       1.0  0.20513  0.11431000000000001  0.11179  1.0000
  H   H13       1.0  0.26711  0.24818  0.179  1.0000
  H   H14       1.0  0.79238  0.14821  0.06676  1.0000
  H   H15       1.0  0.66124  0.06213  0.03457  1.0000
  H   H16       1.0  0.8889200000000002  0.24882000000000004  0.98915  1.0000
  H   H17       1.0  0.44509999999999994  0.31529  0.02568  1.0000
  H   H18       1.0  0.5192  0.47118000000000004  0.9509400000000001  1.0000
  H   H19       1.0  0.42383  0.17605  0.76166  1.0000
  H   H20       1.0  0.03732  0.35829999999999995  0.71361  1.0000
  H   H21       1.0  0.28184  0.47886999999999996  0.67395  1.0000
  H   H22       1.0  0.61653  0.3475599999999999  0.73228  1.0000
  H   H23       1.0  0.55873  0.4523  0.68635  1.0000
  H   H24       1.0  0.49528  0.34928  0.60956  1.0000
  H   H25       1.0  0.72279  0.14545  0.71791  1.0000
  H   H26       1.0  0.79687  0.9800500000000001  0.66397  1.0000
  H   H27       1.0  0.70972  0.9921800000000001  0.5829700000000002  1.0000
  H   H28       1.0  0.61045  0.25946  0.5225  1.0000
  H   H29       1.0  0.58247  0.09348999999999999  0.52357  1.0000
  H   H30       1.0  0.40528  0.36417000000000005  0.48665  1.0000
  H   H31       1.0  0.29675  0.04794  0.5731100000000001  1.0000
  H   H32       1.0  0.03933  0.15417000000000003  0.5367  1.0000
  H   H33       1.0  0.47479  0.029379999999999993  0.9654100000000002  1.0000
  H   H34       1.0  0.39236  0.34035  0.83901  1.0000
  H   H35       1.0  0.55984  0.9984  0.78587  1.0000
  H   H36       1.0  0.63263  0.6779099999999999  0.9102700000000002  1.0000
  H   H37       1.0  0.20459  0.7789500000000001  0.75415  1.0000
  H   H38       1.0  0.506  0.5187  0.81503  1.0000
  H   H39       1.0  0.65047  0.66399  0.74881  1.0000
  H   H40       1.0  0.3689  0.89927  0.698  1.0000
  H   H41       1.0  0.55842  0.8984999999999999  0.71362  1.0000
  H   H42       1.0  0.28601  0.77654  0.63224  1.0000
  H   H43       1.0  0.60495  0.56885  0.55463  1.0000
  H   H44       1.0  0.79459  0.6148  0.61185  1.0000
  H   H45       1.0  0.73265  0.74816  0.6791100000000002  1.0000
  H   H46       1.0  0.20743  0.64811  0.56665  1.0000
  H   H47       1.0  0.33805  0.56186  0.53457  1.0000
  H   H48       1.0  0.11126999999999998  0.7486  0.48896  1.0000
  H   H49       1.0  0.55535  0.81521  0.52577  1.0000
  H   H50       1.0  0.48168  0.9710899999999999  0.45086  1.0000
  H   H51       1.0  0.57724  0.67478  0.26175  1.0000
  H   H52       1.0  0.96363  0.85838  0.21352  1.0000
  H   H53       1.0  0.71817  0.9789500000000001  0.17418  1.0000
  H   H54       1.0  0.38422  0.84689  0.2324  1.0000
  H   H55       1.0  0.44265999999999994  0.9519300000000002  0.18657000000000004  1.0000
  H   H56       1.0  0.50492  0.84945  0.10954  1.0000
  H   H57       1.0  0.27718  0.64501  0.21790000000000007  1.0000
  H   H58       1.0  0.20264  0.47961000000000004  0.16399  1.0000
  H   H59       1.0  0.28995  0.49187000000000003  0.08294  1.0000
  H   H60       1.0  0.39074  0.75938  0.02254  1.0000
  H   H61       1.0  0.41629  0.59323  0.02363000000000001  1.0000
  H   H62       1.0  0.59476  0.8627799999999999  0.98689  1.0000
  H   H63       1.0  0.70345  0.54725  0.07329  1.0000
  H   H64       1.0  0.96061  0.65338  0.03708000000000001  1.0000
  C   C1        1.0  0.70686  0.7341  0.39407  1.0000
  C   C2        1.0  0.68663  0.643  0.42997  1.0000
  C   C3        1.0  0.54334  0.59773  0.43727  1.0000
  C   C4        1.0  0.42503  0.63424  0.40911  1.0000
  C   C5        1.0  0.44597  0.72263  0.3726100000000001  1.0000
  C   C6        1.0  0.58736  0.77181  0.3666  1.0000
  C   C7        1.0  0.80419  0.58804  0.4617000000000001  1.0000
  C   C8        1.0  0.27976  0.5736299999999999  0.41643000000000013  1.0000
  C   C9        1.0  0.3346  0.76801  0.33729  1.0000
  C   C10       1.0  0.26481  0.2853  0.35633  1.0000
  C   C11       1.0  0.28291  0.3766300000000001  0.3204100000000001  1.0000
  C   C12       1.0  0.42453  0.42562  0.3132  1.0000
  C   C13       1.0  0.54406  0.38924  0.34078  1.0000
  C   C14       1.0  0.52601  0.29868  0.37683  1.0000
  C   C15       1.0  0.38545  0.24789  0.38345  1.0000
  C   C16       1.0  0.16564  0.42632  0.28757  1.0000
  C   C17       1.0  0.68988  0.44843  0.33271  1.0000
  C   C18       1.0  0.643  0.25431  0.4106300000000001  1.0000
  C   C19       1.0  0.69687  0.22510999999999998  0.26104  1.0000
  C   C20       1.0  0.53701  0.09173  0.29178000000000004  1.0000
  C   C21       1.0  0.46361  0.16241  0.25904  1.0000
  C   C22       1.0  0.53389  0.33901  0.20276  1.0000
  C   C23       1.0  0.49491  0.26856  0.16026  1.0000
  C   C24       1.0  0.60266  0.24035  0.12816  1.0000
  C   C25       1.0  0.56833  0.16731  0.09023  1.0000
  C   C26       1.0  0.42517  0.12061000000000001  0.08495  1.0000
  C   C27       1.0  0.31664  0.14907999999999996  0.11687000000000002  1.0000
  C   C28       1.0  0.35095  0.22352000000000002  0.1542  1.0000
  C   C29       1.0  0.68002  0.1506  0.05308  1.0000
  C   C30       1.0  0.78053  0.29158  0.9895100000000002  1.0000
  C   C31       1.0  0.54796  0.32882  0.0078  1.0000
  C   C32       1.0  0.58638  0.4046  0.9707300000000002  1.0000
  C   C33       1.0  0.34915  0.23769000000000007  0.74262  1.0000
  C   C34       1.0  0.15288  0.3362200000000001  0.71687  1.0000
  C   C35       1.0  0.27221  0.39723  0.69732  1.0000
  C   C36       1.0  0.55037  0.35485000000000005  0.70094  1.0000
  C   C37       1.0  0.60109  0.25667  0.6673  1.0000
  C   C38       1.0  0.55857  0.26647  0.62139  1.0000
  C   C39       1.0  0.68804  0.15314000000000003  0.68234  1.0000
  C   C40       1.0  0.72914  0.05953000000000001  0.65172  1.0000
  C   C41       1.0  0.68124  0.06732000000000002  0.60642  1.0000
  C   C42       1.0  0.59648  0.17147000000000004  0.59068  1.0000
  C   C43       1.0  0.55267  0.18136  0.54095  1.0000
  C   C44       1.0  0.33778  0.29766  0.50631  1.0000
  C   C45       1.0  0.2782  0.12988  0.55048  1.0000
  C   C46       1.0  0.15259  0.18372000000000005  0.53236  1.0000
  C   C47       1.0  0.29456  0.23664  0.89489  1.0000
  C   C48       1.0  0.31403  0.14581999999999998  0.93089  1.0000
  C   C49       1.0  0.45679  0.09992999999999995  0.9381800000000002  1.0000
  C   C50       1.0  0.57533  0.13583000000000003  0.90998  1.0000
  C   C51       1.0  0.555  0.22333  0.87314  1.0000
  C   C52       1.0  0.41398  0.27318000000000003  0.86712  1.0000
  C   C53       1.0  0.19569  0.09084  0.96239  1.0000
  C   C54       1.0  0.72014  0.07567000000000003  0.91805  1.0000
  C   C55       1.0  0.66747  0.2678099999999999  0.83782  1.0000
  C   C56       1.0  0.73484  0.78425  0.8556200000000003  1.0000
  C   C57       1.0  0.71688  0.87553  0.81972  1.0000
  C   C58       1.0  0.57593  0.92535  0.81243  1.0000
  C   C59       1.0  0.4559  0.8889799999999999  0.83985  1.0000
  C   C60       1.0  0.47358000000000006  0.7987100000000001  0.8760000000000002  1.0000
  C   C61       1.0  0.61387  0.74744  0.88266  1.0000
  C   C62       1.0  0.83581  0.92517  0.78759  1.0000
  C   C63       1.0  0.31061  0.94855  0.83126  1.0000
  C   C64       1.0  0.35678  0.75485  0.91003  1.0000
  C   C65       1.0  0.30318  0.72383  0.76089  1.0000
  C   C66       1.0  0.46282  0.59101  0.79161  1.0000
  C   C67       1.0  0.53633  0.66188  0.7589  1.0000
  C   C68       1.0  0.46614999999999995  0.8386900000000002  0.7027600000000003  1.0000
  C   C69       1.0  0.50504  0.7685699999999999  0.6602100000000002  1.0000
  C   C70       1.0  0.39733  0.74027  0.62806  1.0000
  C   C71       1.0  0.4315  0.6672  0.59016  1.0000
  C   C72       1.0  0.5746  0.62081  0.5849000000000002  1.0000
  C   C73       1.0  0.68312  0.64937  0.61688  1.0000
  C   C74       1.0  0.64882  0.72351  0.6542600000000001  1.0000
  C   C75       1.0  0.31978  0.65043  0.55299  1.0000
  C   C76       1.0  0.22006  0.79092  0.48928  1.0000
  C   C77       1.0  0.45275999999999994  0.8284200000000002  0.5077  1.0000
  C   C78       1.0  0.41459  0.90409  0.47059  1.0000
  C   C79       1.0  0.65146  0.7369  0.24258  1.0000
  C   C80       1.0  0.84789  0.83635  0.21678  1.0000
  C   C81       1.0  0.72838  0.8970699999999999  0.19739000000000004  1.0000
  C   C82       1.0  0.45035  0.8543699999999999  0.20105000000000003  1.0000
  C   C83       1.0  0.39902  0.7565399999999999  0.16730000000000006  1.0000
  C   C84       1.0  0.4414699999999999  0.7665099999999999  0.12139  1.0000
  C   C85       1.0  0.31176  0.65289  0.18232  1.0000
  C   C86       1.0  0.27045  0.55921  0.1517  1.0000
  C   C87       1.0  0.31844  0.56705  0.10641  1.0000
  C   C88       1.0  0.40347  0.67133  0.0907  1.0000
  C   C89       1.0  0.44747000000000003  0.68089  0.04098  1.0000
  C   C90       1.0  0.66276  0.79672  0.006490000000000002  1.0000
  C   C91       1.0  0.7219  0.62911  0.050620000000000005  1.0000
  C   C92       1.0  0.84769  0.68338  0.03264  1.0000
  N   N1        1.0  0.68235  0.13195999999999997  0.2929200000000001  1.0000
  N   N2        1.0  0.56581  0.24622  0.23988  1.0000
  N   N3        1.0  0.73137  0.38012  0.95951  1.0000
  N   N4        1.0  0.67235  0.25856  0.01958  1.0000
  N   N5        1.0  0.20139  0.2355  0.7448  1.0000
  N   N6        1.0  0.39533  0.33391  0.71423  1.0000
  N   N7        1.0  0.19006  0.28951  0.505  1.0000
  N   N8        1.0  0.39432  0.2036  0.53369  1.0000
  N   N9        1.0  0.31753  0.63073  0.79277  1.0000
  N   N10       1.0  0.43423  0.7453999999999998  0.7397600000000002  1.0000
  N   N11       1.0  0.26962  0.87938  0.45926  1.0000
  N   N12       1.0  0.32804  0.7580899999999999  0.51941  1.0000
  N   N13       1.0  0.79922  0.73537  0.24464  1.0000
  N   N14       1.0  0.60528  0.8332  0.21430000000000005  1.0000
  N   N15       1.0  0.81052  0.78924  0.00532  1.0000
  N   N16       1.0  0.606  0.70243  0.03375  1.0000
  O   O1        1.0  0.97877  0.8249400000000001  0.41607  1.0000
  O   O2        1.0  0.84626  0.91512  0.34329  1.0000
  O   O3        1.0  0.9483300000000001  0.69212  0.34544  1.0000
  O   O4        1.0  0.91989  0.53429  0.44277  1.0000
  O   O5        1.0  0.78621  0.59006  0.50351  1.0000
  O   O6        1.0  0.2564  0.51322  0.45461  1.0000
  O   O7        1.0  0.18776  0.5836  0.38408  1.0000
  O   O8        1.0  0.25148  0.8645200000000001  0.34717000000000003  1.0000
  O   O9        1.0  0.34252  0.72258  0.29845  1.0000
  O   O10       1.0  0.12515  0.10374  0.40651  1.0000
  O   O11       1.0  0.9957200000000002  0.19554  0.33274  1.0000
  O   O12       1.0  0.02265  0.3258  0.40463000000000005  1.0000
  O   O13       1.0  0.05161  0.48532  0.30516000000000004  1.0000
  O   O14       1.0  0.18493  0.41611  0.24592  1.0000
  O   O15       1.0  0.7116  0.51311  0.29534  1.0000
  O   O16       1.0  0.78533  0.43044  0.3637600000000001  1.0000
  O   O17       1.0  0.72322  0.1559  0.4006  1.0000
  O   O18       1.0  0.64371  0.30497  0.4485800000000001  1.0000
  O   O19       1.0  0.02142  0.32495  0.91604  1.0000
  O   O20       1.0  0.15336  0.41460999999999987  0.8431700000000002  1.0000
  O   O21       1.0  0.058190000000000006  0.18859  0.8462300000000003  1.0000
  O   O22       1.0  0.07859  0.039439999999999996  0.94321  1.0000
  O   O23       1.0  0.21368  0.09035  0.00426  1.0000
  O   O24       1.0  0.74107  0.014590000000000006  0.95643  1.0000
  O   O25       1.0  0.81446  0.08605  0.8866  1.0000
  O   O26       1.0  0.75101  0.36463  0.8474100000000001  1.0000
  O   O27       1.0  0.66016  0.22056999999999993  0.7992800000000002  1.0000
  O   O28       1.0  0.87572  0.60513  0.9066900000000002  1.0000
  O   O29       1.0  0.00754  0.69736  0.83395  1.0000
  O   O30       1.0  0.9709300000000001  0.8312700000000001  0.9047  1.0000
  O   O31       1.0  0.94763  0.98465  0.8064800000000002  1.0000
  O   O32       1.0  0.82133  0.9153200000000001  0.74577  1.0000
  O   O33       1.0  0.28972  0.011449999999999995  0.79326  1.0000
  O   O34       1.0  0.21432  0.9345600000000001  0.8620000000000002  1.0000
  O   O35       1.0  0.27588  0.65631  0.9003600000000003  1.0000
  O   O36       1.0  0.35683  0.8056399999999999  0.9479700000000002  1.0000
