data_image0
_chemical_formula_structural       Cu8H56C104N8O32
_chemical_formula_sum              "Cu8 H56 C104 N8 O32"
_cell_length_a       14.54108
_cell_length_b       14.65979
_cell_length_c       25.89328
_cell_angle_alpha    89.98711000000002
_cell_angle_beta     90.01169
_cell_angle_gamma    107.09064

_symmetry_space_group_name_H-M    'P 1'
_symmetry_Int_Tables_number       1

loop_
  _symmetry_equiv_pos_as_xyz
  'x,y,z'

loop_
  _atom_site_type_symbol
  _atom_site_label
  _atom_site_symmetry_multiplicity
  _atom_site_fract_x
  _atom_site_fract_y
  _atom_site_fract_z
  _atom_site_occupancy
  Cu  Cu1       1.0  0.57551  0.43308  0.79457  1.0000
  Cu  Cu2       1.0  0.4212799999999999  0.97611  0.4797900000000001  1.0000
  Cu  Cu3       1.0  0.9239899999999999  0.56706  0.2945  1.0000
  Cu  Cu4       1.0  0.07944999999999998  0.02362  0.98062  1.0000
  Cu  Cu5       1.0  0.42449  0.56692  0.20543000000000003  1.0000
  Cu  Cu6       1.0  0.57872  0.02389  0.52021  1.0000
  Cu  Cu7       1.0  0.07600999999999998  0.43294  0.7055  1.0000
  Cu  Cu8       1.0  0.92055  0.97639  0.01938  1.0000
  H   H1        1.0  0.74479  0.53716  0.74083  1.0000
  H   H2        1.0  0.7903599999999997  0.6393  0.66147  1.0000
  H   H3        1.0  0.6636699999999999  0.69533  0.6172  1.0000
  H   H4        1.0  0.46343  0.54405  0.73335  1.0000
  H   H5        1.0  0.5687399999999998  0.78778  0.61383  1.0000
  H   H6        1.0  0.2678  0.73046  0.5779300000000002  1.0000
  H   H7        1.0  0.35901  0.53794  0.6752800000000002  1.0000
  H   H8        1.0  0.4244599999999999  0.26155  0.8494400000000001  1.0000
  H   H9        1.0  0.4383199999999999  0.11056  0.8902300000000002  1.0000
  H   H10       1.0  0.5998699999999998  0.08244  0.895  1.0000
  H   H11       1.0  0.71915  0.36496  0.8321500000000001  1.0000
  H   H12       1.0  0.7604599999999998  0.12209  0.9281700000000003  1.0000
  H   H13       1.0  0.03921  0.20331  0.8554800000000002  1.0000
  H   H14       1.0  0.81197  0.29780999999999996  0.79088  1.0000
  H   H15       1.0  0.7552399999999998  0.46313  0.24052000000000007  1.0000
  H   H16       1.0  0.70972  0.36065  0.16134000000000007  1.0000
  H   H17       1.0  0.83636  0.30449  0.11719  1.0000
  H   H18       1.0  0.03667  0.45633  0.23317000000000002  1.0000
  H   H19       1.0  0.93153  0.21202  0.11372000000000002  1.0000
  H   H20       1.0  0.23260999999999996  0.26982  0.07809000000000002  1.0000
  H   H21       1.0  0.14096  0.46221  0.17511000000000004  1.0000
  H   H22       1.0  0.07559  0.73816  0.34945  1.0000
  H   H23       1.0  0.06193  0.88934  0.3901700000000001  1.0000
  H   H24       1.0  0.9003499999999998  0.91747  0.3949400000000001  1.0000
  H   H25       1.0  0.7809  0.63489  0.33225  1.0000
  H   H26       1.0  0.7398899999999999  0.87859  0.4278900000000001  1.0000
  H   H27       1.0  0.46121  0.79663  0.35526000000000013  1.0000
  H   H28       1.0  0.68819  0.70166  0.29094  1.0000
  H   H29       1.0  0.25520999999999994  0.46285  0.25917  1.0000
  H   H30       1.0  0.20964  0.3607  0.33853  1.0000
  H   H31       1.0  0.3363299999999999  0.30466999999999994  0.3828000000000001  1.0000
  H   H32       1.0  0.53657  0.45595  0.26665000000000005  1.0000
  H   H33       1.0  0.43127  0.21222  0.38617000000000007  1.0000
  H   H34       1.0  0.7322099999999998  0.26954  0.42207  1.0000
  H   H35       1.0  0.64099  0.46207  0.32472  1.0000
  H   H36       1.0  0.5755399999999998  0.73845  0.15057  1.0000
  H   H37       1.0  0.56168  0.8894399999999999  0.10977000000000003  1.0000
  H   H38       1.0  0.40012999999999993  0.91756  0.10500000000000002  1.0000
  H   H39       1.0  0.28085  0.63504  0.16785  1.0000
  H   H40       1.0  0.23953999999999995  0.87792  0.07183  1.0000
  H   H41       1.0  0.9607899999999998  0.79669  0.14452000000000004  1.0000
  H   H42       1.0  0.18802999999999995  0.70219  0.20912000000000006  1.0000
  H   H43       1.0  0.24475999999999998  0.53687  0.7594800000000002  1.0000
  H   H44       1.0  0.2902799999999999  0.63935  0.8386600000000002  1.0000
  H   H45       1.0  0.16364  0.69551  0.8828100000000001  1.0000
  H   H46       1.0  0.96333  0.54367  0.7668300000000002  1.0000
  H   H47       1.0  0.06846999999999999  0.78798  0.8862800000000002  1.0000
  H   H48       1.0  0.7673899999999998  0.73018  0.9219100000000002  1.0000
  H   H49       1.0  0.85904  0.53779  0.8248900000000002  1.0000
  H   H50       1.0  0.9244199999999998  0.26184  0.65056  1.0000
  H   H51       1.0  0.9380799999999999  0.11066999999999999  0.6098400000000002  1.0000
  H   H52       1.0  0.09964999999999997  0.08253  0.60506  1.0000
  H   H53       1.0  0.21909999999999993  0.36511  0.6677500000000002  1.0000
  H   H54       1.0  0.26011  0.12141  0.57211  1.0000
  H   H55       1.0  0.5387899999999998  0.20337  0.6447400000000001  1.0000
  H   H56       1.0  0.31181  0.29834  0.7090600000000001  1.0000
  C   C1        1.0  0.69299  0.56363  0.72007  1.0000
  C   C2        1.0  0.7173099999999998  0.62119  0.6764900000000003  1.0000
  C   C3        1.0  0.64667  0.65251  0.65219  1.0000
  C   C4        1.0  0.55257  0.62672  0.6721100000000002  1.0000
  C   C5        1.0  0.5346599999999998  0.56807  0.7161000000000002  1.0000
  C   C6        1.0  0.47496  0.65759  0.64738  1.0000
  C   C7        1.0  0.4956  0.74099  0.61759  1.0000
  C   C8        1.0  0.4219199999999999  0.76662  0.59189  1.0000
  C   C9        1.0  0.32571  0.7111  0.59738  1.0000
  C   C10       1.0  0.30373  0.6304599999999999  0.62923  1.0000
  C   C11       1.0  0.37834  0.60335  0.6527600000000002  1.0000
  C   C12       1.0  0.20038999999999993  0.57403  0.64036  1.0000
  C   C13       1.0  0.44868999999999987  0.85399  0.55883  1.0000
  C   C14       1.0  0.4937099999999999  0.24855  0.85507  1.0000
  C   C15       1.0  0.5024599999999999  0.16443  0.8767700000000003  1.0000
  C   C16       1.0  0.59282  0.14936000000000002  0.8798000000000002  1.0000
  C   C17       1.0  0.67419  0.22018999999999997  0.8618400000000003  1.0000
  C   C18       1.0  0.65915  0.30458  0.84359  1.0000
  C   C19       1.0  0.77304  0.2115  0.86024  1.0000
  C   C20       1.0  0.8067399999999998  0.15884999999999996  0.897  1.0000
  C   C21       1.0  0.9019599999999998  0.15471  0.8951000000000002  1.0000
  C   C22       1.0  0.96485  0.20464  0.85672  1.0000
  C   C23       1.0  0.9320599999999999  0.25731  0.8196700000000002  1.0000
  C   C24       1.0  0.8364599999999998  0.25912  0.8211700000000001  1.0000
  C   C25       1.0  0.93614  0.09801  0.9347500000000001  1.0000
  C   C26       1.0  0.0005599999999999976  0.31415  0.77966  1.0000
  C   C27       1.0  0.8070699999999997  0.43654  0.21988  1.0000
  C   C28       1.0  0.78275  0.37885  0.17636  1.0000
  C   C29       1.0  0.8533399999999999  0.34745  0.15213  1.0000
  C   C30       1.0  0.9474499999999998  0.37336  0.17202000000000006  1.0000
  C   C31       1.0  0.9654  0.43218  0.21595  1.0000
  C   C32       1.0  0.025029999999999965  0.34245999999999993  0.14730000000000001  1.0000
  C   C33       1.0  0.004550000000000003  0.25913  0.11743000000000003  1.0000
  C   C34       1.0  0.07834  0.23373  0.09177  1.0000
  C   C35       1.0  0.17454999999999996  0.28904  0.09746000000000002  1.0000
  C   C36       1.0  0.19634999999999994  0.36955  0.12935000000000002  1.0000
  C   C37       1.0  0.12163999999999997  0.3967  0.15272  1.0000
  C   C38       1.0  0.29979999999999996  0.42536999999999997  0.14059000000000002  1.0000
  C   C39       1.0  0.05220999999999999  0.14671  0.05853000000000001  1.0000
  C   C40       1.0  0.0063899999999999756  0.7512599999999999  0.3550800000000001  1.0000
  C   C41       1.0  0.99774  0.8354099999999999  0.37678  1.0000
  C   C42       1.0  0.9073699999999998  0.8505199999999999  0.3798000000000001  1.0000
  C   C43       1.0  0.8259700000000001  0.7797  0.36186  1.0000
  C   C44       1.0  0.84092  0.69532  0.34362  1.0000
  C   C45       1.0  0.7271499999999997  0.78832  0.36023000000000005  1.0000
  C   C46       1.0  0.6936199999999998  0.8414099999999999  0.39681  1.0000
  C   C47       1.0  0.59852  0.84564  0.39484  1.0000
  C   C48       1.0  0.5355399999999999  0.79531  0.35656000000000004  1.0000
  C   C49       1.0  0.5682799999999998  0.74257  0.3195800000000001  1.0000
  C   C50       1.0  0.6637799999999999  0.74054  0.32117  1.0000
  C   C51       1.0  0.5638699999999999  0.9028399999999999  0.4340500000000001  1.0000
  C   C52       1.0  0.4997699999999999  0.68589  0.27953  1.0000
  C   C53       1.0  0.30701  0.43637  0.27993  1.0000
  C   C54       1.0  0.28269  0.37881  0.32351  1.0000
  C   C55       1.0  0.35333  0.34748999999999997  0.34781  1.0000
  C   C56       1.0  0.44742999999999994  0.37328  0.32789000000000007  1.0000
  C   C57       1.0  0.46534  0.43193  0.2839  1.0000
  C   C58       1.0  0.5250499999999999  0.34242  0.3526200000000001  1.0000
  C   C59       1.0  0.5043999999999998  0.25901  0.38242  1.0000
  C   C60       1.0  0.57808  0.23338  0.4081100000000001  1.0000
  C   C61       1.0  0.6743  0.2889  0.4026200000000001  1.0000
  C   C62       1.0  0.69627  0.36954  0.37077  1.0000
  C   C63       1.0  0.62166  0.39665  0.34724  1.0000
  C   C64       1.0  0.79961  0.42597  0.35964  1.0000
  C   C65       1.0  0.55131  0.14600999999999997  0.4411700000000001  1.0000
  C   C66       1.0  0.50629  0.75145  0.14493000000000003  1.0000
  C   C67       1.0  0.49754  0.83557  0.12323000000000002  1.0000
  C   C68       1.0  0.4071799999999999  0.85065  0.12020000000000003  1.0000
  C   C69       1.0  0.32581  0.77981  0.13816  1.0000
  C   C70       1.0  0.34085  0.69542  0.15641000000000005  1.0000
  C   C71       1.0  0.22695999999999994  0.7885  0.13976  1.0000
  C   C72       1.0  0.19326999999999994  0.84115  0.103  1.0000
  C   C73       1.0  0.09803999999999999  0.84529  0.10490000000000002  1.0000
  C   C74       1.0  0.03514999999999999  0.79536  0.14328  1.0000
  C   C75       1.0  0.06793999999999999  0.7426899999999999  0.18033000000000005  1.0000
  C   C76       1.0  0.16353999999999996  0.74088  0.17883000000000004  1.0000
  C   C77       1.0  0.06386999999999995  0.9019899999999998  0.06525  1.0000
  C   C78       1.0  0.9994399999999999  0.68586  0.22034000000000004  1.0000
  C   C79       1.0  0.19293  0.56346  0.7801200000000003  1.0000
  C   C80       1.0  0.21724999999999994  0.62116  0.82364  1.0000
  C   C81       1.0  0.14665999999999993  0.6525499999999999  0.8478800000000002  1.0000
  C   C82       1.0  0.052549999999999965  0.62664  0.8279800000000002  1.0000
  C   C83       1.0  0.034599999999999964  0.56783  0.7840500000000001  1.0000
  C   C84       1.0  0.9749799999999998  0.65754  0.8527  1.0000
  C   C85       1.0  0.9954599999999998  0.74088  0.8825700000000001  1.0000
  C   C86       1.0  0.9216599999999997  0.7662699999999999  0.90823  1.0000
  C   C87       1.0  0.8254499999999998  0.7109599999999999  0.9025400000000001  1.0000
  C   C88       1.0  0.8036499999999999  0.63045  0.8706500000000003  1.0000
  C   C89       1.0  0.87837  0.6033  0.8472800000000003  1.0000
  C   C90       1.0  0.7001999999999998  0.57463  0.8594100000000002  1.0000
  C   C91       1.0  0.9477899999999999  0.85329  0.94147  1.0000
  C   C92       1.0  0.9936099999999998  0.24874  0.64492  1.0000
  C   C93       1.0  0.002260000000000001  0.16459  0.6232200000000002  1.0000
  C   C94       1.0  0.09262999999999998  0.14948  0.6202  1.0000
  C   C95       1.0  0.17403  0.2203  0.6381400000000003  1.0000
  C   C96       1.0  0.15908  0.30469  0.6563800000000001  1.0000
  C   C97       1.0  0.27285  0.21168  0.6397700000000002  1.0000
  C   C98       1.0  0.30638  0.15859  0.6031900000000001  1.0000
  C   C99       1.0  0.40148  0.15436999999999998  0.60516  1.0000
  C   C100      1.0  0.46446  0.20469  0.64344  1.0000
  C   C101      1.0  0.43172  0.25743  0.6804200000000001  1.0000
  C   C102      1.0  0.3362199999999999  0.25946  0.67883  1.0000
  C   C103      1.0  0.4361299999999999  0.09716  0.56595  1.0000
  C   C104      1.0  0.50023  0.31411  0.7204700000000003  1.0000
  N   N1        1.0  0.6026899999999997  0.53719  0.7392200000000002  1.0000
  N   N2        1.0  0.5719999999999997  0.31804  0.83942  1.0000
  N   N3        1.0  0.8973399999999998  0.46301  0.23907  1.0000
  N   N4        1.0  0.92804  0.68185  0.3394300000000001  1.0000
  N   N5        1.0  0.39731  0.46281  0.26078000000000007  1.0000
  N   N6        1.0  0.428  0.68196  0.16058000000000006  1.0000
  N   N7        1.0  0.10266000000000003  0.53699  0.7609300000000001  1.0000
  N   N8        1.0  0.07196  0.31815  0.6605700000000001  1.0000
  O   O1        1.0  0.1313  0.59673  0.6223600000000002  1.0000
  O   O2        1.0  0.19503999999999996  0.50286  0.67214  1.0000
  O   O3        1.0  0.38582999999999995  0.86536  0.52685  1.0000
  O   O4        1.0  0.53392  0.91081  0.56486  1.0000
  O   O5        1.0  0.87482  0.05384  0.9686600000000001  1.0000
  O   O6        1.0  0.02394  0.09751  0.9320400000000002  1.0000
  O   O7        1.0  0.08811  0.32033  0.7815100000000003  1.0000
  O   O8        1.0  0.9624299999999999  0.3568  0.7448500000000001  1.0000
  O   O9        1.0  0.3682399999999999  0.40204  0.12258000000000002  1.0000
  O   O10       1.0  0.3052399999999999  0.497  0.17209000000000002  1.0000
  O   O11       1.0  0.11678999999999996  0.13393  0.028260000000000007  1.0000
  O   O12       1.0  0.9659199999999998  0.0914  0.06272  1.0000
  O   O13       1.0  0.6241  0.94738  0.46843  1.0000
  O   O14       1.0  0.4761299999999999  0.90308  0.43017  1.0000
  O   O15       1.0  0.41232999999999986  0.68013  0.28125  1.0000
  O   O16       1.0  0.53788  0.64297  0.24487000000000006  1.0000
  O   O17       1.0  0.8687  0.40327  0.37764000000000003  1.0000
  O   O18       1.0  0.80496  0.49714  0.32786000000000004  1.0000
  O   O19       1.0  0.61417  0.13464  0.47316  1.0000
  O   O20       1.0  0.4660799999999999  0.08919  0.43514000000000014  1.0000
  O   O21       1.0  0.12517999999999996  0.94616  0.03134  1.0000
  O   O22       1.0  0.9760599999999998  0.90249  0.06796000000000002  1.0000
  O   O23       1.0  0.9118899999999998  0.67967  0.21849000000000002  1.0000
  O   O24       1.0  0.037569999999999985  0.64321  0.25515000000000004  1.0000
  O   O25       1.0  0.63176  0.59797  0.8774200000000001  1.0000
  O   O26       1.0  0.69477  0.503  0.8279100000000001  1.0000
  O   O27       1.0  0.88321  0.8660699999999999  0.9717400000000003  1.0000
  O   O28       1.0  0.03407999999999999  0.90861  0.93728  1.0000
  O   O29       1.0  0.37589999999999996  0.05262  0.5315700000000001  1.0000
  O   O30       1.0  0.52387  0.09693  0.56983  1.0000
  O   O31       1.0  0.5876699999999999  0.31987  0.7187600000000001  1.0000
  O   O32       1.0  0.4621299999999999  0.35703000000000007  0.75513  1.0000
