data_image0
_chemical_formula_structural       Cd8H80C80N16O32
_chemical_formula_sum              "Cd8 H80 C80 N16 O32"
_cell_length_a       12.59323
_cell_length_b       12.59558
_cell_length_c       19.52859
_cell_angle_alpha    108.98818
_cell_angle_beta     108.91321
_cell_angle_gamma    89.71291999999998

_space_group_name_H-M_alt    "P 1"
_space_group_IT_number       1

loop_
  _space_group_symop_operation_xyz
  'x, y, z'

loop_
  _atom_site_type_symbol
  _atom_site_label
  _atom_site_symmetry_multiplicity
  _atom_site_fract_x
  _atom_site_fract_y
  _atom_site_fract_z
  _atom_site_occupancy
  Cd  Cd1       1.0  0.06865999999999993  0.2963799999999999  0.4917599999999999  1.0000
  Cd  Cd2       1.0  0.42161  0.19309000000000004  0.49153  1.0000
  Cd  Cd3       1.0  0.7003  0.57828  0.50759  1.0000
  Cd  Cd4       1.0  0.8077799999999998  0.92924  0.50693  1.0000
  Cd  Cd5       1.0  0.6792999999999999  0.05689  0.007649999999999999  1.0000
  Cd  Cd6       1.0  0.3293999999999999  0.95396  0.0081  1.0000
  Cd  Cd7       1.0  0.046760000000000045  0.32014000000000004  0.99214  1.0000
  Cd  Cd8       1.0  0.9447299999999998  0.6704200000000002  0.99127  1.0000
  H   H1        1.0  0.7004399999999998  0.10623999999999997  0.40723  1.0000
  H   H2        1.0  0.7395099999999999  0.04999  0.32434  1.0000
  H   H3        1.0  0.71325  0.80879  0.27221  1.0000
  H   H4        1.0  0.84741  0.8811499999999999  0.33456  1.0000
  H   H5        1.0  0.5690199999999999  0.8253200000000002  0.35157  1.0000
  H   H6        1.0  0.56232  0.9725100000000001  0.39514  1.0000
  H   H7        1.0  0.4212  0.76217  0.08172  1.0000
  H   H8        1.0  0.5031299999999997  0.7378500000000001  0.21076  1.0000
  H   H9        1.0  0.53241  0.10023000000000003  0.31415  1.0000
  H   H10       1.0  0.45234999999999986  0.11032  0.18224  1.0000
  H   H11       1.0  0.7072899999999998  0.30048  0.40747  1.0000
  H   H12       1.0  0.5853099999999999  0.27473  0.32481  1.0000
  H   H13       1.0  0.55894  0.46161  0.27287  1.0000
  H   H14       1.0  0.48894  0.45474  0.3369  1.0000
  H   H15       1.0  0.7850599999999999  0.5255400000000002  0.35296  1.0000
  H   H16       1.0  0.8337299999999997  0.42111000000000004  0.39588999999999996  1.0000
  H   H17       1.0  0.66128  0.3217  0.08297  1.0000
  H   H18       1.0  0.7084399999999998  0.47380000000000017  0.21274  1.0000
  H   H19       1.0  0.7825499999999999  0.21249  0.31361  1.0000
  H   H20       1.0  0.7314999999999999  0.07179999999999999  0.18109  1.0000
  H   H21       1.0  0.8920499999999999  0.29014999999999996  0.5921499999999998  1.0000
  H   H22       1.0  0.9478299999999998  0.41223  0.67487  1.0000
  H   H23       1.0  0.18975999999999996  0.43761000000000005  0.7264799999999999  1.0000
  H   H24       1.0  0.11449999999999996  0.5091000000000001  0.66462  1.0000
  H   H25       1.0  0.17313000000000003  0.2132999999999999  0.64811  1.0000
  H   H26       1.0  0.026089999999999985  0.16409  0.60489  1.0000
  H   H27       1.0  0.23710999999999993  0.33891000000000004  0.918  1.0000
  H   H28       1.0  0.26072  0.2907500000000001  0.78873  1.0000
  H   H29       1.0  0.89852  0.21652999999999994  0.68621  1.0000
  H   H30       1.0  0.8892799999999997  0.26859  0.8184  1.0000
  H   H31       1.0  0.69772  0.29907  0.59161  1.0000
  H   H32       1.0  0.7249199999999998  0.26046000000000014  0.67448  1.0000
  H   H33       1.0  0.5352399999999998  0.28503  0.7258499999999998  1.0000
  H   H34       1.0  0.54535  0.1515  0.66247  1.0000
  H   H35       1.0  0.47232  0.43172  0.64736  1.0000
  H   H36       1.0  0.57546  0.4374  0.60361  1.0000
  H   H37       1.0  0.68084  0.5792499999999999  0.9171699999999998  1.0000
  H   H38       1.0  0.5268899999999999  0.4973600000000001  0.78836  1.0000
  H   H39       1.0  0.7846199999999998  0.46751  0.6842  1.0000
  H   H40       1.0  0.92738  0.54768  0.81588  1.0000
  H   H41       1.0  0.048399999999999985  0.9475300000000001  0.09166  1.0000
  H   H42       1.0  0.008429999999999995  0.9742300000000002  0.17418  1.0000
  H   H43       1.0  0.03723999999999998  0.7849900000000001  0.22634  1.0000
  H   H44       1.0  0.9033  0.79685  0.16442  1.0000
  H   H45       1.0  0.18305  0.72385  0.14738  1.0000
  H   H46       1.0  0.18747999999999995  0.82759  0.10387  1.0000
  H   H47       1.0  0.3296  0.92944  0.41692  1.0000
  H   H48       1.0  0.2464  0.77674  0.28759  1.0000
  H   H49       1.0  0.21811999999999998  0.03644999999999999  0.1854  1.0000
  H   H50       1.0  0.3001299999999999  0.17777  0.31756  1.0000
  H   H51       1.0  0.04441999999999999  0.1439  0.09338999999999999  1.0000
  H   H52       1.0  0.16636  0.20142000000000002  0.17608  1.0000
  H   H53       1.0  0.18891999999999998  0.44216  0.22699  1.0000
  H   H54       1.0  0.26035  0.36919  0.16433  1.0000
  H   H55       1.0  0.9638199999999999  0.42343000000000003  0.14847  1.0000
  H   H56       1.0  0.91621  0.27595  0.10489  1.0000
  H   H57       1.0  0.08969  0.48580000000000007  0.41835  1.0000
  H   H58       1.0  0.04218999999999999  0.51055  0.2895  1.0000
  H   H59       1.0  0.9673599999999996  0.14838  0.18549  1.0000
  H   H60       1.0  0.01836999999999993  0.13800999999999997  0.31721999999999995  1.0000
  H   H61       1.0  0.8574899999999998  0.95137  0.90739  1.0000
  H   H62       1.0  0.8004399999999998  0.99145  0.82504  1.0000
  H   H63       1.0  0.5608  0.9642  0.77297  1.0000
  H   H64       1.0  0.6325999999999998  0.09830999999999995  0.83627  1.0000
  H   H65       1.0  0.5773999999999999  0.8189  0.85249  1.0000
  H   H66       1.0  0.7246799999999999  0.81291  0.89584  1.0000
  H   H67       1.0  0.51233  0.67201  0.58276  1.0000
  H   H68       1.0  0.4893999999999999  0.7548700000000003  0.71223  1.0000
  H   H69       1.0  0.85163  0.7807500000000002  0.81404  1.0000
  H   H70       1.0  0.8604099999999998  0.69885  0.6817899999999998  1.0000
  H   H71       1.0  0.05009  0.9563  0.90728  1.0000
  H   H72       1.0  0.0254699999999999  0.8329600000000003  0.8253799999999999  1.0000
  H   H73       1.0  0.2132799999999999  0.8100200000000002  0.7730999999999999  1.0000
  H   H74       1.0  0.20531999999999984  0.73922  0.8363199999999997  1.0000
  H   H75       1.0  0.27431  0.035399999999999994  0.8522  1.0000
  H   H76       1.0  0.16954999999999992  0.08378000000000003  0.89497  1.0000
  H   H77       1.0  0.07094999999999999  0.91037  0.58218  1.0000
  H   H78       1.0  0.22299999999999998  0.9582000000000002  0.7119  1.0000
  H   H79       1.0  0.9613099999999999  0.031009999999999996  0.81284  1.0000
  H   H80       1.0  0.8207499999999999  0.9795099999999999  0.6802699999999999  1.0000
  C   C1        1.0  0.7524199999999999  0.045850000000000043  0.38179  1.0000
  C   C2        1.0  0.8752999999999999  0.09061999999999995  0.43256999999999995  1.0000
  C   C3        1.0  0.7676499999999999  0.8433600000000001  0.3328499999999999  1.0000
  C   C4        1.0  0.7994999999999998  0.74314  0.36195  1.0000
  C   C5        1.0  0.5899199999999998  0.9102900000000002  0.35199  1.0000
  C   C6        1.0  0.45019  0.83502  0.13465  1.0000
  C   C7        1.0  0.4968799999999998  0.8219200000000001  0.20628999999999995  1.0000
  C   C8        1.0  0.5321899999999999  0.9181700000000003  0.27314  1.0000
  C   C9        1.0  0.5141299999999999  0.02345000000000001  0.26403  1.0000
  C   C10       1.0  0.46795999999999993  0.02971  0.19073  1.0000
  C   C11       1.0  0.63015  0.3359500000000001  0.38240999999999997  1.0000
  C   C12       1.0  0.5578999999999998  0.34241  0.43313  1.0000
  C   C13       1.0  0.5666199999999998  0.4894  0.33386  1.0000
  C   C14       1.0  0.5649399999999998  0.61905  0.36213  1.0000
  C   C15       1.0  0.76354  0.4409900000000001  0.35295  1.0000
  C   C16       1.0  0.6854  0.30093  0.1355  1.0000
  C   C17       1.0  0.7102999999999999  0.3849600000000001  0.2075  1.0000
  C   C18       1.0  0.74196  0.35457000000000005  0.2738399999999999  1.0000
  C   C19       1.0  0.7508599999999997  0.23991  0.2639  1.0000
  C   C20       1.0  0.72406  0.16106  0.19027  1.0000
  C   C21       1.0  0.9519199999999999  0.36744000000000004  0.61736  1.0000
  C   C22       1.0  0.9069499999999998  0.43982  0.56666  1.0000
  C   C23       1.0  0.15375000000000003  0.43123  0.66587  1.0000
  C   C24       1.0  0.2528499999999999  0.43514999999999987  0.6359599999999997  1.0000
  C   C25       1.0  0.08818000000000002  0.23472  0.64777  1.0000
  C   C26       1.0  0.16414  0.31439  0.86519  1.0000
  C   C27       1.0  0.17679999999999996  0.2889900000000001  0.79342  1.0000
  C   C28       1.0  0.08039  0.2570300000000001  0.72675  1.0000
  C   C29       1.0  0.97538  0.24835  0.73617  1.0000
  C   C30       1.0  0.9695699999999998  0.27567  0.8096  1.0000
  C   C31       1.0  0.6631799999999999  0.24720000000000006  0.61694  1.0000
  C   C32       1.0  0.6574799999999997  0.12390999999999999  0.56647  1.0000
  C   C33       1.0  0.5092199999999999  0.2317599999999999  0.6649099999999999  1.0000
  C   C34       1.0  0.3797999999999999  0.20086  0.63568  1.0000
  C   C35       1.0  0.5569  0.41018000000000004  0.64684  1.0000
  C   C36       1.0  0.70041  0.5501799999999999  0.8641299999999998  1.0000
  C   C37       1.0  0.61534  0.50341  0.79261  1.0000
  C   C38       1.0  0.64418  0.46780000000000005  0.72559  1.0000
  C   C39       1.0  0.75841  0.48582  0.73445  1.0000
  C   C40       1.0  0.8384099999999998  0.5321999999999999  0.8076499999999998  1.0000
  C   C41       1.0  0.9964399999999998  0.91264  0.1168  1.0000
  C   C42       1.0  0.8733199999999998  0.90627  0.06589  1.0000
  C   C43       1.0  0.9828  0.7596  0.16571  1.0000
  C   C44       1.0  0.9498199999999998  0.6305  0.13595  1.0000
  C   C45       1.0  0.16062999999999994  0.80822  0.14697  1.0000
  C   C46       1.0  0.30071999999999993  0.94971  0.3642  1.0000
  C   C47       1.0  0.25321  0.8653900000000002  0.29245  1.0000
  C   C48       1.0  0.21787  0.8951600000000001  0.22585  1.0000
  C   C49       1.0  0.23651999999999995  0.009530000000000014  0.23531  1.0000
  C   C50       1.0  0.2838399999999999  0.08872  0.30875  1.0000
  C   C51       1.0  0.12103  0.20466  0.11845  1.0000
  C   C52       1.0  0.19337999999999994  0.16054  0.06758  1.0000
  C   C53       1.0  0.18188  0.4068  0.16621  1.0000
  C   C54       1.0  0.18277  0.50628  0.13656  1.0000
  C   C55       1.0  0.98612  0.3386600000000001  0.148  1.0000
  C   C56       1.0  0.06513999999999993  0.4131100000000001  0.3652799999999999  1.0000
  C   C57       1.0  0.04017999999999997  0.4264  0.29375  1.0000
  C   C58       1.0  0.008240000000000004  0.33034  0.22677  1.0000
  C   C59       1.0  0.9991599999999999  0.22502999999999998  0.23566999999999996  1.0000
  C   C60       1.0  0.025890000000000003  0.21859000000000006  0.30888  1.0000
  C   C61       1.0  0.7967899999999999  0.0035099999999998995  0.8824999999999997  1.0000
  C   C62       1.0  0.84023  0.12677999999999998  0.9333699999999999  1.0000
  C   C63       1.0  0.59479  0.018000000000000013  0.8338  1.0000
  C   C64       1.0  0.49391999999999986  0.04845  0.8624  1.0000
  C   C65       1.0  0.6621999999999998  0.8401700000000001  0.85274  1.0000
  C   C66       1.0  0.58551  0.70032  0.63545  1.0000
  C   C67       1.0  0.5731699999999998  0.74765  0.70728  1.0000
  C   C68       1.0  0.6697899999999998  0.78239  0.77379  1.0000
  C   C69       1.0  0.7746499999999998  0.7629699999999999  0.7641899999999998  1.0000
  C   C70       1.0  0.78019  0.71584  0.69068  1.0000
  C   C71       1.0  0.08654999999999996  0.87943  0.88271  1.0000
  C   C72       1.0  0.09485999999999982  0.8075700000000001  0.9340899999999999  1.0000
  C   C73       1.0  0.24016999999999997  0.8173200000000003  0.83393  1.0000
  C   C74       1.0  0.3696  0.8159600000000001  0.86286  1.0000
  C   C75       1.0  0.18989999999999996  0.01345  0.85226  1.0000
  C   C76       1.0  0.05018999999999996  0.93446  0.63476  1.0000
  C   C77       1.0  0.13415  0.9596500000000001  0.70675  1.0000
  C   C78       1.0  0.10356999999999995  0.9910599999999999  0.7730699999999999  1.0000
  C   C79       1.0  0.9888399999999998  0.99944  0.76313  1.0000
  C   C80       1.0  0.91008  0.9725  0.68949  1.0000
  N   N1        1.0  0.71619  0.93317  0.37851  1.0000
  N   N2        1.0  0.4370999999999999  0.9372800000000001  0.12639  1.0000
  N   N3        1.0  0.66375  0.4453700000000001  0.37947  1.0000
  N   N4        1.0  0.69073  0.19015000000000004  0.12640999999999997  1.0000
  N   N5        1.0  0.0648  0.33391  0.62068  1.0000
  N   N6        1.0  0.06217999999999988  0.30933  0.87375  1.0000
  N   N7        1.0  0.55347  0.28382  0.62001  1.0000
  N   N8        1.0  0.8108199999999999  0.56339  0.87217  1.0000
  N   N9        1.0  0.03413999999999998  0.80342  0.12020999999999998  1.0000
  N   N10       1.0  0.31487999999999994  0.06023999999999996  0.3728499999999999  1.0000
  N   N11       1.0  0.08573999999999997  0.31673  0.1212  1.0000
  N   N12       1.0  0.05948999999999997  0.3108700000000001  0.37331  1.0000
  N   N13       1.0  0.68448  0.96649  0.87934  1.0000
  N   N14       1.0  0.6873599999999999  0.6857000000000002  0.62666  1.0000
  N   N15       1.0  0.19535999999999998  0.91413  0.8793  1.0000
  N   N16       1.0  0.9393899999999997  0.93942  0.62568  1.0000
  O   O1        1.0  0.9150699999999998  0.16953  0.41673  1.0000
  O   O2        1.0  0.9264099999999997  0.053610000000000047  0.4857000000000001  1.0000
  O   O3        1.0  0.83072  0.7615000000000001  0.43539  1.0000
  O   O4        1.0  0.79919  0.65129  0.31234  1.0000
  O   O5        1.0  0.5025599999999999  0.24764  0.41769  1.0000
  O   O6        1.0  0.5596399999999999  0.4332500000000001  0.48583  1.0000
  O   O7        1.0  0.60912  0.67568  0.43532  1.0000
  O   O8        1.0  0.5142599999999999  0.6601700000000003  0.31223  1.0000
  O   O9        1.0  0.82909  0.4975600000000001  0.58309  1.0000
  O   O10       1.0  0.9431599999999998  0.43619  0.51298  1.0000
  O   O11       1.0  0.23444999999999994  0.39182  0.56254  1.0000
  O   O12       1.0  0.34385  0.48668  0.68503  1.0000
  O   O13       1.0  0.75263  0.08392  0.5818  1.0000
  O   O14       1.0  0.56668  0.07274  0.51412  1.0000
  O   O15       1.0  0.32333999999999985  0.17474999999999996  0.5626899999999999  1.0000
  O   O16       1.0  0.33873  0.19699000000000005  0.68485  1.0000
  O   O17       1.0  0.83112  2.0000000000001462e-05  0.0829  1.0000
  O   O18       1.0  0.8244799999999999  0.81641  0.01154  1.0000
  O   O19       1.0  0.92031  0.5754500000000001  0.06256  1.0000
  O   O20       1.0  0.9475399999999998  0.5883500000000002  0.18491  1.0000
  O   O21       1.0  0.25355  0.08450000000000002  0.08458  1.0000
  O   O22       1.0  0.18706999999999996  0.19548  0.01297  1.0000
  O   O23       1.0  0.13916999999999996  0.48772  0.06312999999999999  1.0000
  O   O24       1.0  0.23251999999999995  0.59787  0.18601  1.0000
  O   O25       1.0  0.9161299999999998  0.1691500000000001  0.91626  1.0000
  O   O26       1.0  0.8046999999999997  0.17588000000000004  0.9876999999999999  1.0000
  O   O27       1.0  0.51173  0.07930999999999999  0.93581  1.0000
  O   O28       1.0  0.40227  0.04766000000000002  0.81254  1.0000
  O   O29       1.0  0.0027099999999999395  0.74616  0.9164399999999999  1.0000
  O   O30       1.0  0.18443999999999988  0.8148900000000002  0.98918  1.0000
  O   O31       1.0  0.42467999999999995  0.85821  0.93632  1.0000
  O   O32       1.0  0.4119199999999999  0.7671  0.8131799999999999  1.0000
