data_image0
_chemical_formula_structural       Ca16H16C48S16O64
_chemical_formula_sum              "Ca16 H16 C48 S16 O64"
_cell_length_a       13.43819
_cell_length_b       17.947419999999997
_cell_length_c       12.459610000000001
_cell_angle_alpha    90.00361999999998
_cell_angle_beta     90.00736
_cell_angle_gamma    90.43971

_symmetry_space_group_name_H-M    'P 1'
_symmetry_Int_Tables_number       1

loop_
  _symmetry_equiv_pos_as_xyz
  'x,y,z'

loop_
  _atom_site_type_symbol
  _atom_site_label
  _atom_site_symmetry_multiplicity
  _atom_site_fract_x
  _atom_site_fract_y
  _atom_site_fract_z
  _atom_site_occupancy
  Ca  Ca1       1.0  0.41024000000000005  0.55289  0.44634  1.0000
  Ca  Ca2       1.0  0.24301000000000006  0.62359  0.64414  1.0000
  Ca  Ca3       1.0  0.09062  0.05347  0.0518  1.0000
  Ca  Ca4       1.0  0.25938  0.12637  0.85655  1.0000
  Ca  Ca5       1.0  0.58973  0.9471299999999999  0.44630999999999993  1.0000
  Ca  Ca6       1.0  0.75697  0.87642  0.64414  1.0000
  Ca  Ca7       1.0  0.9094  0.44655  0.05181  1.0000
  Ca  Ca8       1.0  0.7406000000000001  0.37364  0.8565199999999997  1.0000
  Ca  Ca9       1.0  0.5897600000000001  0.44711  0.55366  1.0000
  Ca  Ca10      1.0  0.7569900000000003  0.37641  0.35586999999999996  1.0000
  Ca  Ca11      1.0  0.9093800000000002  0.94653  0.9481999999999998  1.0000
  Ca  Ca12      1.0  0.74062  0.87363  0.14346  1.0000
  Ca  Ca13      1.0  0.41027  0.05288  0.55369  1.0000
  Ca  Ca14      1.0  0.24303  0.12358000000000001  0.35586  1.0000
  Ca  Ca15      1.0  0.09060000000000003  0.55345  0.9481899999999999  1.0000
  Ca  Ca16      1.0  0.2594  0.62636  0.14348  1.0000
  H   H1        1.0  0.23807  0.31844  0.7152  1.0000
  H   H2        1.0  0.44119  0.29331  0.3803099999999999  1.0000
  H   H3        1.0  0.26015  0.82009  0.7826999999999998  1.0000
  H   H4        1.0  0.059330000000000015  0.79425  0.11927999999999997  1.0000
  H   H5        1.0  0.7619300000000002  0.18157  0.71519  1.0000
  H   H6        1.0  0.55882  0.20666  0.38038  1.0000
  H   H7        1.0  0.73984  0.6799  0.7827099999999998  1.0000
  H   H8        1.0  0.94067  0.70575  0.11927999999999997  1.0000
  H   H9        1.0  0.7619300000000002  0.68156  0.2848  1.0000
  H   H10       1.0  0.5588100000000001  0.70669  0.61969  1.0000
  H   H11       1.0  0.73985  0.17991  0.21729999999999994  1.0000
  H   H12       1.0  0.9406800000000001  0.20575  0.88072  1.0000
  H   H13       1.0  0.23807  0.81843  0.28481  1.0000
  H   H14       1.0  0.4411800000000001  0.79334  0.61963  1.0000
  H   H15       1.0  0.26016  0.3201  0.21728999999999996  1.0000
  H   H16       1.0  0.059330000000000015  0.29425  0.88072  1.0000
  C   C1        1.0  0.33807  0.37218  0.60351  1.0000
  C   C2        1.0  0.28219  0.31247  0.64248  1.0000
  C   C3        1.0  0.28638  0.24490000000000003  0.58726  1.0000
  C   C4        1.0  0.3506  0.23497  0.4972199999999999  1.0000
  C   C5        1.0  0.3961500000000001  0.29833  0.4523199999999999  1.0000
  C   C6        1.0  0.3913700000000001  0.36794  0.50416  1.0000
  C   C7        1.0  0.16071000000000002  0.87335  0.89445  1.0000
  C   C8        1.0  0.21597  0.81402  0.85543  1.0000
  C   C9        1.0  0.21202  0.74659  0.91115  1.0000
  C   C10       1.0  0.14898  0.7361  0.00233  1.0000
  C   C11       1.0  0.10359000000000003  0.79921  0.04665  1.0000
  C   C12       1.0  0.10818  0.86869  0.9942099999999998  1.0000
  C   C13       1.0  0.6619200000000002  0.12783  0.60349  1.0000
  C   C14       1.0  0.71781  0.18752  0.64249  1.0000
  C   C15       1.0  0.71364  0.25511  0.58734  1.0000
  C   C16       1.0  0.6494800000000001  0.26502  0.49727  1.0000
  C   C17       1.0  0.6038200000000002  0.20169  0.45239999999999997  1.0000
  C   C18       1.0  0.60862  0.13209  0.50416  1.0000
  C   C19       1.0  0.8392800000000001  0.62664  0.89444  1.0000
  C   C20       1.0  0.7840200000000002  0.68598  0.85544  1.0000
  C   C21       1.0  0.78796  0.75342  0.91114  1.0000
  C   C22       1.0  0.8510100000000002  0.7639  0.00232  1.0000
  C   C23       1.0  0.8964  0.70079  0.046639999999999994  1.0000
  C   C24       1.0  0.89181  0.6313  0.9941999999999998  1.0000
  C   C25       1.0  0.66193  0.62782  0.3964899999999999  1.0000
  C   C26       1.0  0.71781  0.68754  0.35752  1.0000
  C   C27       1.0  0.71363  0.7551  0.41274  1.0000
  C   C28       1.0  0.6494100000000002  0.76503  0.50278  1.0000
  C   C29       1.0  0.6038500000000001  0.70167  0.54768  1.0000
  C   C30       1.0  0.6086300000000001  0.63206  0.49584  1.0000
  C   C31       1.0  0.8393  0.12666  0.10555  1.0000
  C   C32       1.0  0.78403  0.18598  0.14457  1.0000
  C   C33       1.0  0.7879800000000002  0.25341  0.08885999999999997  1.0000
  C   C34       1.0  0.8510200000000002  0.2639  0.99767  1.0000
  C   C35       1.0  0.8964100000000002  0.20079  0.95335  1.0000
  C   C36       1.0  0.8918200000000001  0.13131  0.00579  1.0000
  C   C37       1.0  0.33808  0.87217  0.39650999999999986  1.0000
  C   C38       1.0  0.28219  0.81248  0.35752  1.0000
  C   C39       1.0  0.28636  0.74489  0.4126699999999999  1.0000
  C   C40       1.0  0.35052  0.73498  0.50274  1.0000
  C   C41       1.0  0.39618000000000003  0.79831  0.5476  1.0000
  C   C42       1.0  0.39138  0.86791  0.49584  1.0000
  C   C43       1.0  0.16072000000000003  0.37336  0.10555999999999999  1.0000
  C   C44       1.0  0.21598  0.31402  0.14457  1.0000
  C   C45       1.0  0.21205  0.24658  0.08885999999999997  1.0000
  C   C46       1.0  0.14899  0.23609999999999998  0.99768  1.0000
  C   C47       1.0  0.10360000000000003  0.29921  0.95336  1.0000
  C   C48       1.0  0.10819  0.3687  0.0058  1.0000
  S   S1        1.0  0.35862  0.4509699999999999  0.68365  1.0000
  S   S2        1.0  0.22026000000000007  0.16614  0.62806  1.0000
  S   S3        1.0  0.14165  0.95285  0.8155299999999998  1.0000
  S   S4        1.0  0.28042  0.66945  0.87207  1.0000
  S   S5        1.0  0.64142  0.04905  0.68368  1.0000
  S   S6        1.0  0.7797000000000001  0.3339  0.62804  1.0000
  S   S7        1.0  0.8583600000000002  0.54711  0.81554  1.0000
  S   S8        1.0  0.71957  0.83056  0.8720599999999997  1.0000
  S   S9        1.0  0.64138  0.54903  0.31635  1.0000
  S   S10       1.0  0.7797400000000001  0.83386  0.37193999999999994  1.0000
  S   S11       1.0  0.8583600000000002  0.04715  0.18446999999999997  1.0000
  S   S12       1.0  0.7195900000000002  0.33055  0.12794  1.0000
  S   S13       1.0  0.35858  0.9509500000000001  0.31632  1.0000
  S   S14       1.0  0.2203  0.6661  0.37196  1.0000
  S   S15       1.0  0.14164  0.45289  0.18445999999999999  1.0000
  S   S16       1.0  0.28043  0.16944  0.12794  1.0000
  O   O1        1.0  0.32379  0.51683  0.61377  1.0000
  O   O2        1.0  0.4688900000000001  0.45574  0.69733  1.0000
  O   O3        1.0  0.30172  0.44494  0.7826299999999999  1.0000
  O   O4        1.0  0.15640000000000004  0.18581  0.7201  1.0000
  O   O5        1.0  0.16780000000000006  0.13372  0.53382  1.0000
  O   O6        1.0  0.29812000000000005  0.11124  0.6715399999999998  1.0000
  O   O7        1.0  0.43985  0.42711  0.46617  1.0000
  O   O8        1.0  0.36444  0.16632  0.45946999999999993  1.0000
  O   O9        1.0  0.18019000000000004  0.01794  0.88549  1.0000
  O   O10       1.0  0.03137  0.9590300000000002  0.8044199999999999  1.0000
  O   O11       1.0  0.19702  0.9470899999999999  0.71551  1.0000
  O   O12       1.0  0.34344  0.68954  0.77914  1.0000
  O   O13       1.0  0.33346000000000003  0.64063  0.96793  1.0000
  O   O14       1.0  0.20523000000000005  0.611  0.83053  1.0000
  O   O15       1.0  0.060400000000000016  0.92764  0.03213  1.0000
  O   O16       1.0  0.13598  0.66757  0.04178  1.0000
  O   O17       1.0  0.67623  0.9831900000000001  0.61381  1.0000
  O   O18       1.0  0.53114  0.04426  0.6974399999999998  1.0000
  O   O19       1.0  0.69841  0.05504  0.7826  1.0000
  O   O20       1.0  0.84361  0.31423  0.72004  1.0000
  O   O21       1.0  0.8321800000000003  0.36628  0.53381  1.0000
  O   O22       1.0  0.70182  0.38876  0.67159  1.0000
  O   O23       1.0  0.56019  0.07287  0.46623  1.0000
  O   O24       1.0  0.63552  0.33365  0.4594899999999999  1.0000
  O   O25       1.0  0.8198300000000002  0.48205000000000003  0.88553  1.0000
  O   O26       1.0  0.96863  0.54097  0.80441  1.0000
  O   O27       1.0  0.80295  0.55278  0.7155  1.0000
  O   O28       1.0  0.65654  0.81045  0.77914  1.0000
  O   O29       1.0  0.6665400000000002  0.85937  0.96794  1.0000
  O   O30       1.0  0.79475  0.889  0.83054  1.0000
  O   O31       1.0  0.93961  0.57236  0.03211  1.0000
  O   O32       1.0  0.8640200000000001  0.83244  0.04175999999999999  1.0000
  O   O33       1.0  0.6762100000000002  0.48317  0.38623  1.0000
  O   O34       1.0  0.53111  0.54426  0.30268  1.0000
  O   O35       1.0  0.69828  0.55506  0.21737  1.0000
  O   O36       1.0  0.8436000000000002  0.81419  0.2799  1.0000
  O   O37       1.0  0.8322  0.86628  0.46617999999999993  1.0000
  O   O38       1.0  0.7018800000000002  0.88876  0.3284599999999999  1.0000
  O   O39       1.0  0.56015  0.57289  0.53383  1.0000
  O   O40       1.0  0.63557  0.83369  0.54053  1.0000
  O   O41       1.0  0.81981  0.98206  0.11450999999999999  1.0000
  O   O42       1.0  0.96863  0.04097  0.19558  1.0000
  O   O43       1.0  0.80299  0.05291  0.28449  1.0000
  O   O44       1.0  0.6565600000000003  0.31046  0.22086  1.0000
  O   O45       1.0  0.6665400000000002  0.35937  0.03207  1.0000
  O   O46       1.0  0.7947700000000001  0.389  0.16947  1.0000
  O   O47       1.0  0.93961  0.07236  0.9678699999999998  1.0000
  O   O48       1.0  0.8640200000000001  0.33243  0.95822  1.0000
  O   O49       1.0  0.32377000000000006  0.01681  0.3861899999999999  1.0000
  O   O50       1.0  0.46886  0.95574  0.30257  1.0000
  O   O51       1.0  0.30159  0.9449600000000001  0.21739999999999998  1.0000
  O   O52       1.0  0.15639000000000003  0.68577  0.27995  1.0000
  O   O53       1.0  0.16782000000000002  0.63373  0.46618999999999994  1.0000
  O   O54       1.0  0.2981800000000001  0.61124  0.32841  1.0000
  O   O55       1.0  0.43981  0.92713  0.53377  1.0000
  O   O56       1.0  0.36448000000000014  0.66635  0.54051  1.0000
  O   O57       1.0  0.18017000000000005  0.51795  0.11447  1.0000
  O   O58       1.0  0.03137  0.45903  0.19559  1.0000
  O   O59       1.0  0.19705  0.44722999999999996  0.2845  1.0000
  O   O60       1.0  0.34346000000000004  0.18955  0.22086  1.0000
  O   O61       1.0  0.33346000000000003  0.14063  0.03206  1.0000
  O   O62       1.0  0.20525  0.111  0.16946  1.0000
  O   O63       1.0  0.06039000000000001  0.42764  0.96789  1.0000
  O   O64       1.0  0.13598  0.16756  0.9582399999999999  1.0000
