data_image0
_chemical_formula_structural       Mn8H52C96N4O36
_chemical_formula_sum              "Mn8 H52 C96 N4 O36"
_cell_length_a       12.4364
_cell_length_b       13.652089999999998
_cell_length_c       16.0443
_cell_angle_alpha    90.07582000000001
_cell_angle_beta     97.26244
_cell_angle_gamma    89.95989

_symmetry_space_group_name_H-M    'P 1'
_symmetry_Int_Tables_number       1

loop_
  _symmetry_equiv_pos_as_xyz
  'x,y,z'

loop_
  _atom_site_type_symbol
  _atom_site_label
  _atom_site_symmetry_multiplicity
  _atom_site_fract_x
  _atom_site_fract_y
  _atom_site_fract_z
  _atom_site_occupancy
  Mn  Mn1       1.0  0.013839999999999996  0.2741  0.002480000000000001  1.0000
  Mn  Mn2       1.0  0.48678000000000005  0.77158  0.4975  1.0000
  Mn  Mn3       1.0  0.9861899999999999  0.72801  0.9966300000000002  1.0000
  Mn  Mn4       1.0  0.51269  0.22608999999999999  0.50272  1.0000
  Mn  Mn5       1.0  0.0002400000000000448  0.0006200000000000001  0.9982100000000002  1.0000
  Mn  Mn6       1.0  0.50086  0.49783  0.50103  1.0000
  Mn  Mn7       1.0  0.99919  0.50223  0.00036  1.0000
  Mn  Mn8       1.0  0.50006  0.00149  0.49836  1.0000
  H   H1        1.0  0.7324699999999998  0.03491  0.8183400000000002  1.0000
  H   H2        1.0  0.5417  0.02209  0.74995  1.0000
  H   H3        1.0  0.45717  0.27147  0.89298  1.0000
  H   H4        1.0  0.64931  0.28443  0.9589500000000002  1.0000
  H   H5        1.0  0.20555999999999996  0.06864  0.60404  1.0000
  H   H6        1.0  0.31393000000000004  0.15909999999999996  0.9013300000000002  1.0000
  H   H7        1.0  0.05014000000000003  0.96119  0.6120200000000002  1.0000
  H   H8        1.0  0.85693  0.9566899999999999  0.5494900000000003  1.0000
  H   H9        1.0  0.7932799999999999  0.21347  0.68965  1.0000
  H   H10       1.0  0.9846  0.21584  0.75645  1.0000
  H   H11       1.0  0.27386  0.05831  0.31006  1.0000
  H   H12       1.0  0.27446000000000004  0.18689  0.32085000000000014  1.0000
  H   H13       1.0  0.34032  0.13113  0.23921000000000006  1.0000
  H   H14       1.0  0.76852  0.53354  0.68179  1.0000
  H   H15       1.0  0.9591899999999999  0.52141  0.75069  1.0000
  H   H16       1.0  0.04364000000000002  0.76978  0.60703  1.0000
  H   H17       1.0  0.85148  0.78238  0.54082  1.0000
  H   H18       1.0  0.29605  0.56992  0.8958  1.0000
  H   H19       1.0  0.18530999999999997  0.65717  0.59826  1.0000
  H   H20       1.0  0.45073  0.46204  0.8871400000000003  1.0000
  H   H21       1.0  0.64374  0.45875  0.9502300000000002  1.0000
  H   H22       1.0  0.70602  0.71545  0.8099400000000002  1.0000
  H   H23       1.0  0.51485  0.7164699999999999  0.7426  1.0000
  H   H24       1.0  0.22621  0.55814  0.19075000000000006  1.0000
  H   H25       1.0  0.22567  0.68677  0.18042  1.0000
  H   H26       1.0  0.16069999999999998  0.63117  0.26238  1.0000
  H   H27       1.0  0.26746999999999993  0.9659499999999998  0.1812  1.0000
  H   H28       1.0  0.45832  0.9785299999999998  0.24968  1.0000
  H   H29       1.0  0.54303  0.73018  0.10547  1.0000
  H   H30       1.0  0.35071  0.717  0.03997  1.0000
  H   H31       1.0  0.79621  0.93041  0.3945200000000001  1.0000
  H   H32       1.0  0.6851999999999999  0.84473  0.09667  1.0000
  H   H33       1.0  0.94996  0.03901  0.38656  1.0000
  H   H34       1.0  0.14298  0.043579999999999994  0.44946  1.0000
  H   H35       1.0  0.20717999999999998  0.7869599999999999  0.30924  1.0000
  H   H36       1.0  0.01603  0.7849199999999997  0.24176  1.0000
  H   H37       1.0  0.72392  0.9427699999999998  0.6876  1.0000
  H   H38       1.0  0.7233699999999998  0.81415  0.67758  1.0000
  H   H39       1.0  0.6593699999999998  0.87041  0.75991  1.0000
  H   H40       1.0  0.23144  0.46547  0.31991  1.0000
  H   H41       1.0  0.04129  0.47801  0.25031  1.0000
  H   H42       1.0  0.95573  0.22867  0.3923100000000001  1.0000
  H   H43       1.0  0.14722000000000002  0.2161  0.4596200000000001  1.0000
  H   H44       1.0  0.70362  0.43241999999999997  0.10468  1.0000
  H   H45       1.0  0.81378  0.3395099999999999  0.40086  1.0000
  H   H46       1.0  0.54972  0.53981  0.11399000000000002  1.0000
  H   H47       1.0  0.35711  0.54506  0.05029  1.0000
  H   H48       1.0  0.29158  0.28749  0.18836000000000006  1.0000
  H   H49       1.0  0.48233  0.28458  0.25622  1.0000
  H   H50       1.0  0.77485  0.44329  0.81107  1.0000
  H   H51       1.0  0.7772099999999997  0.31484  0.8223700000000003  1.0000
  H   H52       1.0  0.8394800000000001  0.37028999999999995  0.7389300000000002  1.0000
  C   C1        1.0  0.81704  0.16291  0.93337  1.0000
  C   C2        1.0  0.70237  0.15985  0.8927200000000002  1.0000
  C   C3        1.0  0.67131  0.08643999999999998  0.8334000000000003  1.0000
  C   C4        1.0  0.56489  0.08008  0.7952500000000002  1.0000
  C   C5        1.0  0.4857099999999999  0.14585  0.81691  1.0000
  C   C6        1.0  0.51747  0.21964999999999998  0.8763000000000002  1.0000
  C   C7        1.0  0.62478  0.22736  0.91314  1.0000
  C   C8        1.0  0.37082  0.13335  0.78191  1.0000
  C   C9        1.0  0.33796  0.10531  0.69776  1.0000
  C   C10       1.0  0.41480999999999996  0.10592  0.6331900000000003  1.0000
  C   C11       1.0  0.22861000000000004  0.08732  0.6698400000000002  1.0000
  C   C12       1.0  0.14777  0.09812999999999998  0.72293  1.0000
  C   C13       1.0  0.18112  0.12454  0.8073900000000003  1.0000
  C   C14       1.0  0.10716000000000002  0.12387  0.87473  1.0000
  C   C15       1.0  0.29039  0.14207  0.8352500000000003  1.0000
  C   C16       1.0  0.03193000000000004  0.0893  0.6884600000000002  1.0000
  C   C17       1.0  0.9940799999999997  0.01654  0.62962  1.0000
  C   C18       1.0  0.88557  0.01384  0.59416  1.0000
  C   C19       1.0  0.8131  0.08614  0.6146800000000002  1.0000
  C   C20       1.0  0.85009  0.15824  0.6737900000000002  1.0000
  C   C21       1.0  0.9571299999999999  0.15906  0.7111000000000002  1.0000
  C   C22       1.0  0.6995  0.09363000000000002  0.5725800000000002  1.0000
  C   C23       1.0  0.12267999999999997  0.13228  0.15078  1.0000
  C   C24       1.0  0.27101  0.12712  0.27504  1.0000
  C   C25       1.0  0.68437  0.6618  0.56596  1.0000
  C   C26       1.0  0.79865  0.65817  0.60722  1.0000
  C   C27       1.0  0.8295599999999997  0.58507  0.66672  1.0000
  C   C28       1.0  0.9358999999999998  0.57906  0.70516  1.0000
  C   C29       1.0  0.014850000000000012  0.6447899999999998  0.68336  1.0000
  C   C30       1.0  0.98326  0.7181899999999998  0.62376  1.0000
  C   C31       1.0  0.8760799999999997  0.72564  0.5868000000000002  1.0000
  C   C32       1.0  0.12967  0.63277  0.7182  1.0000
  C   C33       1.0  0.16288999999999998  0.60611  0.8025  1.0000
  C   C34       1.0  0.08595000000000003  0.6068799999999999  0.8670000000000002  1.0000
  C   C35       1.0  0.27231  0.5880199999999998  0.83002  1.0000
  C   C36       1.0  0.35259  0.59806  0.77642  1.0000
  C   C37       1.0  0.31887  0.62362  0.69192  1.0000
  C   C38       1.0  0.3929899999999999  0.6236  0.62476  1.0000
  C   C39       1.0  0.20951  0.64075  0.66433  1.0000
  C   C40       1.0  0.46845  0.58987  0.81067  1.0000
  C   C41       1.0  0.50654  0.51749  0.8696  1.0000
  C   C42       1.0  0.61488  0.51552  0.90535  1.0000
  C   C43       1.0  0.68667  0.58831  0.8849800000000002  1.0000
  C   C44       1.0  0.64955  0.6599299999999999  0.8256400000000003  1.0000
  C   C45       1.0  0.54266  0.6599499999999999  0.7880100000000002  1.0000
  C   C46       1.0  0.7998499999999998  0.59642  0.92757  1.0000
  C   C47       1.0  0.3790799999999999  0.63029  0.34949  1.0000
  C   C48       1.0  0.22955  0.6268999999999998  0.22604  1.0000
  C   C49       1.0  0.18305  0.8377399999999998  0.0654  1.0000
  C   C50       1.0  0.29763  0.84135  0.10637  1.0000
  C   C51       1.0  0.32860999999999996  0.91447  0.16597  1.0000
  C   C52       1.0  0.43507  0.9206599999999999  0.20427000000000006  1.0000
  C   C53       1.0  0.51441  0.8552799999999998  0.18222000000000005  1.0000
  C   C54       1.0  0.48266  0.78166  0.12262000000000003  1.0000
  C   C55       1.0  0.3753099999999999  0.77396  0.08588000000000003  1.0000
  C   C56       1.0  0.6294599999999999  0.8680899999999998  0.21679000000000007  1.0000
  C   C57       1.0  0.66301  0.89465  0.30114000000000013  1.0000
  C   C58       1.0  0.58721  0.8941199999999998  0.36653000000000013  1.0000
  C   C59       1.0  0.7724299999999998  0.91263  0.3286300000000001  1.0000
  C   C60       1.0  0.85281  0.90277  0.27507  1.0000
  C   C61       1.0  0.81893  0.8775899999999999  0.19042000000000006  1.0000
  C   C62       1.0  0.8928199999999998  0.87733  0.12301  1.0000
  C   C63       1.0  0.70943  0.86062  0.16288000000000005  1.0000
  C   C64       1.0  0.9686199999999999  0.91138  0.30969  1.0000
  C   C65       1.0  0.006220000000000016  0.9838999999999998  0.3688500000000001  1.0000
  C   C66       1.0  0.11464000000000002  0.9865699999999997  0.40455000000000013  1.0000
  C   C67       1.0  0.18721  0.91435  0.38402  1.0000
  C   C68       1.0  0.15035999999999994  0.84229  0.32487  1.0000
  C   C69       1.0  0.04345  0.84161  0.28722  1.0000
  C   C70       1.0  0.30103  0.90727  0.42582  1.0000
  C   C71       1.0  0.87816  0.87015  0.84579  1.0000
  C   C72       1.0  0.72778  0.87426  0.7231  1.0000
  C   C73       1.0  0.31495  0.33752  0.43601  1.0000
  C   C74       1.0  0.20078  0.34071  0.3941500000000001  1.0000
  C   C75       1.0  0.17021  0.41387999999999997  0.3345800000000001  1.0000
  C   C76       1.0  0.06407000000000002  0.42003  0.2956400000000001  1.0000
  C   C77       1.0  0.9847099999999999  0.35421  0.31666  1.0000
  C   C78       1.0  0.01612  0.28049  0.37607  1.0000
  C   C79       1.0  0.12305  0.27305  0.4137300000000001  1.0000
  C   C80       1.0  0.86986  0.36649999999999994  0.28153  1.0000
  C   C81       1.0  0.83672  0.39508  0.19762  1.0000
  C   C82       1.0  0.9138899999999999  0.39609  0.13320000000000007  1.0000
  C   C83       1.0  0.7271499999999999  0.41306  0.17023  1.0000
  C   C84       1.0  0.64651  0.4015799999999999  0.22342000000000006  1.0000
  C   C85       1.0  0.68019  0.37405999999999995  0.30753  1.0000
  C   C86       1.0  0.6065  0.37302999999999986  0.3750600000000001  1.0000
  C   C87       1.0  0.78965  0.35680999999999996  0.33494  1.0000
  C   C88       1.0  0.53064  0.41108  0.1891  1.0000
  C   C89       1.0  0.49336  0.48436  0.13071  1.0000
  C   C90       1.0  0.38513  0.48741  0.09457  1.0000
  C   C91       1.0  0.31237  0.41494  0.11401000000000003  1.0000
  C   C92       1.0  0.3486399999999999  0.34261999999999987  0.17297000000000007  1.0000
  C   C93       1.0  0.4553899999999999  0.34153  0.211  1.0000
  C   C94       1.0  0.19902  0.4078699999999999  0.0711  1.0000
  C   C95       1.0  0.62137  0.36759  0.65398  1.0000
  C   C96       1.0  0.77157  0.37419  0.77625  1.0000
  N   N1        1.0  0.17138  0.13281  0.21917  1.0000
  N   N2        1.0  0.32963  0.63216  0.28136  1.0000
  N   N3        1.0  0.8285800000000001  0.86926  0.7776600000000002  1.0000
  N   N4        1.0  0.6704  0.3674299999999999  0.7223200000000002  1.0000
  O   O1        1.0  0.85644  0.24745  0.95585  1.0000
  O   O2        1.0  0.8675399999999999  0.08205999999999998  0.9417200000000002  1.0000
  O   O3        1.0  0.4621599999999999  0.18492  0.6206  1.0000
  O   O4        1.0  0.423  0.0245  0.5925400000000002  1.0000
  O   O5        1.0  0.07935  0.20575  0.90345  1.0000
  O   O6        1.0  0.08453  0.03914  0.9  1.0000
  O   O7        1.0  0.64196  0.01462  0.56304  1.0000
  O   O8        1.0  0.66694  0.17821  0.54931  1.0000
  O   O9        1.0  0.06561  0.13342  0.08371  1.0000
  O   O10       1.0  0.64494  0.74694  0.5459600000000002  1.0000
  O   O11       1.0  0.63455  0.58094  0.5542300000000002  1.0000
  O   O12       1.0  0.03670999999999998  0.68522  0.87915  1.0000
  O   O13       1.0  0.07935000000000005  0.52579  0.9080800000000002  1.0000
  O   O14       1.0  0.41831  0.70613  0.59582  1.0000
  O   O15       1.0  0.41836  0.53939  0.5999400000000003  1.0000
  O   O16       1.0  0.8588100000000003  0.51823  0.9335400000000003  1.0000
  O   O17       1.0  0.83067  0.68036  0.95433  1.0000
  O   O18       1.0  0.43687  0.62999  0.41621  1.0000
  O   O19       1.0  0.14359999999999998  0.75265  0.04511  1.0000
  O   O20       1.0  0.13274  0.91849  0.054410000000000014  1.0000
  O   O21       1.0  0.54357  0.8144599999999997  0.38278  1.0000
  O   O22       1.0  0.57643  0.9769799999999998  0.40403  1.0000
  O   O23       1.0  0.9208699999999999  0.79464  0.09601000000000003  1.0000
  O   O24       1.0  0.9152999999999998  0.96127  0.09601000000000003  1.0000
  O   O25       1.0  0.35872999999999994  0.9861699999999999  0.4332100000000001  1.0000
  O   O26       1.0  0.33353999999999995  0.82315  0.45068000000000014  1.0000
  O   O27       1.0  0.9360300000000003  0.8698199999999999  0.9124200000000002  1.0000
  O   O28       1.0  0.35414  0.25286  0.4581300000000001  1.0000
  O   O29       1.0  0.36516999999999994  0.41843  0.44578  1.0000
  O   O30       1.0  0.96423  0.31856  0.12049000000000003  1.0000
  O   O31       1.0  0.9197199999999999  0.47765  0.0927  1.0000
  O   O32       1.0  0.58151  0.29029  0.40378  1.0000
  O   O33       1.0  0.58144  0.45702  0.40054  1.0000
  O   O34       1.0  0.13935  0.4856299999999999  0.06708000000000003  1.0000
  O   O35       1.0  0.16881999999999997  0.32466  0.04203000000000001  1.0000
  O   O36       1.0  0.56408  0.3667999999999999  0.58713  1.0000
