data_image0
_chemical_formula_structural       Cd4H64C92N24O20
_chemical_formula_sum              "Cd4 H64 C92 N24 O20"
_cell_length_a       9.81785
_cell_length_b       13.77067
_cell_length_c       19.91185
_cell_angle_alpha    90.02694999999999
_cell_angle_beta     96.39117999999999
_cell_angle_gamma    90.0504

_symmetry_space_group_name_H-M    'P 1'
_symmetry_Int_Tables_number       1

loop_
  _symmetry_equiv_pos_as_xyz
  'x,y,z'

loop_
  _atom_site_type_symbol
  _atom_site_label
  _atom_site_symmetry_multiplicity
  _atom_site_fract_x
  _atom_site_fract_y
  _atom_site_fract_z
  _atom_site_occupancy
  Cd  Cd1       1.0  0.72528  0.25462  0.35022  1.0000
  Cd  Cd2       1.0  0.7754799999999998  0.7544599999999998  0.14993  1.0000
  Cd  Cd3       1.0  0.27473  0.74538  0.64979  1.0000
  Cd  Cd4       1.0  0.22452999999999998  0.24554999999999993  0.85007  1.0000
  H   H1        1.0  0.21759  0.00622  0.22653999999999996  1.0000
  H   H2        1.0  0.15102  0.9738599999999997  0.43446  1.0000
  H   H3        1.0  0.54509  0.9018399999999998  0.36999  1.0000
  H   H4        1.0  0.03648  0.14828  0.39035  1.0000
  H   H5        1.0  0.7327  0.06005999999999999  0.23591  1.0000
  H   H6        1.0  0.9614699999999999  0.93966  0.23273  1.0000
  H   H7        1.0  0.22323999999999997  0.93014  0.53021  1.0000
  H   H8        1.0  0.6028199999999999  0.8087099999999999  0.60258  1.0000
  H   H9        1.0  0.60916  0.8544799999999998  0.46728  1.0000
  H   H10       1.0  0.5977  0.8145099999999998  0.2777  1.0000
  H   H11       1.0  0.59516  0.9701999999999997  0.09559  1.0000
  H   H12       1.0  0.40336999999999995  0.05369  0.17093  1.0000
  H   H13       1.0  0.5239399999999999  0.24746  0.09422  1.0000
  H   H14       1.0  0.27329  0.22892999999999994  0.25807  1.0000
  H   H15       1.0  0.10096  0.16465  0.05343  1.0000
  H   H16       1.0  0.98415  0.14909  0.15123  1.0000
  H   H17       1.0  0.28301  0.50653  0.2733  1.0000
  H   H18       1.0  0.34946  0.4738  0.06536  1.0000
  H   H19       1.0  0.95513  0.40209  0.12982  1.0000
  H   H20       1.0  0.46425  0.6482999999999998  0.10949000000000002  1.0000
  H   H21       1.0  0.76779  0.56047  0.26406  1.0000
  H   H22       1.0  0.5388999999999999  0.44008  0.26721  1.0000
  H   H23       1.0  0.27681999999999995  0.43014  0.9693600000000001  1.0000
  H   H24       1.0  0.8964299999999997  0.3090499999999999  0.8972699999999999  1.0000
  H   H25       1.0  0.89097  0.3546199999999999  0.03266  1.0000
  H   H26       1.0  0.9026599999999999  0.31462999999999997  0.22217  1.0000
  H   H27       1.0  0.9050299999999999  0.4707899999999999  0.40421  1.0000
  H   H28       1.0  0.09718  0.55402  0.32898  1.0000
  H   H29       1.0  0.9756399999999998  0.74812  0.40701000000000004  1.0000
  H   H30       1.0  0.22506  0.7288  0.24271  1.0000
  H   H31       1.0  0.39825  0.6649399999999999  0.44732000000000005  1.0000
  H   H32       1.0  0.51365  0.64839  0.3499  1.0000
  H   H33       1.0  0.78241  0.99379  0.77346  1.0000
  H   H34       1.0  0.84899  0.02614  0.56554  1.0000
  H   H35       1.0  0.45492  0.09815999999999998  0.63001  1.0000
  H   H36       1.0  0.96353  0.8517199999999998  0.60966  1.0000
  H   H37       1.0  0.26731  0.93994  0.76409  1.0000
  H   H38       1.0  0.03853999999999996  0.06034  0.76727  1.0000
  H   H39       1.0  0.77677  0.06985999999999999  0.46979  1.0000
  H   H40       1.0  0.39718999999999993  0.19129  0.39742  1.0000
  H   H41       1.0  0.39084999999999986  0.14552  0.53272  1.0000
  H   H42       1.0  0.40230999999999995  0.18549  0.72231  1.0000
  H   H43       1.0  0.4048499999999999  0.029799999999999993  0.90441  1.0000
  H   H44       1.0  0.59664  0.94631  0.82907  1.0000
  H   H45       1.0  0.4760699999999999  0.75254  0.9057799999999999  1.0000
  H   H46       1.0  0.72672  0.7710699999999998  0.74193  1.0000
  H   H47       1.0  0.89905  0.83535  0.9465700000000001  1.0000
  H   H48       1.0  0.015860000000000013  0.85091  0.84877  1.0000
  H   H49       1.0  0.7169999999999999  0.49347  0.7267  1.0000
  H   H50       1.0  0.6505499999999999  0.5262  0.93464  1.0000
  H   H51       1.0  0.04488000000000001  0.59791  0.87018  1.0000
  H   H52       1.0  0.53576  0.3516999999999999  0.8905199999999999  1.0000
  H   H53       1.0  0.23221999999999998  0.43952999999999987  0.73594  1.0000
  H   H54       1.0  0.46110999999999996  0.55992  0.73279  1.0000
  H   H55       1.0  0.72319  0.56986  0.03064  1.0000
  H   H56       1.0  0.10358  0.69095  0.10273  1.0000
  H   H57       1.0  0.10903999999999998  0.64538  0.96734  1.0000
  H   H58       1.0  0.09734999999999998  0.68537  0.77783  1.0000
  H   H59       1.0  0.09498000000000001  0.52921  0.59579  1.0000
  H   H60       1.0  0.90283  0.44598  0.67103  1.0000
  H   H61       1.0  0.024369999999999996  0.25188  0.59299  1.0000
  H   H62       1.0  0.77495  0.2712  0.75729  1.0000
  H   H63       1.0  0.60176  0.33506  0.55269  1.0000
  H   H64       1.0  0.48635999999999996  0.35161  0.6501  1.0000
  C   C1        1.0  0.2572  0.9868499999999998  0.27783  1.0000
  C   C2        1.0  0.17489  0.99619  0.33021  1.0000
  C   C3        1.0  0.22119999999999998  0.9693099999999998  0.39626  1.0000
  C   C4        1.0  0.3548799999999999  0.93407  0.41089  1.0000
  C   C5        1.0  0.4401  0.92634  0.35948  1.0000
  C   C6        1.0  0.39011  0.9514699999999998  0.29334  1.0000
  C   C7        1.0  0.9838  0.10815  0.34836  1.0000
  C   C8        1.0  0.82973  0.05978  0.26763  1.0000
  C   C9        1.0  0.9419899999999999  0.0014999999999999996  0.26405  1.0000
  C   C10       1.0  0.32866  0.9065599999999999  0.53257  1.0000
  C   C11       1.0  0.52555  0.8421799999999998  0.56696  1.0000
  C   C12       1.0  0.52955  0.8637199999999998  0.50004  1.0000
  C   C13       1.0  0.57431  0.86907  0.23904  1.0000
  C   C14       1.0  0.56652  0.95076  0.14481  1.0000
  C   C15       1.0  0.47009  0.99166  0.18081  1.0000
  C   C16       1.0  0.53551  0.25625  0.23224  1.0000
  C   C17       1.0  0.32172999999999996  0.21107999999999993  0.99113  1.0000
  C   C18       1.0  0.31317  0.20704  0.06647  1.0000
  C   C19       1.0  0.42583999999999994  0.2325  0.11244000000000001  1.0000
  C   C20       1.0  0.41213  0.23868  0.18167  1.0000
  C   C21       1.0  0.28417  0.22247999999999996  0.20453  1.0000
  C   C22       1.0  0.1723  0.19557  0.15862  1.0000
  C   C23       1.0  0.18680999999999998  0.18568  0.08999  1.0000
  C   C24       1.0  0.24328  0.48705  0.22203  1.0000
  C   C25       1.0  0.32559  0.4963299999999999  0.16964  1.0000
  C   C26       1.0  0.27927  0.46936  0.10358  1.0000
  C   C27       1.0  0.14548  0.43413  0.08895  1.0000
  C   C28       1.0  0.060239999999999995  0.42649999999999993  0.14036  1.0000
  C   C29       1.0  0.11029  0.45165  0.20653000000000002  1.0000
  C   C30       1.0  0.51683  0.6082699999999998  0.1515  1.0000
  C   C31       1.0  0.67085  0.56006  0.23227000000000003  1.0000
  C   C32       1.0  0.5584699999999998  0.50182  0.23584999999999998  1.0000
  C   C33       1.0  0.17135999999999996  0.40651  0.96715  1.0000
  C   C34       1.0  0.9740799999999998  0.3423099999999999  0.93286  1.0000
  C   C35       1.0  0.97048  0.36379  0.9998300000000001  1.0000
  C   C36       1.0  0.9260099999999999  0.3692299999999999  0.26085  1.0000
  C   C37       1.0  0.93385  0.4510999999999999  0.35506  1.0000
  C   C38       1.0  0.0304  0.49196  0.31909  1.0000
  C   C39       1.0  0.9637499999999999  0.75493  0.26903  1.0000
  C   C40       1.0  0.17993  0.71125  0.50977  1.0000
  C   C41       1.0  0.18653999999999998  0.70744  0.43447  1.0000
  C   C42       1.0  0.07382  0.7332699999999999  0.38882  1.0000
  C   C43       1.0  0.0873  0.7388399999999999  0.31956  1.0000
  C   C44       1.0  0.21485  0.72258  0.29634  1.0000
  C   C45       1.0  0.32663  0.69551  0.34212  1.0000
  C   C46       1.0  0.31240999999999997  0.68572  0.41074  1.0000
  C   C47       1.0  0.74281  0.013149999999999997  0.72218  1.0000
  C   C48       1.0  0.82511  0.00381  0.66979  1.0000
  C   C49       1.0  0.7788099999999999  0.03069  0.60374  1.0000
  C   C50       1.0  0.64512  0.06593  0.58912  1.0000
  C   C51       1.0  0.55991  0.07366  0.64052  1.0000
  C   C52       1.0  0.6099  0.04853  0.70666  1.0000
  C   C53       1.0  0.016210000000000006  0.89185  0.65164  1.0000
  C   C54       1.0  0.17028  0.94022  0.73238  1.0000
  C   C55       1.0  0.058020000000000016  0.9984999999999999  0.73595  1.0000
  C   C56       1.0  0.67135  0.09344  0.46742999999999996  1.0000
  C   C57       1.0  0.47445999999999994  0.15783  0.43304  1.0000
  C   C58       1.0  0.47046  0.13628  0.49996000000000007  1.0000
  C   C59       1.0  0.42569999999999997  0.13093  0.76097  1.0000
  C   C60       1.0  0.43349  0.04924  0.8551899999999999  1.0000
  C   C61       1.0  0.52992  0.00834  0.81919  1.0000
  C   C62       1.0  0.4645  0.7437499999999999  0.76776  1.0000
  C   C63       1.0  0.67828  0.7889199999999997  0.00887  1.0000
  C   C64       1.0  0.68684  0.7929599999999998  0.9335300000000001  1.0000
  C   C65       1.0  0.57417  0.76751  0.88756  1.0000
  C   C66       1.0  0.5878799999999998  0.76132  0.81833  1.0000
  C   C67       1.0  0.71584  0.7775199999999998  0.79547  1.0000
  C   C68       1.0  0.8276999999999998  0.80443  0.8413800000000001  1.0000
  C   C69       1.0  0.8131999999999999  0.81432  0.91001  1.0000
  C   C70       1.0  0.75673  0.51295  0.77797  1.0000
  C   C71       1.0  0.67442  0.50367  0.83036  1.0000
  C   C72       1.0  0.72074  0.53064  0.8964200000000001  1.0000
  C   C73       1.0  0.8545299999999999  0.56587  0.91105  1.0000
  C   C74       1.0  0.93977  0.5735  0.8596400000000001  1.0000
  C   C75       1.0  0.8897199999999998  0.54835  0.79347  1.0000
  C   C76       1.0  0.48318  0.39172999999999997  0.8484999999999999  1.0000
  C   C77       1.0  0.32915  0.43994  0.76773  1.0000
  C   C78       1.0  0.44154  0.4981799999999999  0.76415  1.0000
  C   C79       1.0  0.82865  0.5934899999999997  0.03285  1.0000
  C   C80       1.0  0.025929999999999998  0.65769  0.06714  1.0000
  C   C81       1.0  0.02952  0.63621  0.00017  1.0000
  C   C82       1.0  0.07399999999999998  0.6307699999999998  0.73915  1.0000
  C   C83       1.0  0.06615000000000003  0.5489  0.64494  1.0000
  C   C84       1.0  0.96961  0.50805  0.68091  1.0000
  C   C85       1.0  0.036260000000000014  0.24507  0.73097  1.0000
  C   C86       1.0  0.82008  0.28875  0.49024  1.0000
  C   C87       1.0  0.81347  0.29257  0.56553  1.0000
  C   C88       1.0  0.92619  0.26673  0.61119  1.0000
  C   C89       1.0  0.91271  0.26116  0.68044  1.0000
  C   C90       1.0  0.78516  0.27742  0.70367  1.0000
  C   C91       1.0  0.67338  0.30449  0.65788  1.0000
  C   C92       1.0  0.6876  0.31428  0.58926  1.0000
  N   N1        1.0  0.8574199999999998  0.12574  0.32  1.0000
  N   N2        1.0  0.03931999999999999  0.03259999999999999  0.31578  1.0000
  N   N3        1.0  0.39984  0.86882  0.58666  1.0000
  N   N4        1.0  0.4026199999999999  0.9049999999999998  0.47768  1.0000
  N   N5        1.0  0.63008  0.8748399999999998  0.18163  1.0000
  N   N6        1.0  0.47556  0.93924  0.24102000000000004  1.0000
  N   N7        1.0  0.64324  0.62591  0.17986  1.0000
  N   N8        1.0  0.4611799999999999  0.53281  0.18414  1.0000
  N   N9        1.0  0.09978000000000001  0.36888  0.9130500000000001  1.0000
  N   N10       1.0  0.09762  0.40495999999999993  0.02213  1.0000
  N   N11       1.0  0.87024  0.3750799999999999  0.31825  1.0000
  N   N12       1.0  0.024900000000000005  0.43943999999999994  0.25888  1.0000
  N   N13       1.0  0.14258  0.8742599999999999  0.68  1.0000
  N   N14       1.0  0.9606899999999999  0.9674099999999998  0.68422  1.0000
  N   N15       1.0  0.60017  0.13118  0.41334  1.0000
  N   N16       1.0  0.59739  0.09499999999999997  0.52232  1.0000
  N   N17       1.0  0.36993  0.12516  0.81838  1.0000
  N   N18       1.0  0.52445  0.06076  0.75898  1.0000
  N   N19       1.0  0.35677  0.37409  0.82014  1.0000
  N   N20       1.0  0.53883  0.46719  0.8158600000000001  1.0000
  N   N21       1.0  0.9002299999999999  0.6311199999999999  0.08695  1.0000
  N   N22       1.0  0.90238  0.5950399999999998  0.9778700000000001  1.0000
  N   N23       1.0  0.12977  0.6249199999999998  0.68175  1.0000
  N   N24       1.0  0.9751099999999999  0.56057  0.74112  1.0000
  O   O1        1.0  0.65348  0.24329  0.21464  1.0000
  O   O2        1.0  0.51227  0.28067  0.29277  1.0000
  O   O3        1.0  0.41928  0.25747  0.9698500000000001  1.0000
  O   O4        1.0  0.22116  0.17164  0.95348  1.0000
  O   O5        1.0  0.04912999999999999  0.18065  0.18483  1.0000
  O   O6        1.0  0.84623  0.74011  0.28662  1.0000
  O   O7        1.0  0.98692  0.7800799999999999  0.20864999999999997  1.0000
  O   O8        1.0  0.08456  0.75869  0.53211  1.0000
  O   O9        1.0  0.28032999999999997  0.6708099999999999  0.5465  1.0000
  O   O10       1.0  0.44975999999999994  0.68053  0.31617  1.0000
  O   O11       1.0  0.34653  0.75671  0.78537  1.0000
  O   O12       1.0  0.48773999999999995  0.71933  0.70724  1.0000
  O   O13       1.0  0.5807299999999999  0.7425299999999999  0.03016  1.0000
  O   O14       1.0  0.77885  0.8283599999999998  0.04652  1.0000
  O   O15       1.0  0.95088  0.8193599999999998  0.81518  1.0000
  O   O16       1.0  0.15378  0.25988999999999995  0.71338  1.0000
  O   O17       1.0  0.01309000000000001  0.21992  0.79135  1.0000
  O   O18       1.0  0.9154499999999999  0.24130999999999994  0.46789000000000003  1.0000
  O   O19       1.0  0.71968  0.32919  0.45351  1.0000
  O   O20       1.0  0.55024  0.31947  0.68383  1.0000
