data_image0
_chemical_formula_structural       Zn16H16C80O64
_chemical_formula_sum              "Zn16 H16 C80 O64"
_cell_length_a       11.37721
_cell_length_b       19.19501
_cell_length_c       19.18175
_cell_angle_alpha    90.0
_cell_angle_beta     90.0
_cell_angle_gamma    90.0

_space_group_name_H-M_alt    "P 1"
_space_group_IT_number       1

loop_
  _space_group_symop_operation_xyz
  'x, y, z'

loop_
  _atom_site_type_symbol
  _atom_site_label
  _atom_site_symmetry_multiplicity
  _atom_site_fract_x
  _atom_site_fract_y
  _atom_site_fract_z
  _atom_site_occupancy
  Zn  Zn1       1.0  0.4909599999999999  0.17173  0.79869  1.0000
  Zn  Zn2       1.0  0.32058  0.28242  0.7732  1.0000
  Zn  Zn3       1.0  0.4909599999999999  0.82827  0.20131  1.0000
  Zn  Zn4       1.0  0.32058  0.71758  0.2268  1.0000
  Zn  Zn5       1.0  0.99071  0.20102  0.17159  1.0000
  Zn  Zn6       1.0  0.82014  0.22658999999999999  0.28201  1.0000
  Zn  Zn7       1.0  0.99071  0.79898  0.82841  1.0000
  Zn  Zn8       1.0  0.82014  0.77341  0.71799  1.0000
  Zn  Zn9       1.0  0.4909599999999999  0.67173  0.70131  1.0000
  Zn  Zn10      1.0  0.32056999999999997  0.7824199999999999  0.7268  1.0000
  Zn  Zn11      1.0  0.4909599999999999  0.32827  0.29869  1.0000
  Zn  Zn12      1.0  0.32056999999999997  0.21757999999999997  0.2732  1.0000
  Zn  Zn13      1.0  0.99071  0.7010199999999999  0.32841  1.0000
  Zn  Zn14      1.0  0.82014  0.72659  0.21799  1.0000
  Zn  Zn15      1.0  0.99071  0.29898  0.6715899999999999  1.0000
  Zn  Zn16      1.0  0.82014  0.27341  0.7820199999999999  1.0000
  H   H1        1.0  0.78175  0.21119999999999997  0.9979699999999999  1.0000
  H   H2        1.0  0.37003  0.27562  0.04962  1.0000
  H   H3        1.0  0.78175  0.7888  0.00204  1.0000
  H   H4        1.0  0.37003  0.72438  0.9503799999999999  1.0000
  H   H5        1.0  0.28264  0.00124  0.21137999999999998  1.0000
  H   H6        1.0  0.8705199999999998  0.9499599999999999  0.27485999999999994  1.0000
  H   H7        1.0  0.28264  0.9987599999999999  0.78862  1.0000
  H   H8        1.0  0.8705199999999998  0.050039999999999994  0.72514  1.0000
  H   H9        1.0  0.78175  0.7111999999999999  0.50203  1.0000
  H   H10       1.0  0.37003  0.77562  0.45037999999999995  1.0000
  H   H11       1.0  0.78175  0.2888  0.49797  1.0000
  H   H12       1.0  0.37003  0.22437999999999997  0.54962  1.0000
  H   H13       1.0  0.28264  0.50124  0.28862  1.0000
  H   H14       1.0  0.8705299999999999  0.44996  0.22514000000000003  1.0000
  H   H15       1.0  0.28264  0.49876  0.71138  1.0000
  H   H16       1.0  0.8705299999999999  0.5500399999999999  0.77486  1.0000
  C   C1        1.0  0.49451999999999996  0.25399  0.96886  1.0000
  C   C2        1.0  0.61204  0.23579  0.9546299999999999  1.0000
  C   C3        1.0  0.69095  0.22460999999999998  0.00934  1.0000
  C   C4        1.0  0.65708  0.23107999999999998  0.07906  1.0000
  C   C5        1.0  0.5398  0.25026  0.09385  1.0000
  C   C6        1.0  0.46058999999999994  0.2607  0.03896  1.0000
  C   C7        1.0  0.40397999999999995  0.26962  0.91351  1.0000
  C   C8        1.0  0.6663299999999999  0.23072  0.8839099999999999  1.0000
  C   C9        1.0  0.7489699999999999  0.21831  0.13378  1.0000
  C   C10       1.0  0.49319  0.26086  0.16648  1.0000
  C   C11       1.0  0.49451999999999996  0.74601  0.031149999999999997  1.0000
  C   C12       1.0  0.61204  0.76421  0.04537  1.0000
  C   C13       1.0  0.69095  0.77539  0.9906699999999999  1.0000
  C   C14       1.0  0.65708  0.76892  0.92095  1.0000
  C   C15       1.0  0.5398  0.7497399999999999  0.90616  1.0000
  C   C16       1.0  0.46058999999999994  0.7393  0.9610499999999998  1.0000
  C   C17       1.0  0.40397999999999995  0.73038  0.0865  1.0000
  C   C18       1.0  0.6663299999999999  0.76928  0.11609  1.0000
  C   C19       1.0  0.7489699999999999  0.78169  0.86623  1.0000
  C   C20       1.0  0.49319  0.73915  0.83352  1.0000
  C   C21       1.0  0.99513  0.030499999999999996  0.25301  1.0000
  C   C22       1.0  0.11277999999999999  0.044829999999999995  0.23549  1.0000
  C   C23       1.0  0.19175  0.9901199999999999  0.22476999999999997  1.0000
  C   C24       1.0  0.15782  0.9204799999999999  0.2317  1.0000
  C   C25       1.0  0.04065  0.90564  0.25105  1.0000
  C   C26       1.0  0.96126  0.96051  0.26032  1.0000
  C   C27       1.0  0.9037  0.08534999999999998  0.26804  1.0000
  C   C28       1.0  0.1664  0.11567  0.23048999999999997  1.0000
  C   C29       1.0  0.24937  0.8658099999999999  0.2187  1.0000
  C   C30       1.0  0.9937199999999999  0.8332  0.26249  1.0000
  C   C31       1.0  0.99513  0.9695099999999999  0.74699  1.0000
  C   C32       1.0  0.11278999999999997  0.9551699999999999  0.76452  1.0000
  C   C33       1.0  0.19175  0.009879999999999998  0.77523  1.0000
  C   C34       1.0  0.15782  0.07952  0.7683  1.0000
  C   C35       1.0  0.04065  0.09436  0.74896  1.0000
  C   C36       1.0  0.96126  0.03949  0.73968  1.0000
  C   C37       1.0  0.9037  0.9146499999999999  0.7319699999999999  1.0000
  C   C38       1.0  0.1664  0.8843299999999998  0.76951  1.0000
  C   C39       1.0  0.24937  0.13419  0.7813  1.0000
  C   C40       1.0  0.9937199999999999  0.1668  0.73752  1.0000
  C   C41       1.0  0.49451999999999996  0.7539899999999999  0.53115  1.0000
  C   C42       1.0  0.61204  0.73579  0.54537  1.0000
  C   C43       1.0  0.69095  0.7246099999999999  0.49067  1.0000
  C   C44       1.0  0.65708  0.73108  0.42094000000000004  1.0000
  C   C45       1.0  0.5398  0.75026  0.40615  1.0000
  C   C46       1.0  0.46058999999999994  0.7606999999999999  0.46104  1.0000
  C   C47       1.0  0.40397999999999995  0.76963  0.5865  1.0000
  C   C48       1.0  0.6663299999999999  0.73072  0.61609  1.0000
  C   C49       1.0  0.7489699999999999  0.7183099999999999  0.36622  1.0000
  C   C50       1.0  0.49319  0.76086  0.33352  1.0000
  C   C51       1.0  0.49451999999999996  0.24601  0.46884999999999993  1.0000
  C   C52       1.0  0.61204  0.26420999999999994  0.45463  1.0000
  C   C53       1.0  0.69095  0.27539  0.50934  1.0000
  C   C54       1.0  0.65708  0.26892  0.5790599999999999  1.0000
  C   C55       1.0  0.5398  0.24974  0.59385  1.0000
  C   C56       1.0  0.46058999999999994  0.2393  0.53896  1.0000
  C   C57       1.0  0.40397999999999995  0.23038  0.4135  1.0000
  C   C58       1.0  0.6663299999999999  0.26928  0.38391  1.0000
  C   C59       1.0  0.7489699999999999  0.28169  0.63378  1.0000
  C   C60       1.0  0.49319  0.23915  0.66648  1.0000
  C   C61       1.0  0.99513  0.5305  0.24698999999999996  1.0000
  C   C62       1.0  0.11278999999999997  0.54483  0.26452  1.0000
  C   C63       1.0  0.19175  0.49011999999999994  0.27523  1.0000
  C   C64       1.0  0.15782  0.42047999999999996  0.2683  1.0000
  C   C65       1.0  0.04065  0.40563999999999995  0.24896  1.0000
  C   C66       1.0  0.96126  0.46051  0.23968  1.0000
  C   C67       1.0  0.9037  0.5853499999999999  0.23197  1.0000
  C   C68       1.0  0.1664  0.61567  0.26951  1.0000
  C   C69       1.0  0.24937  0.36581  0.2813  1.0000
  C   C70       1.0  0.9937199999999999  0.3332  0.23750999999999997  1.0000
  C   C71       1.0  0.99513  0.4694999999999999  0.75301  1.0000
  C   C72       1.0  0.11278999999999997  0.45517  0.73549  1.0000
  C   C73       1.0  0.19175  0.50988  0.72477  1.0000
  C   C74       1.0  0.15782  0.5795199999999999  0.7317  1.0000
  C   C75       1.0  0.04065  0.59436  0.75105  1.0000
  C   C76       1.0  0.96126  0.5395  0.76033  1.0000
  C   C77       1.0  0.9037  0.41465  0.76804  1.0000
  C   C78       1.0  0.1664  0.38433  0.73049  1.0000
  C   C79       1.0  0.24937  0.63419  0.7186999999999999  1.0000
  C   C80       1.0  0.9937199999999999  0.6667999999999998  0.76249  1.0000
  O   O1        1.0  0.44177  0.26347  0.8472  1.0000
  O   O2        1.0  0.30359  0.28786  0.92773  1.0000
  O   O3        1.0  0.64479  0.17999  0.84238  1.0000
  O   O4        1.0  0.7434299999999999  0.27713999999999994  0.87163  1.0000
  O   O5        1.0  0.8515399999999999  0.20093  0.11144999999999998  1.0000
  O   O6        1.0  0.7195899999999998  0.22569  0.19733  1.0000
  O   O7        1.0  0.42129  0.21482999999999997  0.18776  1.0000
  O   O8        1.0  0.5237  0.31615  0.19843  1.0000
  O   O9        1.0  0.44177  0.73653  0.15279999999999996  1.0000
  O   O10       1.0  0.30359  0.71215  0.07228  1.0000
  O   O11       1.0  0.64479  0.82001  0.15763  1.0000
  O   O12       1.0  0.7434299999999999  0.72286  0.12838  1.0000
  O   O13       1.0  0.8515399999999999  0.79907  0.8885499999999998  1.0000
  O   O14       1.0  0.7195899999999998  0.7743199999999999  0.80268  1.0000
  O   O15       1.0  0.42129  0.78517  0.81224  1.0000
  O   O16       1.0  0.5237  0.68385  0.80157  1.0000
  O   O17       1.0  0.9406799999999998  0.15199  0.26321  1.0000
  O   O18       1.0  0.80321  0.06974999999999999  0.28479  1.0000
  O   O19       1.0  0.14418999999999998  0.15722  0.17986  1.0000
  O   O20       1.0  0.24328  0.12815  0.27698  1.0000
  O   O21       1.0  0.35181  0.88821  0.20106  1.0000
  O   O22       1.0  0.21993999999999997  0.8022899999999998  0.22583  1.0000
  O   O23       1.0  0.92227  0.8116299999999999  0.21621  1.0000
  O   O24       1.0  0.02336999999999999  0.80174  0.31834  1.0000
  O   O25       1.0  0.9406799999999998  0.8480099999999999  0.73679  1.0000
  O   O26       1.0  0.80321  0.9302499999999999  0.71521  1.0000
  O   O27       1.0  0.14418999999999998  0.8427799999999999  0.82014  1.0000
  O   O28       1.0  0.24328  0.87185  0.72302  1.0000
  O   O29       1.0  0.35181  0.11179  0.79894  1.0000
  O   O30       1.0  0.21993999999999997  0.19771  0.77417  1.0000
  O   O31       1.0  0.92227  0.18837  0.78379  1.0000
  O   O32       1.0  0.02336999999999999  0.19826  0.68166  1.0000
  O   O33       1.0  0.44177  0.7634699999999998  0.6528  1.0000
  O   O34       1.0  0.30359  0.78786  0.57228  1.0000
  O   O35       1.0  0.64479  0.67999  0.65763  1.0000
  O   O36       1.0  0.7434299999999999  0.77714  0.62838  1.0000
  O   O37       1.0  0.8515399999999999  0.70093  0.38855  1.0000
  O   O38       1.0  0.7195899999999998  0.7256899999999998  0.30268  1.0000
  O   O39       1.0  0.42129  0.71483  0.31223999999999996  1.0000
  O   O40       1.0  0.5237  0.81615  0.30157  1.0000
  O   O41       1.0  0.44177  0.23652999999999996  0.3472  1.0000
  O   O42       1.0  0.30359  0.21214  0.42772999999999994  1.0000
  O   O43       1.0  0.64479  0.32001  0.34238  1.0000
  O   O44       1.0  0.7434299999999999  0.22286  0.37163  1.0000
  O   O45       1.0  0.8515399999999999  0.29907  0.61145  1.0000
  O   O46       1.0  0.7195899999999998  0.27431  0.69733  1.0000
  O   O47       1.0  0.42129  0.28517  0.68776  1.0000
  O   O48       1.0  0.5237  0.18384999999999999  0.69843  1.0000
  O   O49       1.0  0.9406799999999998  0.65199  0.23679  1.0000
  O   O50       1.0  0.80321  0.56975  0.21521  1.0000
  O   O51       1.0  0.14418999999999998  0.65722  0.32014  1.0000
  O   O52       1.0  0.24328  0.62815  0.22302  1.0000
  O   O53       1.0  0.35181  0.38821  0.29894  1.0000
  O   O54       1.0  0.21993999999999997  0.30229  0.27417  1.0000
  O   O55       1.0  0.92227  0.31163  0.28379  1.0000
  O   O56       1.0  0.02336999999999999  0.30174  0.18166  1.0000
  O   O57       1.0  0.9406799999999998  0.34801  0.76321  1.0000
  O   O58       1.0  0.80321  0.43024999999999997  0.7848  1.0000
  O   O59       1.0  0.14418999999999998  0.34278  0.67986  1.0000
  O   O60       1.0  0.24328  0.37185  0.77698  1.0000
  O   O61       1.0  0.35181  0.61179  0.70106  1.0000
  O   O62       1.0  0.21993999999999997  0.69771  0.72583  1.0000
  O   O63       1.0  0.92227  0.68837  0.71621  1.0000
  O   O64       1.0  0.02336999999999999  0.69826  0.81834  1.0000
