data_image0
_chemical_formula_structural       Co3H60C78N30
_chemical_formula_sum              "Co3 H60 C78 N30"
_cell_length_a       10.05844
_cell_length_b       16.02526
_cell_length_c       16.0254
_cell_angle_alpha    115.86801000000001
_cell_angle_beta     102.04194
_cell_angle_gamma    102.03555

_symmetry_space_group_name_H-M    'P 1'
_symmetry_Int_Tables_number       1

loop_
  _symmetry_equiv_pos_as_xyz
  'x,y,z'

loop_
  _atom_site_type_symbol
  _atom_site_label
  _atom_site_symmetry_multiplicity
  _atom_site_fract_x
  _atom_site_fract_y
  _atom_site_fract_z
  _atom_site_occupancy
  Co  Co1       1.0  0.99994  0.49999000000000005  0.4999799999999999  1.0000
  Co  Co2       1.0  0.49983  0.9999400000000002  0.49992  1.0000
  Co  Co3       1.0  0.49996  0.4999300000000001  0.99998  1.0000
  H   H1        1.0  0.08717000000000008  0.5865500000000002  0.72801  1.0000
  H   H2        1.0  0.31863999999999987  0.6725  0.87405  1.0000
  H   H3        1.0  0.5525299999999999  0.71727  0.84637  1.0000
  H   H4        1.0  0.16852000000000003  0.3985  0.17405  1.0000
  H   H5        1.0  0.25899  0.38146000000000013  0.03531  1.0000
  H   H6        1.0  0.6434399999999998  0.61006  0.22784  1.0000
  H   H7        1.0  0.57021  0.6341300000000002  0.37466  1.0000
  H   H8        1.0  0.58034  0.6619  0.59838  1.0000
  H   H9        1.0  0.66875  0.65672  0.70396  1.0000
  H   H10       1.0  0.6463499999999999  0.7684900000000002  0.71868  1.0000
  H   H11       1.0  0.5003399999999999  0.14125999999999997  0.41391999999999995  1.0000
  H   H12       1.0  0.6455999999999997  0.20117000000000004  0.32786  1.0000
  H   H13       1.0  0.8350499999999998  0.12875000000000003  0.28295  1.0000
  H   H14       1.0  0.7696899999999999  0.7758200000000002  0.60139  1.0000
  H   H15       1.0  0.8768199999999999  0.65414  0.61821  1.0000
  H   H16       1.0  0.033909999999999996  0.61748  0.38987  1.0000
  H   H17       1.0  0.93694  0.7402  0.36598  1.0000
  H   H18       1.0  0.91825  0.9361700000000001  0.33804  1.0000
  H   H19       1.0  0.012060000000000008  0.04693000000000003  0.34332  1.0000
  H   H20       1.0  0.8780499999999998  0.9496100000000002  0.23157  1.0000
  H   H21       1.0  0.35918  0.27253  0.85868  1.0000
  H   H22       1.0  0.44415999999999994  0.12613000000000002  0.79861  1.0000
  H   H23       1.0  0.70534  0.1533  0.87075  1.0000
  H   H24       1.0  0.99419  0.82542  0.22386  1.0000
  H   H25       1.0  0.22360000000000008  0.9643000000000003  0.34553  1.0000
  H   H26       1.0  0.41573999999999994  0.77209  0.38191  1.0000
  H   H27       1.0  0.19544  0.62514  0.25926  1.0000
  H   H28       1.0  0.98158  0.4013500000000001  0.06356  1.0000
  H   H29       1.0  0.9646399999999999  0.29565  0.9525399999999998  1.0000
  H   H30       1.0  0.9276099999999999  0.28116  0.04954  1.0000
  H   H31       1.0  0.91276  0.41343  0.27199  1.0000
  H   H32       1.0  0.6812899999999998  0.32746  0.12594  1.0000
  H   H33       1.0  0.4474  0.28269  0.15362  1.0000
  H   H34       1.0  0.83143  0.60147  0.82596  1.0000
  H   H35       1.0  0.74097  0.61848  0.96469  1.0000
  H   H36       1.0  0.35653  0.38989  0.77216  1.0000
  H   H37       1.0  0.4297399999999999  0.36584999999999995  0.6253399999999999  1.0000
  H   H38       1.0  0.41959  0.3380800000000001  0.40162  1.0000
  H   H39       1.0  0.33116  0.34325  0.29604  1.0000
  H   H40       1.0  0.35358  0.23149000000000006  0.28131  1.0000
  H   H41       1.0  0.49947999999999987  0.8586600000000002  0.58596  1.0000
  H   H42       1.0  0.35438  0.7988499999999998  0.6721499999999999  1.0000
  H   H43       1.0  0.16498000000000013  0.8713000000000003  0.71713  1.0000
  H   H44       1.0  0.23023  0.22417000000000004  0.39863  1.0000
  H   H45       1.0  0.12311  0.34586  0.3818  1.0000
  H   H46       1.0  0.96602  0.38254  0.61013  1.0000
  H   H47       1.0  0.06297999999999998  0.25982  0.63403  1.0000
  H   H48       1.0  0.08169999999999997  0.06385000000000003  0.662  1.0000
  H   H49       1.0  0.9878800000000001  0.9530800000000005  0.65671  1.0000
  H   H50       1.0  0.12191999999999995  0.0504  0.76846  1.0000
  H   H51       1.0  0.64077  0.72736  0.14129  1.0000
  H   H52       1.0  0.55585  0.87378  0.20136  1.0000
  H   H53       1.0  0.29466999999999993  0.84663  0.1292  1.0000
  H   H54       1.0  0.005630000000000046  0.1744700000000001  0.77606  1.0000
  H   H55       1.0  0.77622  0.03562  0.65437  1.0000
  H   H56       1.0  0.58416  0.22790000000000005  0.61804  1.0000
  H   H57       1.0  0.8044699999999997  0.37481  0.74071  1.0000
  H   H58       1.0  0.01839999999999995  0.5986  0.93641  1.0000
  H   H59       1.0  0.03535999999999995  0.7043  0.047429999999999986  1.0000
  H   H60       1.0  0.07242000000000005  0.7188100000000002  0.95045  1.0000
  C   C1        1.0  0.19254000000000004  0.6084000000000003  0.72087  1.0000
  C   C2        1.0  0.32088999999999995  0.65602  0.80107  1.0000
  C   C3        1.0  0.45059999999999995  0.6808000000000002  0.78507  1.0000
  C   C4        1.0  0.45271999999999996  0.6585400000000002  0.6906  1.0000
  C   C5        1.0  0.31815  0.60921  0.61308  1.0000
  C   C6        1.0  0.29680000000000006  0.5751800000000002  0.50899  1.0000
  C   C7        1.0  0.30868  0.53245  0.36710999999999994  1.0000
  C   C8        1.0  0.36169  0.5187  0.2858  1.0000
  C   C9        1.0  0.27484  0.4458800000000001  0.18844  1.0000
  C   C10       1.0  0.32455  0.4363800000000001  0.11147  1.0000
  C   C11       1.0  0.53966  0.56396  0.21914  1.0000
  C   C12       1.0  0.49864  0.57752  0.30052  1.0000
  C   C13       1.0  0.5947599999999998  0.6877299999999998  0.6762099999999999  1.0000
  C   C14       1.0  0.58402  0.11232999999999997  0.39207  1.0000
  C   C15       1.0  0.6645400000000001  0.14477000000000007  0.34432  1.0000
  C   C16       1.0  0.7697399999999999  0.10413000000000006  0.31956  1.0000
  C   C17       1.0  0.7941999999999998  0.03187999999999994  0.3415799999999999  1.0000
  C   C18       1.0  0.70928  0.003899999999999994  0.39112  1.0000
  C   C19       1.0  0.7218500000000001  0.9337200000000002  0.42483  1.0000
  C   C20       1.0  0.7764499999999998  0.83467  0.46749  1.0000
  C   C21       1.0  0.84319  0.76715  0.48124  1.0000
  C   C22       1.0  0.82874  0.74275  0.55396  1.0000
  C   C23       1.0  0.88782  0.6752300000000002  0.56336  1.0000
  C   C24       1.0  0.97605  0.6550000000000002  0.43599  1.0000
  C   C25       1.0  0.9215699999999998  0.72284  0.42250999999999994  1.0000
  C   C26       1.0  0.90703  0.9881700000000002  0.3123099999999999  1.0000
  C   C27       1.0  0.4716299999999999  0.27948999999999996  0.8875499999999998  1.0000
  C   C28       1.0  0.5195  0.19909000000000004  0.85501  1.0000
  C   C29       1.0  0.6651299999999999  0.21485  0.89565  1.0000
  C   C30       1.0  0.76195  0.3093  0.9677999999999999  1.0000
  C   C31       1.0  0.70513  0.3870200000000001  0.99605  1.0000
  C   C32       1.0  0.78779  0.49109  0.06623  1.0000
  C   C33       1.0  0.9415899999999999  0.63286  0.16534  1.0000
  C   C34       1.0  0.07594999999999998  0.71401  0.23267999999999997  1.0000
  C   C35       1.0  0.08626999999999994  0.81125  0.25701  1.0000
  C   C36       1.0  0.21295999999999993  0.8881899999999999  0.3243599999999999  1.0000
  C   C37       1.0  0.32057  0.7806900000000002  0.34445  1.0000
  C   C38       1.0  0.19816  0.6992900000000002  0.27678  1.0000
  C   C39       1.0  0.91829  0.3235400000000001  0.01133  1.0000
  C   C40       1.0  0.80739  0.39157  0.27912  1.0000
  C   C41       1.0  0.6790300000000001  0.3439500000000001  0.19893  1.0000
  C   C42       1.0  0.54932  0.31917  0.21492  1.0000
  C   C43       1.0  0.5471999999999999  0.34144000000000013  0.30938999999999994  1.0000
  C   C44       1.0  0.68177  0.39077  0.38691  1.0000
  C   C45       1.0  0.70312  0.42481  0.491  1.0000
  C   C46       1.0  0.6912599999999999  0.46753  0.63288  1.0000
  C   C47       1.0  0.63826  0.48126  0.7142  1.0000
  C   C48       1.0  0.72512  0.5540800000000002  0.81156  1.0000
  C   C49       1.0  0.6754100000000001  0.5635600000000002  0.88853  1.0000
  C   C50       1.0  0.46031  0.436  0.78086  1.0000
  C   C51       1.0  0.50132  0.42245  0.69947  1.0000
  C   C52       1.0  0.40516  0.3122500000000001  0.32378  1.0000
  C   C53       1.0  0.41583  0.88762  0.60785  1.0000
  C   C54       1.0  0.3353999999999999  0.8552300000000002  0.6556699999999998  1.0000
  C   C55       1.0  0.23023000000000007  0.8958900000000004  0.68047  1.0000
  C   C56       1.0  0.20573  0.96812  0.65843  1.0000
  C   C57       1.0  0.29058  0.9960700000000002  0.60884  1.0000
  C   C58       1.0  0.2779999999999999  0.06625  0.57513  1.0000
  C   C59       1.0  0.22343  0.16532000000000008  0.5325  1.0000
  C   C60       1.0  0.15672000000000003  0.23285000000000003  0.51877  1.0000
  C   C61       1.0  0.17118  0.25725  0.44606  1.0000
  C   C62       1.0  0.11210999999999996  0.32477  0.4366599999999999  1.0000
  C   C63       1.0  0.023880000000000016  0.3450200000000001  0.56402  1.0000
  C   C64       1.0  0.07835000000000006  0.2771800000000001  0.5775  1.0000
  C   C65       1.0  0.09291999999999999  0.01183999999999997  0.68772  1.0000
  C   C66       1.0  0.52833  0.7204100000000002  0.11241999999999999  1.0000
  C   C67       1.0  0.48049  0.8008200000000002  0.14496  1.0000
  C   C68       1.0  0.33486999999999995  0.7850700000000003  0.10432  1.0000
  C   C69       1.0  0.23803  0.69063  0.03217  1.0000
  C   C70       1.0  0.29483  0.61289  0.00392  1.0000
  C   C71       1.0  0.21213999999999997  0.50882  0.93374  1.0000
  C   C72       1.0  0.05830999999999997  0.36706  0.83462  1.0000
  C   C73       1.0  0.9239399999999998  0.28591999999999995  0.7672699999999999  1.0000
  C   C74       1.0  0.9135800000000001  0.18867000000000012  0.74291  1.0000
  C   C75       1.0  0.7868699999999998  0.11173999999999996  0.6755399999999999  1.0000
  C   C76       1.0  0.67931  0.21927000000000005  0.65548  1.0000
  C   C77       1.0  0.8017400000000002  0.3006600000000001  0.72317  1.0000
  C   C78       1.0  0.08170000000000009  0.6764100000000002  0.98864  1.0000
  N   N1        1.0  0.19088000000000005  0.5855000000000002  0.62931  1.0000
  N   N2        1.0  0.15989  0.51975  0.44293  1.0000
  N   N3        1.0  0.16681999999999994  0.49138999999999994  0.35152999999999995  1.0000
  N   N4        1.0  0.39315000000000005  0.5858200000000002  0.46398  1.0000
  N   N5        1.0  0.45433  0.4954500000000001  0.12534  1.0000
  N   N6        1.0  0.6055499999999998  0.04375999999999993  0.4148799999999999  1.0000
  N   N7        1.0  0.63987  0.92291  0.47992  1.0000
  N   N8        1.0  0.67512  0.85994  0.50823  1.0000
  N   N9        1.0  0.8080299999999999  0.8783400000000002  0.41447  1.0000
  N   N10       1.0  0.95879  0.62983  0.50439  1.0000
  N   N11       1.0  0.56173  0.37098999999999993  0.9561799999999999  1.0000
  N   N12       1.0  0.71695  0.55723  0.07707  1.0000
  N   N13       1.0  0.8153599999999999  0.6486  0.14009  1.0000
  N   N14       1.0  0.9291399999999999  0.5359800000000002  0.12173  1.0000
  N   N15       1.0  0.32893999999999995  0.8744300000000002  0.3696399999999999  1.0000
  N   N16       1.0  0.80904  0.41448  0.37068  1.0000
  N   N17       1.0  0.8400299999999999  0.4802500000000001  0.55706  1.0000
  N   N18       1.0  0.8331200000000002  0.5086000000000003  0.64846  1.0000
  N   N19       1.0  0.60678  0.41416  0.53602  1.0000
  N   N20       1.0  0.54564  0.50449  0.87466  1.0000
  N   N21       1.0  0.39427  0.95618  0.58503  1.0000
  N   N22       1.0  0.35993  0.07702  0.52  1.0000
  N   N23       1.0  0.3247  0.14000000000000007  0.49171  1.0000
  N   N24       1.0  0.19188  0.12167000000000001  0.58554  1.0000
  N   N25       1.0  0.04112000000000003  0.3701700000000001  0.49561  1.0000
  N   N26       1.0  0.43821999999999994  0.62891  0.043789999999999996  1.0000
  N   N27       1.0  0.2829499999999999  0.4426700000000001  0.9229  1.0000
  N   N28       1.0  0.18452000000000005  0.3513100000000001  0.85988  1.0000
  N   N29       1.0  0.07079000000000005  0.4639500000000001  0.87823  1.0000
  N   N30       1.0  0.6709  0.12552000000000005  0.63028  1.0000
