data_image0
_chemical_formula_structural       Ag32H24C64N16O16F24
_chemical_formula_sum              "Ag32 H24 C64 N16 O16 F24"
_cell_length_a       15.65576
_cell_length_b       14.25869
_cell_length_c       17.103110000000004
_cell_angle_alpha    90.48141000000001
_cell_angle_beta     90.65942
_cell_angle_gamma    89.57422

_space_group_name_H-M_alt    "P 1"
_space_group_IT_number       1

loop_
  _space_group_symop_operation_xyz
  'x, y, z'

loop_
  _atom_site_type_symbol
  _atom_site_label
  _atom_site_symmetry_multiplicity
  _atom_site_fract_x
  _atom_site_fract_y
  _atom_site_fract_z
  _atom_site_occupancy
  Ag  Ag1       1.0  0.7492099999999998  0.5437000000000001  0.5831499999999998  1.0000
  Ag  Ag2       1.0  0.24588  0.7665200000000001  0.46239999999999987  1.0000
  Ag  Ag3       1.0  0.33778  0.7205100000000002  0.82541  1.0000
  Ag  Ag4       1.0  0.7262  0.8618800000000002  0.65304  1.0000
  Ag  Ag5       1.0  0.7507899999999997  0.45675  0.08141  1.0000
  Ag  Ag6       1.0  0.25614  0.23142000000000004  0.96358  1.0000
  Ag  Ag7       1.0  0.15949999999999995  0.27646  0.3247899999999999  1.0000
  Ag  Ag8       1.0  0.77867  0.14159000000000005  0.15717  1.0000
  Ag  Ag9       1.0  0.25391  0.04429  0.9155799999999997  1.0000
  Ag  Ag10      1.0  0.7555199999999997  0.26676  0.03831  1.0000
  Ag  Ag11      1.0  0.6610699999999998  0.22288  0.67577  1.0000
  Ag  Ag12      1.0  0.2703699999999999  0.3597000000000001  0.84672  1.0000
  Ag  Ag13      1.0  0.24815  0.9546700000000002  0.41824  1.0000
  Ag  Ag14      1.0  0.74546  0.73098  0.53584  1.0000
  Ag  Ag15      1.0  0.84103  0.7793500000000002  0.17466  1.0000
  Ag  Ag16      1.0  0.22415  0.6419400000000002  0.34133999999999987  1.0000
  Ag  Ag17      1.0  0.25235  0.4536500000000001  0.40902  1.0000
  Ag  Ag18      1.0  0.7542999999999997  0.23367000000000002  0.53843  1.0000
  Ag  Ag19      1.0  0.6636899999999998  0.27663  0.17585999999999996  1.0000
  Ag  Ag20      1.0  0.2697699999999999  0.13824000000000006  0.34832  1.0000
  Ag  Ag21      1.0  0.24916999999999992  0.5432400000000002  0.92259  1.0000
  Ag  Ag22      1.0  0.7445999999999998  0.76865  0.03706  1.0000
  Ag  Ag23      1.0  0.8378899999999997  0.72431  0.6758199999999998  1.0000
  Ag  Ag24      1.0  0.22637999999999994  0.8597  0.84309  1.0000
  Ag  Ag25      1.0  0.7478699999999998  0.9545200000000003  0.08961  1.0000
  Ag  Ag26      1.0  0.24483  0.7344000000000003  0.96219  1.0000
  Ag  Ag27      1.0  0.3384899999999999  0.7768  0.32489  1.0000
  Ag  Ag28      1.0  0.7302099999999998  0.6416900000000002  0.15574  1.0000
  Ag  Ag29      1.0  0.7520499999999998  0.04563  0.58268  1.0000
  Ag  Ag30      1.0  0.25372  0.2703  0.46486  1.0000
  Ag  Ag31      1.0  0.16162  0.22061  0.82488  1.0000
  Ag  Ag32      1.0  0.77172  0.36060000000000003  0.65832  1.0000
  H   H1        1.0  0.43586  0.7029200000000002  0.47673  1.0000
  H   H2        1.0  0.26268999999999987  0.75364  0.6548299999999998  1.0000
  H   H3        1.0  0.5016999999999998  0.6521600000000001  0.7202299999999998  1.0000
  H   H4        1.0  0.06410999999999997  0.29251  0.9724799999999999  1.0000
  H   H5        1.0  0.23864999999999995  0.24476000000000006  0.15322  1.0000
  H   H6        1.0  0.9995999999999999  0.34816000000000014  0.21433999999999997  1.0000
  H   H7        1.0  0.56741  0.19856000000000004  0.02539  1.0000
  H   H8        1.0  0.7384499999999998  0.25182  0.84717  1.0000
  H   H9        1.0  0.4987499999999999  0.15493000000000007  0.78112  1.0000
  H   H10       1.0  0.9361699999999997  0.7934000000000002  0.5271999999999998  1.0000
  H   H11       1.0  0.7613299999999997  0.7475600000000002  0.34625  1.0000
  H   H12       1.0  0.9990099999999998  0.8493800000000002  0.28551  1.0000
  H   H13       1.0  0.5632499999999998  0.29721  0.52323  1.0000
  H   H14       1.0  0.7382099999999998  0.24656000000000006  0.34620999999999996  1.0000
  H   H15       1.0  0.4979299999999999  0.3438200000000001  0.27944  1.0000
  H   H16       1.0  0.93677  0.70697  0.026709999999999994  1.0000
  H   H17       1.0  0.7615399999999998  0.7563100000000003  0.8470899999999998  1.0000
  H   H18       1.0  0.9993399999999999  0.6513400000000003  0.7840499999999998  1.0000
  H   H19       1.0  0.4351699999999999  0.79936  0.9762399999999999  1.0000
  H   H20       1.0  0.2626499999999999  0.7481600000000003  0.15376  1.0000
  H   H21       1.0  0.50171  0.8459600000000003  0.22055  1.0000
  H   H22       1.0  0.06385999999999997  0.20446000000000006  0.47367999999999993  1.0000
  H   H23       1.0  0.23881999999999998  0.2541200000000001  0.65375  1.0000
  H   H24       1.0  0.0013299999999999965  0.15353000000000003  0.7163199999999998  1.0000
  C   C1        1.0  0.64417  0.6271600000000003  0.56027  1.0000
  C   C2        1.0  0.56876  0.64862  0.57347  1.0000
  C   C3        1.0  0.48520999999999986  0.6748300000000002  0.59436  1.0000
  C   C4        1.0  0.42243  0.7022200000000002  0.53914  1.0000
  C   C5        1.0  0.32572  0.72942  0.63716  1.0000
  C   C6        1.0  0.4588799999999999  0.6748300000000002  0.67327  1.0000
  C   C7        1.0  0.94016  0.5277100000000001  0.62475  1.0000
  C   C8        1.0  0.021309999999999992  0.46422  0.62394  1.0000
  C   C9        1.0  0.8561199999999998  0.3743900000000001  0.05847  1.0000
  C   C10       1.0  0.93213  0.3514100000000001  0.06838  1.0000
  C   C11       1.0  0.01585  0.32397  0.08920999999999997  1.0000
  C   C12       1.0  0.07799  0.2945500000000001  0.03509  1.0000
  C   C13       1.0  0.17538999999999993  0.26879  0.13481  1.0000
  C   C14       1.0  0.04277  0.3248800000000001  0.16848  1.0000
  C   C15       1.0  0.5615899999999998  0.47255000000000014  0.12632  1.0000
  C   C16       1.0  0.48039999999999994  0.5356900000000001  0.12385  1.0000
  C   C17       1.0  0.35879  0.12586  0.93823  1.0000
  C   C18       1.0  0.4341299999999999  0.14817  0.92699  1.0000
  C   C19       1.0  0.5172699999999998  0.17457000000000003  0.90708  1.0000
  C   C20       1.0  0.5802699999999997  0.1998  0.96281  1.0000
  C   C21       1.0  0.6756999999999997  0.22806  0.86462  1.0000
  C   C22       1.0  0.5425499999999998  0.17598000000000005  0.82797  1.0000
  C   C23       1.0  0.06191999999999999  0.029610000000000015  0.8725  1.0000
  C   C24       1.0  0.98259  0.9650100000000001  0.8773299999999999  1.0000
  C   C25       1.0  0.14292999999999995  0.8744  0.44149  1.0000
  C   C26       1.0  0.06712  0.8519  0.43147  1.0000
  C   C27       1.0  0.9835299999999998  0.8250400000000002  0.41062  1.0000
  C   C28       1.0  0.9219899999999998  0.7958700000000002  0.46465999999999996  1.0000
  C   C29       1.0  0.82442  0.7710900000000003  0.36489  1.0000
  C   C30       1.0  0.9564399999999997  0.8262700000000002  0.33141  1.0000
  C   C31       1.0  0.43967  0.9701900000000002  0.37336999999999987  1.0000
  C   C32       1.0  0.5185799999999998  0.03535000000000001  0.37579  1.0000
  C   C33       1.0  0.35558999999999996  0.3712300000000001  0.43853  1.0000
  C   C34       1.0  0.43113  0.34982  0.42587999999999987  1.0000
  C   C35       1.0  0.5147199999999997  0.32379  0.4054199999999999  1.0000
  C   C36       1.0  0.5774199999999998  0.29743  0.46097999999999995  1.0000
  C   C37       1.0  0.67477  0.27002000000000004  0.36355  1.0000
  C   C38       1.0  0.54111  0.32264000000000004  0.3266  1.0000
  C   C39       1.0  0.05912999999999999  0.4706300000000001  0.3703599999999999  1.0000
  C   C40       1.0  0.97958  0.5361400000000001  0.37846  1.0000
  C   C41       1.0  0.14379999999999998  0.6265800000000002  0.94233  1.0000
  C   C42       1.0  0.06798999999999997  0.6489900000000002  0.93041  1.0000
  C   C43       1.0  0.9842299999999998  0.67604  0.90949  1.0000
  C   C44       1.0  0.9224799999999997  0.7052500000000002  0.9641399999999999  1.0000
  C   C45       1.0  0.8246999999999998  0.73171  0.86503  1.0000
  C   C46       1.0  0.9567999999999999  0.6749900000000001  0.83033  1.0000
  C   C47       1.0  0.4385799999999999  0.5246600000000001  0.8751299999999997  1.0000
  C   C48       1.0  0.5192199999999998  0.4603  0.87654  1.0000
  C   C49       1.0  0.64301  0.87439  0.06284  1.0000
  C   C50       1.0  0.5676599999999998  0.85223  0.07423  1.0000
  C   C51       1.0  0.48452  0.8255800000000002  0.09432999999999997  1.0000
  C   C52       1.0  0.4218  0.79925  0.03867999999999999  1.0000
  C   C53       1.0  0.32565  0.7715700000000002  0.13641  1.0000
  C   C54       1.0  0.4586699999999999  0.8243500000000002  0.17332  1.0000
  C   C55       1.0  0.94066  0.9715900000000002  0.12985  1.0000
  C   C56       1.0  0.019609999999999992  0.035790000000000016  0.12224  1.0000
  C   C57       1.0  0.85706  0.12603  0.55922  1.0000
  C   C58       1.0  0.93272  0.14862  0.57008  1.0000
  C   C59       1.0  0.01634  0.17562000000000003  0.5907599999999997  1.0000
  C   C60       1.0  0.07793999999999997  0.20354000000000003  0.53627  1.0000
  C   C61       1.0  0.17574999999999988  0.23012  0.63546  1.0000
  C   C62       1.0  0.04367  0.17564000000000005  0.6699  1.0000
  C   C63       1.0  0.5605099999999997  0.028600000000000004  0.6283099999999998  1.0000
  C   C64       1.0  0.4816799999999999  0.9630300000000003  0.62529  1.0000
  N   N1        1.0  0.3435299999999999  0.7288000000000001  0.56048  1.0000
  N   N2        1.0  0.38024  0.7023400000000002  0.69389  1.0000
  N   N3        1.0  0.15687  0.26777000000000006  0.05791  1.0000
  N   N4        1.0  0.12129999999999998  0.2973  0.19068999999999994  1.0000
  N   N5        1.0  0.6587099999999999  0.22626  0.94143  1.0000
  N   N6        1.0  0.62094  0.20267000000000004  0.8074399999999998  1.0000
  N   N7        1.0  0.8431999999999997  0.76967  0.44175  1.0000
  N   N8        1.0  0.8780199999999998  0.79926  0.30923  1.0000
  N   N9        1.0  0.6565699999999998  0.2711600000000001  0.44015  1.0000
  N   N10       1.0  0.62008  0.29573000000000005  0.30647  1.0000
  N   N11       1.0  0.8434999999999998  0.7322300000000003  0.94188  1.0000
  N   N12       1.0  0.8782099999999998  0.7030300000000003  0.8087099999999998  1.0000
  N   N13       1.0  0.3431599999999999  0.7729500000000002  0.059699999999999996  1.0000
  N   N14       1.0  0.3802999999999999  0.7971700000000002  0.1936  1.0000
  N   N15       1.0  0.15671  0.23037  0.55864  1.0000
  N   N16       1.0  0.12232  0.20258000000000007  0.69145  1.0000
  O   O1        1.0  0.9484299999999998  0.6121000000000002  0.64268  1.0000
  O   O2        1.0  0.87362  0.4811100000000001  0.6054699999999997  1.0000
  O   O3        1.0  0.5535299999999997  0.38973000000000013  0.14738  1.0000
  O   O4        1.0  0.62762  0.51868  0.10637  1.0000
  O   O5        1.0  0.05151  0.11180000000000002  0.8503  1.0000
  O   O6        1.0  0.12965999999999994  0.9856400000000002  0.8937899999999998  1.0000
  O   O7        1.0  0.45014  0.8873100000000003  0.352  1.0000
  O   O8        1.0  0.37228  0.014110000000000003  0.3949199999999999  1.0000
  O   O9        1.0  0.048079999999999984  0.3869700000000001  0.3516999999999999  1.0000
  O   O10       1.0  0.12803999999999993  0.51475  0.3862399999999999  1.0000
  O   O11       1.0  0.4466699999999999  0.60677  0.85227  1.0000
  O   O12       1.0  0.3724499999999999  0.4809700000000001  0.89797  1.0000
  O   O13       1.0  0.9520399999999998  0.88951  0.15207999999999994  1.0000
  O   O14       1.0  0.8720499999999998  0.014940000000000004  0.10984  1.0000
  O   O15       1.0  0.5497599999999998  0.11161000000000003  0.6490799999999999  1.0000
  O   O16       1.0  0.62815  0.9854400000000002  0.60636  1.0000
  F   F1        1.0  0.02653999999999999  0.4199500000000001  0.55334  1.0000
  F   F2        1.0  0.09552  0.51036  0.63656  1.0000
  F   F3        1.0  0.01697  0.3972000000000001  0.6803299999999998  1.0000
  F   F4        1.0  0.47147999999999995  0.57896  0.053729999999999986  1.0000
  F   F5        1.0  0.40723  0.4877200000000002  0.13668  1.0000
  F   F6        1.0  0.4882599999999999  0.6050800000000002  0.17971999999999994  1.0000
  F   F7        1.0  0.9783299999999998  0.9256500000000002  0.94947  1.0000
  F   F8        1.0  0.90807  0.01048  0.8633499999999997  1.0000
  F   F9        1.0  0.98729  0.8932500000000002  0.82392  1.0000
  F   F10       1.0  0.5242999999999998  0.07940000000000003  0.44645  1.0000
  F   F11       1.0  0.59354  0.99015  0.3633899999999999  1.0000
  F   F12       1.0  0.5107099999999998  0.10253000000000001  0.3196  1.0000
  F   F13       1.0  0.9823699999999997  0.5788799999999998  0.4499399999999999  1.0000
  F   F14       1.0  0.9044899999999998  0.49037000000000003  0.37131  1.0000
  F   F15       1.0  0.97873  0.6058600000000002  0.3235999999999999  1.0000
  F   F16       1.0  0.52826  0.4161600000000001  0.9463799999999999  1.0000
  F   F17       1.0  0.5932999999999998  0.50538  0.8630599999999998  1.0000
  F   F18       1.0  0.51074  0.3929600000000001  0.8197299999999997  1.0000
  F   F19       1.0  0.01821  0.07495  0.05  1.0000
  F   F20       1.0  0.0953  0.9905900000000002  0.13258  1.0000
  F   F21       1.0  0.017159999999999995  0.10696000000000003  0.1762  1.0000
  F   F22       1.0  0.4759599999999999  0.92051  0.55403  1.0000
  F   F23       1.0  0.40705999999999987  0.00951  0.63711  1.0000
  F   F24       1.0  0.4889499999999999  0.8936000000000002  0.6800199999999997  1.0000
