data_image0
_chemical_formula_structural       Cu8H40C76N16O28
_chemical_formula_sum              "Cu8 H40 C76 N16 O28"
_cell_length_a       10.43685
_cell_length_b       10.62083
_cell_length_c       20.09159
_cell_angle_alpha    89.96262999999999
_cell_angle_beta     90.01882
_cell_angle_gamma    111.80319

_space_group_name_H-M_alt    "P 1"
_space_group_IT_number       1

loop_
  _space_group_symop_operation_xyz
  'x, y, z'

loop_
  _atom_site_type_symbol
  _atom_site_label
  _atom_site_symmetry_multiplicity
  _atom_site_fract_x
  _atom_site_fract_y
  _atom_site_fract_z
  _atom_site_occupancy
  Cu  Cu1       1.0  0.54152  0.96817  0.10583  1.0000
  Cu  Cu2       1.0  0.9742199999999999  0.49552  0.85573  1.0000
  Cu  Cu3       1.0  0.95926  0.03204  0.60536  1.0000
  Cu  Cu4       1.0  0.52563  0.50439  0.35518  1.0000
  Cu  Cu5       1.0  0.45841  0.03186  0.8941800000000001  1.0000
  Cu  Cu6       1.0  0.025770000000000005  0.50449  0.14424  1.0000
  Cu  Cu7       1.0  0.040760000000000025  0.9679599999999999  0.39465  1.0000
  Cu  Cu8       1.0  0.47439  0.49566  0.64479  1.0000
  H   H1        1.0  0.28089  0.76362  0.15058  1.0000
  H   H2        1.0  0.15262  0.03397  0.9834599999999999  1.0000
  H   H3        1.0  0.39558  0.08921  0.01926  1.0000
  H   H4        1.0  0.9632399999999999  0.84015  0.0394  1.0000
  H   H5        1.0  0.83927  0.2753  0.24258000000000002  1.0000
  H   H6        1.0  0.64657  0.27177  0.3204  1.0000
  H   H7        1.0  0.6677  0.64462  0.24396  1.0000
  H   H8        1.0  0.70966  0.72476  0.00974  1.0000
  H   H9        1.0  0.46491  0.43875  0.15514  1.0000
  H   H10       1.0  0.73111  0.32964  0.02338  1.0000
  H   H11       1.0  0.2196  0.23653  0.6505  1.0000
  H   H12       1.0  0.3481099999999999  0.9668399999999999  0.48333000000000004  1.0000
  H   H13       1.0  0.10514  0.91112  0.51928  1.0000
  H   H14       1.0  0.53738  0.16055  0.5393  1.0000
  H   H15       1.0  0.6612000000000001  0.72522  0.74251  1.0000
  H   H16       1.0  0.8539500000000001  0.72878  0.82038  1.0000
  H   H17       1.0  0.8330199999999999  0.35606  0.74414  1.0000
  H   H18       1.0  0.79046  0.27566  0.50975  1.0000
  H   H19       1.0  0.03516999999999999  0.56125  0.65519  1.0000
  H   H20       1.0  0.7693800000000001  0.67091  0.52314  1.0000
  H   H21       1.0  0.7191100000000001  0.23639  0.8494  1.0000
  H   H22       1.0  0.8473900000000001  0.9660800000000002  0.01654  1.0000
  H   H23       1.0  0.60444  0.91081  0.98074  1.0000
  H   H24       1.0  0.03676  0.15993  0.9606199999999999  1.0000
  H   H25       1.0  0.16084000000000007  0.72477  0.75745  1.0000
  H   H26       1.0  0.35368  0.72838  0.67969  1.0000
  H   H27       1.0  0.33242  0.35545  0.75609  1.0000
  H   H28       1.0  0.29037  0.27523  0.99022  1.0000
  H   H29       1.0  0.53521  0.5613  0.8448900000000001  1.0000
  H   H30       1.0  0.26891  0.67035  0.97663  1.0000
  H   H31       1.0  0.7804100000000002  0.76348  0.34951  1.0000
  H   H32       1.0  0.65189  0.03322  0.51665  1.0000
  H   H33       1.0  0.89487  0.0889  0.48072  1.0000
  H   H34       1.0  0.46262  0.83953  0.4606700000000001  1.0000
  H   H35       1.0  0.33889  0.27484  0.25746  1.0000
  H   H36       1.0  0.14629  0.27135  0.17953  1.0000
  H   H37       1.0  0.16711  0.64402  0.2558  1.0000
  H   H38       1.0  0.20954  0.72434  0.49028000000000005  1.0000
  H   H39       1.0  0.96495  0.43879  0.34479  1.0000
  H   H40       1.0  0.23065  0.3291  0.47687999999999997  1.0000
  C   C1        1.0  0.24645  0.82297  0.11572  1.0000
  C   C2        1.0  0.10558000000000001  0.79185  0.10245000000000001  1.0000
  C   C3        1.0  0.17519  0.97427  0.02247  1.0000
  C   C4        1.0  0.31182  0.00381  0.04055  1.0000
  C   C5        1.0  0.07063  0.86784  0.0535  1.0000
  C   C6        1.0  0.79998  0.35697  0.24270000000000003  1.0000
  C   C7        1.0  0.6931499999999999  0.35388  0.28519  1.0000
  C   C8        1.0  0.70619  0.56225  0.24472  1.0000
  C   C9        1.0  0.81725  0.56921  0.20464999999999997  1.0000
  C   C10       1.0  0.89571  0.69494  0.16518  1.0000
  C   C11       1.0  0.5339  0.69814  0.11526000000000002  1.0000
  C   C12       1.0  0.58268  0.59399  0.08623  1.0000
  C   C13       1.0  0.67663  0.62566  0.03322  1.0000
  C   C14       1.0  0.5391199999999999  0.46464999999999995  0.11468000000000002  1.0000
  C   C15       1.0  0.55008  0.23408999999999996  0.12707  1.0000
  C   C16       1.0  0.59271  0.36906  0.09286  1.0000
  C   C17       1.0  0.68815  0.40257  0.04056  1.0000
  C   C18       1.0  0.72942  0.53048  0.01026  1.0000
  C   C19       1.0  0.8304  0.56545  0.95361  1.0000
  C   C20       1.0  0.25414  0.17728  0.61567  1.0000
  C   C21       1.0  0.39504  0.20845999999999998  0.60247  1.0000
  C   C22       1.0  0.32553  0.02628  0.52241  1.0000
  C   C23       1.0  0.18891  0.9966  0.54048  1.0000
  C   C24       1.0  0.43002999999999997  0.13262  0.5535  1.0000
  C   C25       1.0  0.7004900000000002  0.64357  0.74273  1.0000
  C   C26       1.0  0.80745  0.64677  0.78516  1.0000
  C   C27       1.0  0.79437  0.43832  0.74489  1.0000
  C   C28       1.0  0.68298  0.43113  0.70497  1.0000
  C   C29       1.0  0.6043  0.30511  0.66582  1.0000
  C   C30       1.0  0.9663400000000001  0.30208  0.61561  1.0000
  C   C31       1.0  0.9175600000000002  0.40622  0.58634  1.0000
  C   C32       1.0  0.82363  0.37466  0.53329  1.0000
  C   C33       1.0  0.96107  0.53555  0.61468  1.0000
  C   C34       1.0  0.9507100000000002  0.76619  0.6268  1.0000
  C   C35       1.0  0.9076500000000001  0.63126  0.59267  1.0000
  C   C36       1.0  0.81207  0.59776  0.54042  1.0000
  C   C37       1.0  0.77064  0.46975999999999996  0.51027  1.0000
  C   C38       1.0  0.6692899999999998  0.43385  0.4537  1.0000
  C   C39       1.0  0.75355  0.17705  0.88427  1.0000
  C   C40       1.0  0.89442  0.20821  0.8975500000000001  1.0000
  C   C41       1.0  0.82481  0.025780000000000004  0.9775299999999999  1.0000
  C   C42       1.0  0.68818  0.99622  0.9594399999999998  1.0000
  C   C43       1.0  0.92938  0.13223  0.94651  1.0000
  C   C44       1.0  0.20014000000000007  0.64311  0.75732  1.0000
  C   C45       1.0  0.30701  0.64623  0.71487  1.0000
  C   C46       1.0  0.29391000000000006  0.4378000000000001  0.75532  1.0000
  C   C47       1.0  0.18284  0.43084  0.79538  1.0000
  C   C48       1.0  0.10432  0.3051  0.8348300000000001  1.0000
  C   C49       1.0  0.4661  0.30185  0.88479  1.0000
  C   C50       1.0  0.41738  0.40606000000000003  0.91379  1.0000
  C   C51       1.0  0.3234  0.37437  0.9667800000000001  1.0000
  C   C52       1.0  0.46098  0.5354  0.8853299999999998  1.0000
  C   C53       1.0  0.44997  0.76595  0.87293  1.0000
  C   C54       1.0  0.40735000000000005  0.63098  0.9071400000000001  1.0000
  C   C55       1.0  0.3119  0.59744  0.95943  1.0000
  C   C56       1.0  0.2706  0.46954  0.98973  1.0000
  C   C57       1.0  0.16960999999999998  0.43456999999999996  0.04636  1.0000
  C   C58       1.0  0.74587  0.82275  0.38433  1.0000
  C   C59       1.0  0.60496  0.7916  0.39751  1.0000
  C   C60       1.0  0.67448  0.97377  0.47757  1.0000
  C   C61       1.0  0.8111  0.00343  0.45951  1.0000
  C   C62       1.0  0.56998  0.86744  0.44648000000000004  1.0000
  C   C63       1.0  0.2996  0.3565  0.25725  1.0000
  C   C64       1.0  0.1927  0.35334  0.21477999999999997  1.0000
  C   C65       1.0  0.20571  0.56173  0.25505  1.0000
  C   C66       1.0  0.31706  0.5689  0.295  1.0000
  C   C67       1.0  0.3957  0.69492  0.33416  1.0000
  C   C68       1.0  0.03369  0.69793  0.38439  1.0000
  C   C69       1.0  0.08248000000000003  0.59378  0.41366  1.0000
  C   C70       1.0  0.17639  0.62535  0.46672  1.0000
  C   C71       1.0  0.038999999999999986  0.46446999999999994  0.38531  1.0000
  C   C72       1.0  0.04932999999999999  0.23380999999999996  0.3732  1.0000
  C   C73       1.0  0.0924  0.36875  0.40732999999999997  1.0000
  C   C74       1.0  0.18797000000000003  0.40225  0.45959000000000005  1.0000
  C   C75       1.0  0.22939000000000004  0.53025  0.48973000000000005  1.0000
  C   C76       1.0  0.33075  0.56617  0.5463  1.0000
  N   N1        1.0  0.34545  0.92677  0.08571  1.0000
  N   N2        1.0  0.009870000000000006  0.68433  0.13716  1.0000
  N   N3        1.0  0.86181  0.46544  0.20352000000000003  1.0000
  N   N4        1.0  0.64712  0.4566700000000001  0.28586  1.0000
  N   N5        1.0  0.15525  0.07352  0.58562  1.0000
  N   N6        1.0  0.4908100000000001  0.316  0.63713  1.0000
  N   N7        1.0  0.63847  0.53491  0.70372  1.0000
  N   N8        1.0  0.85362  0.54404  0.78588  1.0000
  N   N9        1.0  0.65454  0.07325  0.9142799999999999  1.0000
  N   N10       1.0  0.9901599999999999  0.31571  0.86284  1.0000
  N   N11       1.0  0.13834  0.53466  0.7965200000000001  1.0000
  N   N12       1.0  0.35309  0.54346  0.71422  1.0000
  N   N13       1.0  0.84476  0.9265000000000001  0.41439000000000004  1.0000
  N   N14       1.0  0.5092  0.68404  0.36286  1.0000
  N   N15       1.0  0.36164  0.46518  0.29623  1.0000
  N   N16       1.0  0.1466  0.4561  0.214  1.0000
  O   O1        1.0  0.57795  0.81454  0.08315  1.0000
  O   O2        1.0  0.45939  0.67461  0.16551  1.0000
  O   O3        1.0  0.61542  0.15691  0.10473  1.0000
  O   O4        1.0  0.46180999999999994  0.20059  0.17174  1.0000
  O   O5        1.0  0.85782  0.46207  0.93217  1.0000
  O   O6        1.0  0.88158  0.6823  0.9299699999999999  1.0000
  O   O7        1.0  0.8573800000000001  0.79243  0.16469  1.0000
  O   O8        1.0  0.92427  0.18666  0.58261  1.0000
  O   O9        1.0  0.038830000000000024  0.32488  0.66661  1.0000
  O   O10       1.0  0.88377  0.8431300000000002  0.60592  1.0000
  O   O11       1.0  0.04093999999999998  0.80001  0.67049  1.0000
  O   O12       1.0  0.6427  0.53711  0.43118999999999996  1.0000
  O   O13       1.0  0.6175300000000001  0.3162  0.43118  1.0000
  O   O14       1.0  0.64214  0.2073  0.66617  1.0000
  O   O15       1.0  0.4220900000000001  0.18551  0.91697  1.0000
  O   O16       1.0  0.54054  0.3253  0.83451  1.0000
  O   O17       1.0  0.38458  0.84311  0.89523  1.0000
  O   O18       1.0  0.53826  0.79942  0.8282600000000001  1.0000
  O   O19       1.0  0.14213  0.53793  0.06778  1.0000
  O   O20       1.0  0.11847  0.31773  0.07002  1.0000
  O   O21       1.0  0.14262  0.20759  0.83531  1.0000
  O   O22       1.0  0.07578000000000003  0.8133499999999999  0.4174  1.0000
  O   O23       1.0  0.96118  0.67512  0.3334  1.0000
  O   O24       1.0  0.11625  0.15688  0.39409  1.0000
  O   O25       1.0  0.95911  0.2  0.3295  1.0000
  O   O26       1.0  0.35739  0.46292  0.5688  1.0000
  O   O27       1.0  0.3824600000000001  0.68381  0.56884  1.0000
  O   O28       1.0  0.35785  0.79271  0.33382  1.0000
