data_image0
_chemical_formula_structural       In8H56C96O40
_chemical_formula_sum              "In8 H56 C96 O40"
_cell_length_a       7.33154
_cell_length_b       22.27631
_cell_length_c       22.27631
_cell_angle_alpha    90.0
_cell_angle_beta     90.0
_cell_angle_gamma    90.0

_space_group_name_H-M_alt    "P 1"
_space_group_IT_number       1

loop_
  _space_group_symop_operation_xyz
  'x, y, z'

loop_
  _atom_site_type_symbol
  _atom_site_label
  _atom_site_symmetry_multiplicity
  _atom_site_fract_x
  _atom_site_fract_y
  _atom_site_fract_z
  _atom_site_occupancy
  In  In1       1.0  0.0  0.75004  0.24996  1.0000
  In  In2       1.0  0.0  0.24996  0.75004  1.0000
  In  In3       1.0  0.0  0.24996  0.24996  1.0000
  In  In4       1.0  0.0  0.75004  0.75004  1.0000
  In  In5       1.0  0.5  0.7500499999999998  0.24994999999999998  1.0000
  In  In6       1.0  0.5  0.24994999999999998  0.7500499999999998  1.0000
  In  In7       1.0  0.5  0.24994999999999998  0.24994999999999998  1.0000
  In  In8       1.0  0.5  0.7500499999999998  0.7500499999999998  1.0000
  H   H1        1.0  0.51163  0.7313699999999997  0.056019999999999986  1.0000
  H   H2        1.0  0.94178  0.8238399999999998  0.11115  1.0000
  H   H3        1.0  0.6980900000000001  0.87512  0.05633  1.0000
  H   H4        1.0  0.24822000000000002  0.81469  0.68522  1.0000
  H   H5        1.0  0.51163  0.2686299999999999  0.94398  1.0000
  H   H6        1.0  0.94178  0.17614999999999997  0.88885  1.0000
  H   H7        1.0  0.6980900000000001  0.12488  0.9436699999999998  1.0000
  H   H8        1.0  0.51163  0.44397999999999993  0.23135999999999998  1.0000
  H   H9        1.0  0.9418000000000002  0.3888499999999999  0.32385  1.0000
  H   H10       1.0  0.6980900000000001  0.4436699999999999  0.37512  1.0000
  H   H11       1.0  0.24821000000000004  0.81469  0.31477999999999995  1.0000
  H   H12       1.0  0.51163  0.55602  0.76864  1.0000
  H   H13       1.0  0.9418000000000002  0.61115  0.6761499999999999  1.0000
  H   H14       1.0  0.6980900000000001  0.55633  0.6248799999999999  1.0000
  H   H15       1.0  0.24822000000000002  0.18530999999999997  0.68522  1.0000
  H   H16       1.0  0.48837000000000014  0.76864  0.55602  1.0000
  H   H17       1.0  0.05821  0.6761499999999999  0.61115  1.0000
  H   H18       1.0  0.30191  0.6248799999999999  0.55633  1.0000
  H   H19       1.0  0.48837000000000014  0.23135999999999998  0.44397999999999993  1.0000
  H   H20       1.0  0.05821  0.32385  0.3888499999999999  1.0000
  H   H21       1.0  0.30191  0.37512  0.4436699999999999  1.0000
  H   H22       1.0  0.48837000000000014  0.056019999999999986  0.7313699999999997  1.0000
  H   H23       1.0  0.05823  0.11115  0.8238399999999998  1.0000
  H   H24       1.0  0.30192  0.05633  0.87512  1.0000
  H   H25       1.0  0.7517900000000002  0.68522  0.81469  1.0000
  H   H26       1.0  0.48837000000000014  0.94398  0.2686299999999999  1.0000
  H   H27       1.0  0.05823  0.88885  0.17614999999999997  1.0000
  H   H28       1.0  0.30192  0.9436699999999998  0.12488  1.0000
  H   H29       1.0  0.7517900000000002  0.31477999999999995  0.18530999999999997  1.0000
  H   H30       1.0  0.48838  0.76864  0.44397999999999993  1.0000
  H   H31       1.0  0.05821  0.6761499999999999  0.3888499999999999  1.0000
  H   H32       1.0  0.30191  0.6248799999999999  0.4436699999999999  1.0000
  H   H33       1.0  0.48838  0.23135999999999998  0.55602  1.0000
  H   H34       1.0  0.05821  0.32385  0.61115  1.0000
  H   H35       1.0  0.30191  0.37512  0.55633  1.0000
  H   H36       1.0  0.48837000000000014  0.056019999999999986  0.2686299999999999  1.0000
  H   H37       1.0  0.05823  0.11115  0.17614999999999997  1.0000
  H   H38       1.0  0.30192  0.05633  0.12488  1.0000
  H   H39       1.0  0.7517900000000002  0.68522  0.18530999999999997  1.0000
  H   H40       1.0  0.48837000000000014  0.94398  0.7313699999999997  1.0000
  H   H41       1.0  0.05823  0.88885  0.8238399999999998  1.0000
  H   H42       1.0  0.30192  0.9436699999999998  0.87512  1.0000
  H   H43       1.0  0.7517900000000002  0.31477999999999995  0.81469  1.0000
  H   H44       1.0  0.5116400000000002  0.7313699999999997  0.94398  1.0000
  H   H45       1.0  0.94178  0.8238399999999998  0.88885  1.0000
  H   H46       1.0  0.6980900000000001  0.87512  0.9436699999999998  1.0000
  H   H47       1.0  0.5116400000000002  0.2686299999999999  0.056019999999999986  1.0000
  H   H48       1.0  0.94178  0.17614999999999997  0.11115  1.0000
  H   H49       1.0  0.6980900000000001  0.12488  0.05633  1.0000
  H   H50       1.0  0.51163  0.44397999999999993  0.76864  1.0000
  H   H51       1.0  0.9418000000000002  0.3888499999999999  0.6761499999999999  1.0000
  H   H52       1.0  0.6980900000000001  0.4436699999999999  0.6248799999999999  1.0000
  H   H53       1.0  0.51163  0.55602  0.23135999999999998  1.0000
  H   H54       1.0  0.9418000000000002  0.61115  0.32385  1.0000
  H   H55       1.0  0.6980900000000001  0.55633  0.37512  1.0000
  H   H56       1.0  0.24822000000000002  0.18530999999999997  0.31477999999999995  1.0000
  C   C1        1.0  0.25264  0.7620499999999999  0.13061  1.0000
  C   C2        1.0  0.24730000000000005  0.7708599999999998  0.06368  1.0000
  C   C3        1.0  0.3957900000000001  0.7493499999999998  0.03147  1.0000
  C   C4        1.0  0.09493  0.7971699999999998  0.03248  1.0000
  C   C5        1.0  0.94585  0.82499  0.06265  1.0000
  C   C6        1.0  0.8079300000000003  0.8535199999999998  0.03158  1.0000
  C   C7        1.0  0.25264  0.23794999999999994  0.86939  1.0000
  C   C8        1.0  0.24730000000000005  0.22913999999999998  0.93631  1.0000
  C   C9        1.0  0.3957900000000001  0.25065  0.96853  1.0000
  C   C10       1.0  0.09493  0.20282999999999998  0.9675199999999999  1.0000
  C   C11       1.0  0.94585  0.17501  0.9373499999999998  1.0000
  C   C12       1.0  0.8079300000000003  0.14648  0.9684199999999997  1.0000
  C   C13       1.0  0.25265  0.36937  0.26206  1.0000
  C   C14       1.0  0.24729000000000007  0.43630999999999986  0.27085  1.0000
  C   C15       1.0  0.3957700000000001  0.46853  0.24934999999999996  1.0000
  C   C16       1.0  0.09494  0.46752  0.29717  1.0000
  C   C17       1.0  0.94585  0.43734999999999996  0.32499  1.0000
  C   C18       1.0  0.8079300000000003  0.46842  0.35351999999999995  1.0000
  C   C19       1.0  0.25265  0.6306299999999999  0.73794  1.0000
  C   C20       1.0  0.24729000000000007  0.56369  0.72915  1.0000
  C   C21       1.0  0.3957700000000001  0.5314699999999999  0.7506499999999998  1.0000
  C   C22       1.0  0.09494  0.5324799999999998  0.70283  1.0000
  C   C23       1.0  0.94585  0.56265  0.67501  1.0000
  C   C24       1.0  0.8079300000000003  0.53158  0.64648  1.0000
  C   C25       1.0  0.74735  0.73794  0.6306299999999999  1.0000
  C   C26       1.0  0.75271  0.72915  0.56369  1.0000
  C   C27       1.0  0.60423  0.7506499999999998  0.5314699999999999  1.0000
  C   C28       1.0  0.9050700000000003  0.70283  0.5324799999999998  1.0000
  C   C29       1.0  0.054150000000000004  0.67501  0.56265  1.0000
  C   C30       1.0  0.19207000000000005  0.64648  0.53158  1.0000
  C   C31       1.0  0.74735  0.26206  0.36937  1.0000
  C   C32       1.0  0.75271  0.27085  0.43630999999999986  1.0000
  C   C33       1.0  0.60423  0.24934999999999996  0.46853  1.0000
  C   C34       1.0  0.9050700000000003  0.29717  0.46752  1.0000
  C   C35       1.0  0.054150000000000004  0.32499  0.43734999999999996  1.0000
  C   C36       1.0  0.19207000000000005  0.35351999999999995  0.46842  1.0000
  C   C37       1.0  0.7473600000000002  0.13061  0.7620499999999999  1.0000
  C   C38       1.0  0.75271  0.06368  0.7708599999999998  1.0000
  C   C39       1.0  0.6042200000000002  0.03147  0.7493499999999998  1.0000
  C   C40       1.0  0.9050700000000003  0.03248  0.7971699999999998  1.0000
  C   C41       1.0  0.054150000000000004  0.06265  0.82499  1.0000
  C   C42       1.0  0.19207000000000005  0.03158  0.8535199999999998  1.0000
  C   C43       1.0  0.7473600000000002  0.86939  0.23794999999999994  1.0000
  C   C44       1.0  0.75271  0.93631  0.22913999999999998  1.0000
  C   C45       1.0  0.6042200000000002  0.96853  0.25065  1.0000
  C   C46       1.0  0.9050700000000003  0.9675199999999999  0.20282999999999998  1.0000
  C   C47       1.0  0.054150000000000004  0.9373499999999998  0.17501  1.0000
  C   C48       1.0  0.19207000000000005  0.9684199999999997  0.14648  1.0000
  C   C49       1.0  0.74735  0.73794  0.36937  1.0000
  C   C50       1.0  0.75271  0.72915  0.43630999999999986  1.0000
  C   C51       1.0  0.60423  0.7506499999999998  0.46853  1.0000
  C   C52       1.0  0.9050700000000003  0.70283  0.46752  1.0000
  C   C53       1.0  0.054150000000000004  0.67501  0.43734999999999996  1.0000
  C   C54       1.0  0.19207000000000005  0.64648  0.46842  1.0000
  C   C55       1.0  0.74735  0.26206  0.6306299999999999  1.0000
  C   C56       1.0  0.75271  0.27085  0.56369  1.0000
  C   C57       1.0  0.60423  0.24934999999999996  0.5314699999999999  1.0000
  C   C58       1.0  0.9050700000000003  0.29717  0.5324799999999998  1.0000
  C   C59       1.0  0.054150000000000004  0.32499  0.56265  1.0000
  C   C60       1.0  0.19207000000000005  0.35351999999999995  0.53158  1.0000
  C   C61       1.0  0.7473600000000002  0.13061  0.23794999999999994  1.0000
  C   C62       1.0  0.75271  0.06368  0.22913999999999998  1.0000
  C   C63       1.0  0.6042200000000002  0.03147  0.25065  1.0000
  C   C64       1.0  0.9050700000000003  0.03248  0.20282999999999998  1.0000
  C   C65       1.0  0.054150000000000004  0.06265  0.17501  1.0000
  C   C66       1.0  0.19207000000000005  0.03158  0.14648  1.0000
  C   C67       1.0  0.7473600000000002  0.86939  0.7620499999999999  1.0000
  C   C68       1.0  0.75271  0.93631  0.7708599999999998  1.0000
  C   C69       1.0  0.6042200000000002  0.96853  0.7493499999999998  1.0000
  C   C70       1.0  0.9050700000000003  0.9675199999999999  0.7971699999999998  1.0000
  C   C71       1.0  0.054150000000000004  0.9373499999999998  0.82499  1.0000
  C   C72       1.0  0.19207000000000005  0.9684199999999997  0.8535199999999998  1.0000
  C   C73       1.0  0.25264  0.7620499999999999  0.86939  1.0000
  C   C74       1.0  0.24730000000000005  0.7708599999999998  0.93631  1.0000
  C   C75       1.0  0.3957900000000001  0.7493499999999998  0.96853  1.0000
  C   C76       1.0  0.09493  0.7971699999999998  0.9675199999999999  1.0000
  C   C77       1.0  0.94585  0.82499  0.9373499999999998  1.0000
  C   C78       1.0  0.8079300000000003  0.8535199999999998  0.9684199999999997  1.0000
  C   C79       1.0  0.25264  0.23794999999999994  0.13061  1.0000
  C   C80       1.0  0.24730000000000005  0.22913999999999998  0.06368  1.0000
  C   C81       1.0  0.3957900000000001  0.25065  0.03147  1.0000
  C   C82       1.0  0.09493  0.20282999999999998  0.03248  1.0000
  C   C83       1.0  0.94585  0.17501  0.06265  1.0000
  C   C84       1.0  0.8079300000000003  0.14648  0.03158  1.0000
  C   C85       1.0  0.25265  0.36937  0.73794  1.0000
  C   C86       1.0  0.24729000000000007  0.43630999999999986  0.72915  1.0000
  C   C87       1.0  0.3957700000000001  0.46853  0.7506499999999998  1.0000
  C   C88       1.0  0.09494  0.46752  0.70283  1.0000
  C   C89       1.0  0.94585  0.43734999999999996  0.67501  1.0000
  C   C90       1.0  0.8079300000000003  0.46842  0.64648  1.0000
  C   C91       1.0  0.25265  0.6306299999999999  0.26205  1.0000
  C   C92       1.0  0.24729000000000007  0.56369  0.27085  1.0000
  C   C93       1.0  0.3957700000000001  0.5314699999999999  0.24934999999999996  1.0000
  C   C94       1.0  0.09494  0.5324799999999998  0.29717  1.0000
  C   C95       1.0  0.94585  0.56265  0.32499  1.0000
  C   C96       1.0  0.8079300000000003  0.53158  0.35351999999999995  1.0000
  O   O1        1.0  0.4098400000000001  0.7575899999999999  0.15481999999999999  1.0000
  O   O2        1.0  0.09941  0.7573299999999997  0.15744  1.0000
  O   O3        1.0  0.4098400000000001  0.24240999999999996  0.8451799999999999  1.0000
  O   O4        1.0  0.09941  0.24267  0.84256  1.0000
  O   O5        1.0  0.40986  0.34515  0.2576  1.0000
  O   O6        1.0  0.09941  0.34253  0.25735  1.0000
  O   O7        1.0  0.40986  0.6548499999999999  0.7423999999999998  1.0000
  O   O8        1.0  0.09941  0.6574699999999999  0.7426499999999999  1.0000
  O   O9        1.0  0.59014  0.7423999999999998  0.6548499999999999  1.0000
  O   O10       1.0  0.9006  0.7426499999999999  0.6574699999999999  1.0000
  O   O11       1.0  0.59014  0.2576  0.34515  1.0000
  O   O12       1.0  0.9006  0.25735  0.34253  1.0000
  O   O13       1.0  0.59017  0.15481999999999999  0.7575899999999999  1.0000
  O   O14       1.0  0.90059  0.15744  0.7573299999999997  1.0000
  O   O15       1.0  0.59017  0.8451799999999999  0.24240999999999996  1.0000
  O   O16       1.0  0.90059  0.84256  0.24267  1.0000
  O   O17       1.0  0.59014  0.7423999999999998  0.34515  1.0000
  O   O18       1.0  0.90059  0.7426499999999999  0.34253  1.0000
  O   O19       1.0  0.59014  0.2576  0.6548499999999999  1.0000
  O   O20       1.0  0.90059  0.25735  0.6574699999999999  1.0000
  O   O21       1.0  0.59017  0.15481999999999999  0.24240999999999996  1.0000
  O   O22       1.0  0.9006  0.15744  0.24267  1.0000
  O   O23       1.0  0.59017  0.8451799999999999  0.7575899999999999  1.0000
  O   O24       1.0  0.9006  0.84256  0.7573299999999997  1.0000
  O   O25       1.0  0.4098400000000001  0.7575899999999999  0.8451799999999999  1.0000
  O   O26       1.0  0.09941  0.7573299999999997  0.84256  1.0000
  O   O27       1.0  0.4098400000000001  0.24240999999999996  0.15481999999999999  1.0000
  O   O28       1.0  0.09941  0.24267  0.15744  1.0000
  O   O29       1.0  0.40986  0.34515  0.7423999999999998  1.0000
  O   O30       1.0  0.09941  0.34253  0.7426499999999999  1.0000
  O   O31       1.0  0.40986  0.6548499999999999  0.2576  1.0000
  O   O32       1.0  0.09941  0.6574699999999999  0.25735  1.0000
  O   O33       1.0  0.24895000000000006  0.78435  0.28356  1.0000
  O   O34       1.0  0.24895000000000006  0.21564999999999995  0.7164399999999997  1.0000
  O   O35       1.0  0.24895000000000006  0.21564999999999995  0.28356  1.0000
  O   O36       1.0  0.24895000000000006  0.78435  0.7164399999999997  1.0000
  O   O37       1.0  0.7510500000000001  0.7164399999999997  0.78435  1.0000
  O   O38       1.0  0.7510500000000001  0.28356  0.21564999999999995  1.0000
  O   O39       1.0  0.7510500000000001  0.28356  0.78435  1.0000
  O   O40       1.0  0.7510500000000001  0.7164399999999997  0.21564999999999995  1.0000
