data_image0
_chemical_formula_structural       Cd4H72C96N12O16
_chemical_formula_sum              "Cd4 H72 C96 N12 O16"
_cell_length_a       11.05721
_cell_length_b       12.56477
_cell_length_c       17.41792
_cell_angle_alpha    90.24505
_cell_angle_beta     90.03906
_cell_angle_gamma    106.42928

_space_group_name_H-M_alt    "P 1"
_space_group_IT_number       1

loop_
  _space_group_symop_operation_xyz
  'x, y, z'

loop_
  _atom_site_type_symbol
  _atom_site_label
  _atom_site_symmetry_multiplicity
  _atom_site_fract_x
  _atom_site_fract_y
  _atom_site_fract_z
  _atom_site_occupancy
  Cd  Cd1       1.0  0.22411  0.07697  0.56352  1.0000
  Cd  Cd2       1.0  0.72143  0.5765899999999999  0.9357400000000001  1.0000
  Cd  Cd3       1.0  0.28057  0.42498  0.06351  1.0000
  Cd  Cd4       1.0  0.7744800000000002  0.92171  0.43623  1.0000
  H   H1        1.0  0.5647299999999998  0.4678299999999999  0.46489  1.0000
  H   H2        1.0  0.6568499999999999  0.17441  0.5441  1.0000
  H   H3        1.0  0.87948  0.26149  0.49771  1.0000
  H   H4        1.0  0.9365800000000001  0.45405  0.44491  1.0000
  H   H5        1.0  0.8891800000000001  0.61685  0.42824  1.0000
  H   H6        1.0  0.7381400000000001  0.632  0.45088  1.0000
  H   H7        1.0  0.8774400000000002  0.46693999999999997  0.31076  1.0000
  H   H8        1.0  0.83205  0.45603999999999995  0.17136  1.0000
  H   H9        1.0  0.58072  0.65708  0.20039  1.0000
  H   H10       1.0  0.6239600000000001  0.66857  0.34186  1.0000
  H   H11       1.0  0.19836  0.11582999999999997  0.74456  1.0000
  H   H12       1.0  0.07484  0.19746  0.83277  1.0000
  H   H13       1.0  0.8566400000000001  0.24512  0.63536  1.0000
  H   H14       1.0  0.9884200000000002  0.15819  0.55543  1.0000
  H   H15       1.0  0.9304200000000002  0.46964  0.94266  1.0000
  H   H16       1.0  0.03254999999999999  0.3450599999999999  0.87688  1.0000
  H   H17       1.0  0.71939  0.26702999999999993  0.71557  1.0000
  H   H18       1.0  0.6284400000000001  0.39267999999999986  0.79043  1.0000
  H   H19       1.0  0.06805999999999998  0.96602  0.03596  1.0000
  H   H20       1.0  0.15440000000000006  0.67008  0.95443  1.0000
  H   H21       1.0  0.3767300000000001  0.75373  0.00257  1.0000
  H   H22       1.0  0.4378099999999999  0.9471699999999997  0.05539  1.0000
  H   H23       1.0  0.39396  0.11173999999999999  0.07268  1.0000
  H   H24       1.0  0.24399000000000004  0.12918999999999997  0.04951  1.0000
  H   H25       1.0  0.38283000000000006  0.9661899999999999  0.19002  1.0000
  H   H26       1.0  0.33535  0.9554999999999999  0.3292  1.0000
  H   H27       1.0  0.08191000000000001  0.15403  0.29898  1.0000
  H   H28       1.0  0.12665  0.16487  0.15776  1.0000
  H   H29       1.0  0.6913800000000002  0.61004  0.75508  1.0000
  H   H30       1.0  0.56834  0.69167  0.66678  1.0000
  H   H31       1.0  0.3602300000000001  0.75333  0.8652  1.0000
  H   H32       1.0  0.49056000000000005  0.6648399999999999  0.9450800000000001  1.0000
  H   H33       1.0  0.42983  0.9658199999999999  0.55605  1.0000
  H   H34       1.0  0.5304899999999999  0.8411699999999998  0.62255  1.0000
  H   H35       1.0  0.22  0.77165  0.78488  1.0000
  H   H36       1.0  0.12986999999999996  0.8964199999999999  0.70905  1.0000
  H   H37       1.0  0.93667  0.03433  0.96579  1.0000
  H   H38       1.0  0.8502800000000003  0.33121  0.04472  1.0000
  H   H39       1.0  0.62754  0.24722999999999995  0.9965900000000001  1.0000
  H   H40       1.0  0.56674  0.05315999999999999  0.9446500000000001  1.0000
  H   H41       1.0  0.6103300000000002  0.88872  0.9291200000000001  1.0000
  H   H42       1.0  0.7609500000000001  0.87152  0.95102  1.0000
  H   H43       1.0  0.6199700000000001  0.03424  0.81119  1.0000
  H   H44       1.0  0.66427  0.04325  0.67159  1.0000
  H   H45       1.0  0.91547  0.84229  0.70024  1.0000
  H   H46       1.0  0.8736800000000002  0.8328599999999999  0.84178  1.0000
  H   H47       1.0  0.30643999999999993  0.3888799999999999  0.24459999999999998  1.0000
  H   H48       1.0  0.42734  0.30547  0.33302  1.0000
  H   H49       1.0  0.64017  0.24800999999999998  0.13557  1.0000
  H   H50       1.0  0.51106  0.33705999999999997  0.05546  1.0000
  H   H51       1.0  0.56926  0.03303  0.44419  1.0000
  H   H52       1.0  0.4675100000000001  0.15664  0.37781  1.0000
  H   H53       1.0  0.77921  0.22975999999999994  0.21625  1.0000
  H   H54       1.0  0.8695999999999999  0.10456999999999998  0.29133  1.0000
  H   H55       1.0  0.42757  0.53213  0.53555  1.0000
  H   H56       1.0  0.3436600000000001  0.8289  0.45535  1.0000
  H   H57       1.0  0.12115999999999993  0.7467299999999998  0.50304  1.0000
  H   H58       1.0  0.05885000000000004  0.55372  0.55528  1.0000
  H   H59       1.0  0.10113999999999998  0.38897999999999994  0.57244  1.0000
  H   H60       1.0  0.25027  0.37003  0.54852  1.0000
  H   H61       1.0  0.11583  0.53449  0.69212  1.0000
  H   H62       1.0  0.16751  0.5441  0.83079  1.0000
  H   H63       1.0  0.41834  0.3442199999999999  0.79487  1.0000
  H   H64       1.0  0.3695  0.33475999999999995  0.65414  1.0000
  H   H65       1.0  0.8025799999999997  0.8863799999999998  0.25516  1.0000
  H   H66       1.0  0.9257400000000001  0.8044799999999998  0.1665  1.0000
  H   H67       1.0  0.14011999999999994  0.7509999999999998  0.36417  1.0000
  H   H68       1.0  0.009279999999999962  0.8389499999999998  0.44434  1.0000
  H   H69       1.0  0.07003000000000001  0.53132  0.05613  1.0000
  H   H70       1.0  0.9658600000000003  0.65399  0.12250000000000001  1.0000
  H   H71       1.0  0.27913  0.73394  0.28365  1.0000
  H   H72       1.0  0.37205000000000005  0.60992  0.20826  1.0000
  C   C1        1.0  0.6308300000000001  0.42053  0.47677  1.0000
  C   C2        1.0  0.5936499999999999  0.31574  0.5079  1.0000
  C   C3        1.0  0.68411  0.25651999999999997  0.51863  1.0000
  C   C4        1.0  0.80844  0.30607999999999996  0.49433  1.0000
  C   C5        1.0  0.8421400000000001  0.4117  0.46446999999999994  1.0000
  C   C6        1.0  0.4552299999999999  0.26328  0.5231  1.0000
  C   C7        1.0  0.78736  0.57982  0.4203  1.0000
  C   C8        1.0  0.75438  0.56929  0.33593  1.0000
  C   C9        1.0  0.81144  0.50829  0.28743  1.0000
  C   C10       1.0  0.78594  0.5013  0.20925  1.0000
  C   C11       1.0  0.70268  0.55533  0.1774  1.0000
  C   C12       1.0  0.64343  0.6141499999999999  0.22597  1.0000
  C   C13       1.0  0.66833  0.62055  0.30478  1.0000
  C   C14       1.0  0.68539  0.55535  0.0922  1.0000
  C   C15       1.0  0.12166999999999999  0.14561999999999997  0.72273  1.0000
  C   C16       1.0  0.052329999999999995  0.19227999999999995  0.77172  1.0000
  C   C17       1.0  0.9548300000000002  0.23303  0.742  1.0000
  C   C18       1.0  0.93096  0.21741999999999997  0.66229  1.0000
  C   C19       1.0  0.004300000000000001  0.1701  0.61697  1.0000
  C   C20       1.0  0.8853600000000003  0.4211299999999999  0.89329  1.0000
  C   C21       1.0  0.9423100000000002  0.351  0.85555  1.0000
  C   C22       1.0  0.8876200000000001  0.29434  0.78838  1.0000
  C   C23       1.0  0.77028  0.31012  0.76533  1.0000
  C   C24       1.0  0.71834  0.38006  0.80701  1.0000
  C   C25       1.0  0.13295  0.91773  0.0233  1.0000
  C   C26       1.0  0.09409999999999993  0.8129499999999997  0.99137  1.0000
  C   C27       1.0  0.18281000000000006  0.75215  0.9805000000000001  1.0000
  C   C28       1.0  0.30739  0.8000799999999998  0.00545  1.0000
  C   C29       1.0  0.34301000000000004  0.90592  0.03558  1.0000
  C   C30       1.0  0.9554  0.76188  0.9756699999999999  1.0000
  C   C31       1.0  0.29188000000000003  0.07623  0.08009  1.0000
  C   C32       1.0  0.25834  0.06688999999999999  0.16431  1.0000
  C   C33       1.0  0.31575  0.00684  0.21298  1.0000
  C   C34       1.0  0.28932  3.999999999999999e-05  0.29095  1.0000
  C   C35       1.0  0.20528  0.05369  0.3225  1.0000
  C   C36       1.0  0.14568  0.11165999999999997  0.27377  1.0000
  C   C37       1.0  0.17132  0.11766999999999997  0.19506  1.0000
  C   C38       1.0  0.18779000000000007  0.05335999999999999  0.40772  1.0000
  C   C39       1.0  0.6171100000000002  0.64297  0.77708  1.0000
  C   C40       1.0  0.54811  0.68965  0.72808  1.0000
  C   C41       1.0  0.4536  0.7340199999999999  0.75812  1.0000
  C   C42       1.0  0.43209000000000003  0.72236  0.83812  1.0000
  C   C43       1.0  0.50476  0.67447  0.88337  1.0000
  C   C44       1.0  0.3848499999999999  0.9190599999999998  0.60577  1.0000
  C   C45       1.0  0.44108000000000014  0.84907  0.64389  1.0000
  C   C46       1.0  0.38670000000000004  0.79497  0.71148  1.0000
  C   C47       1.0  0.27049  0.81279  0.7347  1.0000
  C   C48       1.0  0.21902999999999997  0.8822199999999998  0.69249  1.0000
  C   C49       1.0  0.87169  0.08294  0.9775  1.0000
  C   C50       1.0  0.9101800000000001  0.18793999999999994  0.00905  1.0000
  C   C51       1.0  0.8213600000000002  0.24892999999999998  0.01907  1.0000
  C   C52       1.0  0.6969200000000001  0.20085999999999998  0.9941299999999998  1.0000
  C   C53       1.0  0.6614700000000001  0.09476999999999997  0.96441  1.0000
  C   C54       1.0  0.04825000000000001  0.23956999999999995  0.0257  1.0000
  C   C55       1.0  0.71227  0.92415  0.9207100000000001  1.0000
  C   C56       1.0  0.7434700000000001  0.9324  0.83611  1.0000
  C   C57       1.0  0.6857599999999999  0.99259  0.78772  1.0000
  C   C58       1.0  0.7103500000000003  0.99834  0.7095  1.0000
  C   C59       1.0  0.79299  0.94366  0.67742  1.0000
  C   C60       1.0  0.8527500000000002  0.88539  0.72583  1.0000
  C   C61       1.0  0.82891  0.88034  0.80476  1.0000
  C   C62       1.0  0.80931  0.9435599999999997  0.59213  1.0000
  C   C63       1.0  0.3811400000000001  0.35633  0.22279  1.0000
  C   C64       1.0  0.44919  0.30888  0.27193  1.0000
  C   C65       1.0  0.5447900000000001  0.26542999999999994  0.24230999999999997  1.0000
  C   C66       1.0  0.56778  0.27851  0.16248  1.0000
  C   C67       1.0  0.49579000000000006  0.32675999999999994  0.11706  1.0000
  C   C68       1.0  0.6139900000000001  0.07983  0.39441  1.0000
  C   C69       1.0  0.5572600000000001  0.14957999999999996  0.35642  1.0000
  C   C70       1.0  0.61157  0.20444  0.28899  1.0000
  C   C71       1.0  0.7284400000000001  0.18761999999999995  0.26605  1.0000
  C   C72       1.0  0.78008  0.11796  0.30791  1.0000
  C   C73       1.0  0.3631100000000001  0.58088  0.52319  1.0000
  C   C74       1.0  0.40268  0.68539  0.49173000000000006  1.0000
  C   C75       1.0  0.31471000000000005  0.7469  0.48093  1.0000
  C   C76       1.0  0.19001  0.6998699999999998  0.50572  1.0000
  C   C77       1.0  0.15365999999999996  0.59429  0.5355  1.0000
  C   C78       1.0  0.5417400000000001  0.73545  0.47703  1.0000
  C   C79       1.0  0.20343999999999998  0.4236899999999999  0.57953  1.0000
  C   C80       1.0  0.23878  0.43319  0.66358  1.0000
  C   C81       1.0  0.18332  0.4933499999999999  0.71369  1.0000
  C   C82       1.0  0.21207000000000004  0.49944999999999995  0.79148  1.0000
  C   C83       1.0  0.29658  0.4451599999999999  0.82133  1.0000
  C   C84       1.0  0.35431  0.38725999999999994  0.77109  1.0000
  C   C85       1.0  0.3264000000000001  0.38197999999999993  0.69265  1.0000
  C   C86       1.0  0.31664  0.44426  0.90642  1.0000
  C   C87       1.0  0.87828  0.8551799999999999  0.27687  1.0000
  C   C88       1.0  0.9473000000000003  0.80844  0.22769  1.0000
  C   C89       1.0  0.04357  0.76626  0.25747  1.0000
  C   C90       1.0  0.06677  0.78013  0.3373  1.0000
  C   C91       1.0  0.9939000000000001  0.8278499999999999  0.38272  1.0000
  C   C92       1.0  0.11477  0.5799  0.10555  1.0000
  C   C93       1.0  0.056629999999999986  0.6489499999999999  0.14359  1.0000
  C   C94       1.0  0.11109000000000004  0.70552  0.21076  1.0000
  C   C95       1.0  0.22884  0.69083  0.23373  1.0000
  C   C96       1.0  0.28181  0.62187  0.19174  1.0000
  N   N1        1.0  0.7542200000000001  0.4703099999999999  0.45795  1.0000
  N   N2        1.0  0.10095  0.13568  0.64564  1.0000
  N   N3        1.0  0.7746300000000003  0.4373299999999999  0.87  1.0000
  N   N4        1.0  0.25683  0.96616  0.0423  1.0000
  N   N5        1.0  0.5987100000000001  0.6365899999999999  0.8544  1.0000
  N   N6        1.0  0.27518999999999993  0.9372499999999999  0.62914  1.0000
  N   N7        1.0  0.74792  0.03448999999999999  0.95817  1.0000
  N   N8        1.0  0.40115  0.36417999999999995  0.14565  1.0000
  N   N9        1.0  0.7239  0.062069999999999986  0.37102  1.0000
  N   N10       1.0  0.23915000000000003  0.53337  0.54201  1.0000
  N   N11       1.0  0.8983300000000002  0.86366  0.35405  1.0000
  N   N12       1.0  0.22599  0.56467  0.12869  1.0000
  O   O1        1.0  0.37614  0.30177  0.48946  1.0000
  O   O2        1.0  0.43061000000000005  0.17990999999999993  0.56904  1.0000
  O   O3        1.0  0.7590600000000001  0.513  0.05237  1.0000
  O   O4        1.0  0.6058  0.5979399999999999  0.061900000000000004  1.0000
  O   O5        1.0  0.87759  0.79983  0.01124  1.0000
  O   O6        1.0  0.9289999999999999  0.6806899999999999  0.92745  1.0000
  O   O7        1.0  0.25659  0.00578  0.44723  1.0000
  O   O8        1.0  0.11269  0.10075  0.4385  1.0000
  O   O9        1.0  0.1275  0.20042999999999997  0.9926100000000001  1.0000
  O   O10       1.0  0.07301  0.32292  0.0721  1.0000
  O   O11       1.0  0.7391200000000001  0.9898599999999999  0.55274  1.0000
  O   O12       1.0  0.8852600000000002  0.8971999999999998  0.56117  1.0000
  O   O13       1.0  0.61829  0.6984599999999999  0.51444  1.0000
  O   O14       1.0  0.5692900000000001  0.8148299999999999  0.42781  1.0000
  O   O15       1.0  0.24813000000000002  0.49108  0.9473300000000001  1.0000
  O   O16       1.0  0.3931200000000001  0.39722  0.9352700000000002  1.0000
