data_image0
_chemical_formula_structural       Cr4Co2H80C80N8O6
_chemical_formula_sum              "Cr4 Co2 H80 C80 N8 O6"
_cell_length_a       9.47537
_cell_length_b       14.04055
_cell_length_c       15.39243
_cell_angle_alpha    103.03688
_cell_angle_beta     96.56113
_cell_angle_gamma    97.99997999999998

_space_group_name_H-M_alt    "P 1"
_space_group_IT_number       1

loop_
  _space_group_symop_operation_xyz
  'x, y, z'

loop_
  _atom_site_type_symbol
  _atom_site_label
  _atom_site_symmetry_multiplicity
  _atom_site_fract_x
  _atom_site_fract_y
  _atom_site_fract_z
  _atom_site_occupancy
  Cr  Cr1       1.0  0.19058  0.3432299999999999  0.32669  1.0000
  Cr  Cr2       1.0  0.84197  0.20435999999999993  0.3131199999999999  1.0000
  Cr  Cr3       1.0  0.8086599999999998  0.6565699999999999  0.67244  1.0000
  Cr  Cr4       1.0  0.15789999999999996  0.7946399999999998  0.68651  1.0000
  Co  Co1       1.0  0.50327  0.2538499999999999  0.27911999999999987  1.0000
  Co  Co2       1.0  0.49639999999999995  0.74637  0.7205999999999998  1.0000
  H   H1        1.0  0.49466  0.4351599999999999  0.20892  1.0000
  H   H2        1.0  0.65179  0.58867  0.19751  1.0000
  H   H3        1.0  0.98374  0.52045  0.37872  1.0000
  H   H4        1.0  0.80898  0.3754099999999999  0.3881399999999999  1.0000
  H   H5        1.0  0.8480499999999999  0.66317  0.44519  1.0000
  H   H6        1.0  0.9113600000000001  0.79136  0.4898099999999999  1.0000
  H   H7        1.0  0.029019999999999914  0.7067399999999998  0.4964899999999999  1.0000
  H   H8        1.0  0.21495000000000006  0.9535000000000001  0.43919  1.0000
  H   H9        1.0  0.17153999999999997  0.8614399999999999  0.49903  1.0000
  H   H10       1.0  0.0435899999999999  0.9347599999999998  0.4738199999999999  1.0000
  H   H11       1.0  0.9565199999999999  0.7674699999999998  0.058739999999999994  1.0000
  H   H12       1.0  0.13169999999999996  0.7373599999999998  0.0685  1.0000
  H   H13       1.0  0.10656999999999996  0.8611699999999998  0.10947  1.0000
  H   H14       1.0  0.9055999999999998  0.5189999999999999  0.12578  1.0000
  H   H15       1.0  0.97297  0.59914  0.060139999999999985  1.0000
  H   H16       1.0  0.7947399999999999  0.5940899999999998  0.0841  1.0000
  H   H17       1.0  0.042350000000000006  0.024809999999999978  0.32857  1.0000
  H   H18       1.0  0.19528999999999996  0.17878999999999992  0.3215999999999999  1.0000
  H   H19       1.0  0.35916999999999993  0.86385  0.21209  1.0000
  H   H20       1.0  0.49799  0.027850000000000007  0.20544  1.0000
  H   H21       1.0  0.48352  0.41042999999999996  0.44088  1.0000
  H   H22       1.0  0.47281000000000006  0.41879  0.6042599999999998  1.0000
  H   H23       1.0  0.56189  0.12018999999999996  0.55535  1.0000
  H   H24       1.0  0.57017  0.12448  0.39423  1.0000
  H   H25       1.0  0.3172499999999999  0.043869999999999944  0.6252699999999998  1.0000
  H   H26       1.0  0.29373  0.1368  0.56609  1.0000
  H   H27       1.0  0.18103999999999992  0.1162699999999999  0.6469199999999998  1.0000
  H   H28       1.0  0.16689999999999997  0.11930999999999994  0.79372  1.0000
  H   H29       1.0  0.29017  0.10655000000000002  0.88446  1.0000
  H   H30       1.0  0.28785  0.034589999999999975  0.7735099999999999  1.0000
  H   H31       1.0  0.67739  0.4821999999999999  0.74534  1.0000
  H   H32       1.0  0.73983  0.38445  0.67403  1.0000
  H   H33       1.0  0.8091499999999999  0.4213099999999998  0.7902699999999998  1.0000
  H   H34       1.0  0.7904899999999999  0.40615999999999997  0.9279899999999998  1.0000
  H   H35       1.0  0.64631  0.4053499999999999  0.9918399999999999  1.0000
  H   H36       1.0  0.664  0.48504  0.9176399999999998  1.0000
  H   H37       1.0  0.27676  0.3020299999999999  0.97815  1.0000
  H   H38       1.0  0.29026  0.29118  0.13967  1.0000
  H   H39       1.0  0.67358  0.18605999999999986  0.9711799999999999  1.0000
  H   H40       1.0  0.66909  0.18041999999999997  0.13316  1.0000
  H   H41       1.0  0.5050999999999998  0.5650999999999999  0.7908299999999999  1.0000
  H   H42       1.0  0.34826  0.41157999999999995  0.80239  1.0000
  H   H43       1.0  0.01610999999999993  0.47941999999999985  0.6208999999999998  1.0000
  H   H44       1.0  0.19017999999999993  0.62475  0.6118899999999998  1.0000
  H   H45       1.0  0.15177  0.3367599999999999  0.55468  1.0000
  H   H46       1.0  0.08861  0.20859  0.51003  1.0000
  H   H47       1.0  0.9708699999999999  0.29314  0.50337  1.0000
  H   H48       1.0  0.78504  0.04642  0.56073  1.0000
  H   H49       1.0  0.82849  0.13859999999999997  0.50103  1.0000
  H   H50       1.0  0.9563999999999999  0.06520999999999999  0.52614  1.0000
  H   H51       1.0  0.043380000000000016  0.2326  0.94139  1.0000
  H   H52       1.0  0.86821  0.2625999999999999  0.9315599999999998  1.0000
  H   H53       1.0  0.89349  0.13883999999999994  0.8906099999999998  1.0000
  H   H54       1.0  0.09435999999999996  0.4810199999999999  0.87412  1.0000
  H   H55       1.0  0.026840000000000013  0.4009  0.93971  1.0000
  H   H56       1.0  0.20514999999999994  0.4059499999999998  0.9159199999999997  1.0000
  H   H57       1.0  0.95738  0.9749199999999999  0.67144  1.0000
  H   H58       1.0  0.80414  0.8210699999999999  0.6782799999999998  1.0000
  H   H59       1.0  0.6407399999999999  0.13611999999999994  0.7878599999999998  1.0000
  H   H60       1.0  0.50154  0.97219  0.79432  1.0000
  H   H61       1.0  0.5151999999999999  0.5896399999999998  0.5588299999999999  1.0000
  H   H62       1.0  0.5267299999999999  0.5814599999999998  0.3956199999999999  1.0000
  H   H63       1.0  0.43825  0.8802199999999998  0.4444899999999999  1.0000
  H   H64       1.0  0.42915  0.87579  0.60548  1.0000
  H   H65       1.0  0.68281  0.9561299999999998  0.3744399999999999  1.0000
  H   H66       1.0  0.7063099999999999  0.8631099999999998  0.43354  1.0000
  H   H67       1.0  0.8189599999999999  0.8837399999999997  0.35271  1.0000
  H   H68       1.0  0.83329  0.8807899999999997  0.20599999999999993  1.0000
  H   H69       1.0  0.7100499999999998  0.8934999999999997  0.11523999999999997  1.0000
  H   H70       1.0  0.71213  0.9654299999999998  0.22617  1.0000
  H   H71       1.0  0.32249  0.51795  0.25437  1.0000
  H   H72       1.0  0.26017  0.61577  0.32572  1.0000
  H   H73       1.0  0.19080999999999995  0.57888  0.20949999999999994  1.0000
  H   H74       1.0  0.20944  0.59388  0.07188  1.0000
  H   H75       1.0  0.35335  0.59459  0.00782  1.0000
  H   H76       1.0  0.33588999999999997  0.5149199999999999  0.08202999999999998  1.0000
  H   H77       1.0  0.72315  0.6976299999999998  0.021539999999999993  1.0000
  H   H78       1.0  0.70945  0.70856  0.86002  1.0000
  H   H79       1.0  0.32656999999999997  0.8137699999999998  0.02888  1.0000
  H   H80       1.0  0.33080999999999994  0.81954  0.8668599999999999  1.0000
  C   C1        1.0  0.6043299999999999  0.4567999999999999  0.24461  1.0000
  C   C2        1.0  0.69296  0.5413699999999999  0.23786  1.0000
  C   C3        1.0  0.83357  0.5672199999999998  0.28584  1.0000
  C   C4        1.0  0.8762999999999999  0.5048099999999999  0.3396299999999999  1.0000
  C   C5        1.0  0.77907  0.42263  0.34418  1.0000
  C   C6        1.0  0.9281  0.65915  0.28224  1.0000
  C   C7        1.0  0.9810899999999999  0.73261  0.3627599999999999  1.0000
  C   C8        1.0  0.07050999999999995  0.8203499999999998  0.3594299999999999  1.0000
  C   C9        1.0  0.09981999999999999  0.83552  0.27525999999999995  1.0000
  C   C10       1.0  0.04186999999999994  0.7634699999999998  0.19413999999999995  1.0000
  C   C11       1.0  0.9591599999999999  0.67369  0.19804999999999995  1.0000
  C   C12       1.0  0.93992  0.72227  0.45217  1.0000
  C   C13       1.0  0.12919999999999993  0.8965999999999998  0.4469  1.0000
  C   C14       1.0  0.060579999999999946  0.7835799999999998  0.10327999999999997  1.0000
  C   C15       1.0  0.9059800000000001  0.5926599999999997  0.11271  1.0000
  C   C16       1.0  0.1881  0.92982  0.27121  1.0000
  C   C17       1.0  0.14340999999999998  0.02100999999999997  0.3016099999999999  1.0000
  C   C18       1.0  0.22877  0.10777  0.29653  1.0000
  C   C19       1.0  0.3184399999999999  0.9322999999999998  0.23587999999999995  1.0000
  C   C20       1.0  0.39590999999999993  0.022669999999999992  0.23162999999999997  1.0000
  C   C21       1.0  0.49956999999999996  0.3479199999999999  0.4694399999999999  1.0000
  C   C22       1.0  0.49355  0.35156  0.56006  1.0000
  C   C23       1.0  0.5125999999999998  0.26843  0.59376  1.0000
  C   C24       1.0  0.5424  0.18575999999999995  0.53257  1.0000
  C   C25       1.0  0.5475399999999999  0.18723999999999996  0.44322  1.0000
  C   C26       1.0  0.5004699999999999  0.26566999999999985  0.6884899999999999  1.0000
  C   C27       1.0  0.39504  0.19350999999999993  0.70599  1.0000
  C   C28       1.0  0.38572  0.18884999999999996  0.79575  1.0000
  C   C29       1.0  0.48028  0.25735999999999987  0.8668699999999998  1.0000
  C   C30       1.0  0.58242  0.33175  0.84969  1.0000
  C   C31       1.0  0.59497  0.33448  0.7598999999999998  1.0000
  C   C32       1.0  0.29175  0.11913  0.63163  1.0000
  C   C33       1.0  0.27766  0.10834000000000003  0.81333  1.0000
  C   C34       1.0  0.7109000000000001  0.40938  0.74139  1.0000
  C   C35       1.0  0.6751999999999999  0.41055  0.9260199999999997  1.0000
  C   C36       1.0  0.4773899999999999  0.24833  0.96111  1.0000
  C   C37       1.0  0.36660999999999994  0.27509  0.00963  1.0000
  C   C38       1.0  0.37159999999999993  0.26841999999999994  0.0986  1.0000
  C   C39       1.0  0.58706  0.21157999999999993  0.00592  1.0000
  C   C40       1.0  0.58583  0.20742  0.09521  1.0000
  C   C41       1.0  0.3954199999999999  0.54339  0.7551699999999999  1.0000
  C   C42       1.0  0.30694999999999995  0.4587399999999998  0.7619399999999997  1.0000
  C   C43       1.0  0.16635999999999992  0.43269999999999986  0.7138999999999998  1.0000
  C   C44       1.0  0.12347999999999994  0.4950699999999998  0.66009  1.0000
  C   C45       1.0  0.22046000000000004  0.57743  0.6557  1.0000
  C   C46       1.0  0.07190999999999999  0.34076  0.7176199999999998  1.0000
  C   C47       1.0  0.018860000000000005  0.26726  0.63716  1.0000
  C   C48       1.0  0.9294999999999999  0.17953999999999992  0.6405899999999998  1.0000
  C   C49       1.0  0.9002199999999999  0.16439  0.72479  1.0000
  C   C50       1.0  0.95818  0.2365299999999999  0.8058699999999998  1.0000
  C   C51       1.0  0.04086999999999994  0.3262999999999999  0.8018599999999998  1.0000
  C   C52       1.0  0.05995999999999999  0.27762  0.54771  1.0000
  C   C53       1.0  0.8707999999999999  0.10334000000000002  0.5531  1.0000
  C   C54       1.0  0.9393999999999999  0.21644999999999995  0.89677  1.0000
  C   C55       1.0  0.09395999999999993  0.40737  0.8871999999999998  1.0000
  C   C56       1.0  0.81183  0.0701  0.72883  1.0000
  C   C57       1.0  0.85631  0.9788399999999998  0.69836  1.0000
  C   C58       1.0  0.7707799999999999  0.8921199999999998  0.70337  1.0000
  C   C59       1.0  0.6813899999999998  0.06765999999999996  0.76406  1.0000
  C   C60       1.0  0.6037  0.97732  0.7682199999999998  1.0000
  C   C61       1.0  0.49974999999999997  0.6523  0.53035  1.0000
  C   C62       1.0  0.50606  0.64873  0.4397699999999999  1.0000
  C   C63       1.0  0.48740999999999995  0.7319199999999998  0.40605  1.0000
  C   C64       1.0  0.45755  0.81458  0.46724  1.0000
  C   C65       1.0  0.45211999999999997  0.81308  0.5565599999999998  1.0000
  C   C66       1.0  0.49955999999999995  0.7345099999999998  0.31124999999999997  1.0000
  C   C67       1.0  0.60505  0.80654  0.29365  1.0000
  C   C68       1.0  0.6144599999999999  0.8111199999999997  0.20389999999999994  1.0000
  C   C69       1.0  0.5198599999999999  0.7425399999999998  0.13286  1.0000
  C   C70       1.0  0.41765  0.6682099999999997  0.15004  1.0000
  C   C71       1.0  0.40506  0.6656299999999999  0.23986  1.0000
  C   C72       1.0  0.7082799999999999  0.88086  0.36803  1.0000
  C   C73       1.0  0.72249  0.8917  0.18636  1.0000
  C   C74       1.0  0.28905999999999993  0.5907999999999998  0.25836  1.0000
  C   C75       1.0  0.3247  0.58943  0.07371  1.0000
  C   C76       1.0  0.52269  0.7515199999999997  0.038659999999999986  1.0000
  C   C77       1.0  0.6333799999999999  0.7246999999999998  0.99011  1.0000
  C   C78       1.0  0.6283  0.7314699999999997  0.9011699999999999  1.0000
  C   C79       1.0  0.4129999999999999  0.7883299999999998  0.9939899999999998  1.0000
  C   C80       1.0  0.41419999999999996  0.7926099999999998  0.90474  1.0000
  N   N1        1.0  0.6452000000000001  0.3968699999999999  0.29666  1.0000
  N   N2        1.0  0.5236  0.2664199999999999  0.41010999999999986  1.0000
  N   N3        1.0  0.35290999999999995  0.11049999999999999  0.2617999999999999  1.0000
  N   N4        1.0  0.48157999999999995  0.23753  0.14284  1.0000
  N   N5        1.0  0.3543700000000001  0.60331  0.70317  1.0000
  N   N6        1.0  0.4758899999999999  0.73387  0.58968  1.0000
  N   N7        1.0  0.64658  0.8894499999999997  0.73804  1.0000
  N   N8        1.0  0.5184  0.7625699999999999  0.85705  1.0000
  O   O1        1.0  0.34978  0.33337  0.28174  1.0000
  O   O2        1.0  0.019759999999999996  0.28084  0.34155  1.0000
  O   O3        1.0  0.65815  0.17617999999999995  0.26865  1.0000
  O   O4        1.0  0.6500799999999998  0.6669  0.7178799999999997  1.0000
  O   O5        1.0  0.97965  0.71875  0.65801  1.0000
  O   O6        1.0  0.3416399999999999  0.8237799999999997  0.7312499999999997  1.0000
