data_image0
_chemical_formula_structural       Zn4H72C82N16O24
_chemical_formula_sum              "Zn4 H72 C82 N16 O24"
_cell_length_a       9.26097
_cell_length_b       13.63126
_cell_length_c       20.53061
_cell_angle_alpha    86.39667
_cell_angle_beta     79.15206
_cell_angle_gamma    70.2818

_space_group_name_H-M_alt    "P 1"
_space_group_IT_number       1

loop_
  _space_group_symop_operation_xyz
  'x, y, z'

loop_
  _atom_site_type_symbol
  _atom_site_label
  _atom_site_symmetry_multiplicity
  _atom_site_fract_x
  _atom_site_fract_y
  _atom_site_fract_z
  _atom_site_occupancy
  Zn  Zn1       1.0  0.35222999999999993  0.75618  0.51104  1.0000
  Zn  Zn2       1.0  0.8927200000000002  0.7564099999999998  0.9890299999999999  1.0000
  Zn  Zn3       1.0  0.64778  0.24381999999999998  0.48896  1.0000
  Zn  Zn4       1.0  0.10729000000000001  0.24358999999999995  0.01098  1.0000
  H   H1        1.0  0.97239  0.30312  0.8283600000000001  1.0000
  H   H2        1.0  0.9909900000000001  0.38691999999999993  0.75878  1.0000
  H   H3        1.0  0.22550000000000006  0.4974499999999999  0.54776  1.0000
  H   H4        1.0  0.61913  0.66196  0.31089  1.0000
  H   H5        1.0  0.028939999999999962  0.40987  0.8788800000000001  1.0000
  H   H6        1.0  0.61106  0.7478699999999999  0.92135  1.0000
  H   H7        1.0  0.5702400000000003  0.61619  0.85427  1.0000
  H   H8        1.0  0.84986  0.009799999999999998  0.62929  1.0000
  H   H9        1.0  0.022850000000000106  0.8569199999999998  0.55827  1.0000
  H   H10       1.0  0.25883999999999996  0.09668  0.62955  1.0000
  H   H11       1.0  0.4113900000000001  0.94358  0.55812  1.0000
  H   H12       1.0  0.041149999999999964  0.26249  0.66218  1.0000
  H   H13       1.0  0.09539999999999997  0.17303999999999997  0.72857  1.0000
  H   H14       1.0  0.04943999999999992  0.54964  0.94363  1.0000
  H   H15       1.0  0.8490800000000001  0.7465799999999999  0.44845999999999997  1.0000
  H   H16       1.0  0.71516  0.68757  0.43787  1.0000
  H   H17       1.0  0.4304299999999999  0.012059999999999996  0.36696  1.0000
  H   H18       1.0  0.48787  0.07633  0.29748  1.0000
  H   H19       1.0  0.7265500000000003  0.30226  0.67078  1.0000
  H   H20       1.0  0.62294  0.38562  0.74047  1.0000
  H   H21       1.0  0.2787500000000001  0.49785  0.9506799999999999  1.0000
  H   H22       1.0  0.72086  0.6616399999999999  0.18946  1.0000
  H   H23       1.0  0.5599500000000001  0.4098899999999999  0.6216  1.0000
  H   H24       1.0  0.6413500000000003  0.7481099999999998  0.5791  1.0000
  H   H25       1.0  0.8139499999999998  0.61652  0.64576  1.0000
  H   H26       1.0  0.14058000000000004  0.01095  0.8703899999999999  1.0000
  H   H27       1.0  0.12077999999999998  0.85807  0.9414799999999999  1.0000
  H   H28       1.0  0.6452699999999999  0.09653  0.87063  1.0000
  H   H29       1.0  0.6463199999999999  0.94307  0.94189  1.0000
  H   H30       1.0  0.69626  0.2627  0.83757  1.0000
  H   H31       1.0  0.73258  0.17238  0.77135  1.0000
  H   H32       1.0  0.3999  0.54965  0.55726  1.0000
  H   H33       1.0  0.40723  0.74711  0.04989  1.0000
  H   H34       1.0  0.5978799999999999  0.68775  0.06245  1.0000
  H   H35       1.0  0.55725  0.01158  0.1325  1.0000
  H   H36       1.0  0.43618000000000007  0.0758  0.20194  1.0000
  H   H37       1.0  0.027609999999999982  0.69688  0.17164  1.0000
  H   H38       1.0  0.009010000000000072  0.6130699999999999  0.24122  1.0000
  H   H39       1.0  0.7745000000000002  0.5025399999999999  0.45224  1.0000
  H   H40       1.0  0.38087  0.33803999999999995  0.68911  1.0000
  H   H41       1.0  0.9710599999999999  0.59013  0.12112  1.0000
  H   H42       1.0  0.38894000000000006  0.25212999999999997  0.07865  1.0000
  H   H43       1.0  0.42976  0.38381  0.14573  1.0000
  H   H44       1.0  0.15015000000000017  0.9901999999999997  0.37071  1.0000
  H   H45       1.0  0.97715  0.14307999999999998  0.44173  1.0000
  H   H46       1.0  0.7411700000000002  0.9033199999999998  0.37045  1.0000
  H   H47       1.0  0.58862  0.056419999999999984  0.44188  1.0000
  H   H48       1.0  0.9588500000000003  0.7375  0.33782  1.0000
  H   H49       1.0  0.9045999999999997  0.82696  0.27143  1.0000
  H   H50       1.0  0.9505600000000001  0.45035  0.056369999999999996  1.0000
  H   H51       1.0  0.15092  0.2534199999999999  0.55154  1.0000
  H   H52       1.0  0.28485  0.31243  0.56213  1.0000
  H   H53       1.0  0.5695700000000001  0.98794  0.63304  1.0000
  H   H54       1.0  0.51214  0.92367  0.70252  1.0000
  H   H55       1.0  0.27345  0.69773  0.32922  1.0000
  H   H56       1.0  0.3770599999999999  0.61438  0.25953  1.0000
  H   H57       1.0  0.7212600000000001  0.50214  0.04933  1.0000
  H   H58       1.0  0.27914  0.33836  0.81054  1.0000
  H   H59       1.0  0.4400500000000003  0.59011  0.3784  1.0000
  H   H60       1.0  0.35864999999999997  0.25189  0.4209  1.0000
  H   H61       1.0  0.18604999999999994  0.38347  0.35424  1.0000
  H   H62       1.0  0.85942  0.98905  0.12962  1.0000
  H   H63       1.0  0.8792200000000001  0.14193  0.05852  1.0000
  H   H64       1.0  0.3547300000000001  0.9034699999999998  0.12937  1.0000
  H   H65       1.0  0.35368  0.05693  0.05811  1.0000
  H   H66       1.0  0.30375000000000024  0.7372999999999998  0.16243  1.0000
  H   H67       1.0  0.2674200000000001  0.82761  0.22865  1.0000
  H   H68       1.0  0.6001  0.45035  0.44273999999999997  1.0000
  H   H69       1.0  0.5927800000000001  0.25289  0.9501099999999999  1.0000
  H   H70       1.0  0.40212000000000003  0.31224999999999997  0.93755  1.0000
  H   H71       1.0  0.44275000000000003  0.98842  0.8675  1.0000
  H   H72       1.0  0.56382  0.9242  0.7980599999999999  1.0000
  C   C1        1.0  0.7986500000000001  0.50353  0.85851  1.0000
  C   C2        1.0  0.91224  0.35163  0.79041  1.0000
  C   C3        1.0  0.12593  0.49795  0.52699  1.0000
  C   C4        1.0  0.09874000000000005  0.6815899999999999  0.49451000000000006  1.0000
  C   C5        1.0  0.60505  0.73462  0.28373  1.0000
  C   C6        1.0  0.9347700000000001  0.4842599999999999  0.8847000000000002  1.0000
  C   C7        1.0  0.7018400000000001  0.6728999999999999  0.90962  1.0000
  C   C8        1.0  0.47681000000000034  0.8274499999999998  0.39251  1.0000
  C   C9        1.0  0.04102999999999997  0.06422  0.63633  1.0000
  C   C10       1.0  0.044769999999999956  0.58974  0.4966900000000001  1.0000
  C   C11       1.0  0.9138599999999999  0.59279  0.46885000000000004  1.0000
  C   C12       1.0  0.5309900000000001  0.8293099999999998  0.3193  1.0000
  C   C13       1.0  0.67913  0.59996  0.87222  1.0000
  C   C14       1.0  0.9742899999999998  0.9959199999999998  0.61526  1.0000
  C   C15       1.0  0.06925000000000008  0.9109199999999998  0.57691  1.0000
  C   C16       1.0  0.20143  0.04544  0.616  1.0000
  C   C17       1.0  0.2878400000000001  0.9587299999999997  0.57674  1.0000
  C   C18       1.0  2.0000000000017098e-05  0.21571  0.70225  1.0000
  C   C19       1.0  0.9462199999999998  0.56138  0.9221899999999998  1.0000
  C   C20       1.0  0.5128100000000002  0.9247299999999998  0.285  1.0000
  C   C21       1.0  0.6978400000000001  0.50353  0.64161  1.0000
  C   C22       1.0  0.73718  0.3509799999999999  0.709  1.0000
  C   C23       1.0  0.37711000000000006  0.49815  0.9720899999999999  1.0000
  C   C24       1.0  0.22358999999999996  0.68293  0.00309  1.0000
  C   C25       1.0  0.6617400000000001  0.7344599999999998  0.21647  1.0000
  C   C26       1.0  0.5803700000000004  0.48425  0.61574  1.0000
  C   C27       1.0  0.6254700000000003  0.6729999999999998  0.59077  1.0000
  C   C28       1.0  0.69758  0.82657  0.10763  1.0000
  C   C29       1.0  0.8952099999999998  0.06476  0.86357  1.0000
  C   C30       1.0  0.36723  0.59027  0.00208  1.0000
  C   C31       1.0  0.49402999999999997  0.59308  0.030859999999999995  1.0000
  C   C32       1.0  0.64082  0.82896  0.18076  1.0000
  C   C33       1.0  0.7211199999999999  0.60012  0.62795  1.0000
  C   C34       1.0  0.030160000000000034  0.99681  0.88446  1.0000
  C   C35       1.0  0.02049000000000008  0.91166  0.92278  1.0000
  C   C36       1.0  0.7539  0.04544  0.88394  1.0000
  C   C37       1.0  0.7544500000000002  0.9586099999999997  0.9231699999999999  1.0000
  C   C38       1.0  0.7845700000000001  0.21586999999999995  0.79761  1.0000
  C   C39       1.0  0.4918099999999997  0.56136  0.57848  1.0000
  C   C40       1.0  0.56278  0.9245399999999999  0.21474999999999997  1.0000
  C   C41       1.0  0.20135000000000003  0.49647  0.14149  1.0000
  C   C42       1.0  0.08776000000000007  0.64837  0.20959000000000003  1.0000
  C   C43       1.0  0.8740800000000001  0.50205  0.47301  1.0000
  C   C44       1.0  0.9012600000000001  0.31841  0.50549  1.0000
  C   C45       1.0  0.39495000000000013  0.26538  0.71627  1.0000
  C   C46       1.0  0.06523  0.51573  0.11529999999999999  1.0000
  C   C47       1.0  0.29816  0.3271  0.09038  1.0000
  C   C48       1.0  0.5232  0.17253999999999994  0.60749  1.0000
  C   C49       1.0  0.9589800000000003  0.9357799999999998  0.36367  1.0000
  C   C50       1.0  0.95524  0.41026  0.50331  1.0000
  C   C51       1.0  0.08614000000000009  0.4072099999999999  0.53115  1.0000
  C   C52       1.0  0.46901  0.17068999999999995  0.68071  1.0000
  C   C53       1.0  0.32087000000000004  0.4000399999999999  0.12778  1.0000
  C   C54       1.0  0.025709999999999986  0.004069999999999999  0.38474  1.0000
  C   C55       1.0  0.93075  0.08906999999999998  0.4230999999999999  1.0000
  C   C56       1.0  0.7985700000000001  0.9545599999999997  0.384  1.0000
  C   C57       1.0  0.71216  0.04127  0.42327  1.0000
  C   C58       1.0  0.9999900000000003  0.7842899999999998  0.29775  1.0000
  C   C59       1.0  0.053790000000000004  0.43862  0.07781  1.0000
  C   C60       1.0  0.4871900000000002  0.07527  0.71501  1.0000
  C   C61       1.0  0.30216  0.49647  0.35839  1.0000
  C   C62       1.0  0.2628200000000001  0.6490099999999998  0.291  1.0000
  C   C63       1.0  0.62289  0.50184  0.02791  1.0000
  C   C64       1.0  0.7764100000000002  0.31707  0.99691  1.0000
  C   C65       1.0  0.33826000000000006  0.26553  0.78354  1.0000
  C   C66       1.0  0.41962999999999995  0.51575  0.38426  1.0000
  C   C67       1.0  0.3745300000000001  0.3269899999999999  0.4092299999999999  1.0000
  C   C68       1.0  0.30243  0.17342999999999997  0.8923700000000001  1.0000
  C   C69       1.0  0.10480000000000012  0.9352399999999998  0.13643  1.0000
  C   C70       1.0  0.63278  0.40972  0.99792  1.0000
  C   C71       1.0  0.5059800000000001  0.40692  0.9691399999999999  1.0000
  C   C72       1.0  0.35917999999999994  0.17104  0.81925  1.0000
  C   C73       1.0  0.2788800000000001  0.39988  0.37205  1.0000
  C   C74       1.0  0.96984  0.0031899999999999993  0.11554999999999999  1.0000
  C   C75       1.0  0.97951  0.08833999999999997  0.07722  1.0000
  C   C76       1.0  0.24611000000000013  0.9545599999999997  0.11606000000000001  1.0000
  C   C77       1.0  0.24555  0.041389999999999996  0.07683  1.0000
  C   C78       1.0  0.21543000000000007  0.78413  0.20239  1.0000
  C   C79       1.0  0.5081899999999998  0.43864  0.42152  1.0000
  C   C80       1.0  0.43722000000000005  0.07545  0.78525  1.0000
  C   C81       1.0  0.8579  0.28467  0.74982  1.0000
  C   C82       1.0  0.14209999999999995  0.71533  0.25019  1.0000
  N   N1        1.0  0.8340300000000002  0.6555999999999997  0.93446  1.0000
  N   N2        1.0  0.22515000000000016  0.8909499999999998  0.55813  1.0000
  N   N3        1.0  0.82813  0.6808699999999999  0.43761  1.0000
  N   N4        1.0  0.44007  0.02106  0.31636  1.0000
  N   N5        1.0  0.51029  0.65558  0.56613  1.0000
  N   N6        1.0  0.8848499999999999  0.8912199999999998  0.94168  1.0000
  N   N7        1.0  0.4915799999999999  0.6814  0.06223  1.0000
  N   N8        1.0  0.53905  0.02063  0.18308  1.0000
  N   N9        1.0  0.16597000000000003  0.3443899999999999  0.06554  1.0000
  N   N10       1.0  0.7748500000000001  0.10905  0.44187000000000004  1.0000
  N   N11       1.0  0.17188000000000006  0.31913  0.56239  1.0000
  N   N12       1.0  0.5599300000000003  0.97893  0.68364  1.0000
  N   N13       1.0  0.48972  0.34441  0.43388  1.0000
  N   N14       1.0  0.11515  0.10878  0.05832  1.0000
  N   N15       1.0  0.5084200000000003  0.3186  0.9377700000000001  1.0000
  N   N16       1.0  0.4609500000000001  0.97937  0.81692  1.0000
  O   O1        1.0  0.22112000000000007  0.6667299999999999  0.52153  1.0000
  O   O2        1.0  0.028820000000000075  0.76649  0.46881  1.0000
  O   O3        1.0  0.7743600000000002  0.43443  0.82103  1.0000
  O   O4        1.0  0.4659100000000004  0.7391299999999997  0.41771  1.0000
  O   O5        1.0  0.94254  0.14321  0.67536  1.0000
  O   O6        1.0  0.44503000000000004  0.90684  0.42795  1.0000
  O   O7        1.0  0.11360000000000002  0.66733  0.97821  1.0000
  O   O8        1.0  0.21329  0.76901  0.025999999999999995  1.0000
  O   O9        1.0  0.79166  0.43438  0.67871  1.0000
  O   O10       1.0  0.7989100000000001  0.73866  0.08304  1.0000
  O   O11       1.0  0.91435  0.14415  0.8247300000000001  1.0000
  O   O12       1.0  0.64884  0.90492  0.0717  1.0000
  O   O13       1.0  0.7788800000000001  0.33326  0.47847  1.0000
  O   O14       1.0  0.97118  0.23350999999999997  0.53119  1.0000
  O   O15       1.0  0.22564000000000006  0.56556  0.17897  1.0000
  O   O16       1.0  0.5340899999999998  0.26087  0.58229  1.0000
  O   O17       1.0  0.057459999999999865  0.85679  0.32464  1.0000
  O   O18       1.0  0.55498  0.09315  0.57205  1.0000
  O   O19       1.0  0.88641  0.33267  0.0218  1.0000
  O   O20       1.0  0.78671  0.23097999999999994  0.9739999999999999  1.0000
  O   O21       1.0  0.20834999999999998  0.56562  0.32129  1.0000
  O   O22       1.0  0.20109999999999992  0.26133  0.91696  1.0000
  O   O23       1.0  0.08565000000000005  0.85585  0.17527  1.0000
  O   O24       1.0  0.35116  0.09508  0.9283  1.0000
