data_image0
_chemical_formula_structural       Zn8H64C92I8N24O16
_chemical_formula_sum              "Zn8 H64 C92 I8 N24 O16"
_cell_length_a       7.49519
_cell_length_b       9.99962
_cell_length_c       36.99022
_cell_angle_alpha    96.40546
_cell_angle_beta     90.0
_cell_angle_gamma    90.0

_space_group_name_H-M_alt    "P 1"
_space_group_IT_number       1

loop_
  _space_group_symop_operation_xyz
  'x, y, z'

loop_
  _atom_site_type_symbol
  _atom_site_label
  _atom_site_symmetry_multiplicity
  _atom_site_fract_x
  _atom_site_fract_y
  _atom_site_fract_z
  _atom_site_occupancy
  Zn  Zn1       1.0  0.4518500000000001  0.16991  0.02661  1.0000
  Zn  Zn2       1.0  0.66671  0.72389  0.33191  1.0000
  Zn  Zn3       1.0  0.9518500000000002  0.83009  0.4734  1.0000
  Zn  Zn4       1.0  0.16671000000000005  0.27611  0.16809  1.0000
  Zn  Zn5       1.0  0.54816  0.83008  0.9734  1.0000
  Zn  Zn6       1.0  0.3332900000000001  0.2761  0.6680899999999999  1.0000
  Zn  Zn7       1.0  0.04815  0.1699100000000001  0.52661  1.0000
  Zn  Zn8       1.0  0.83329  0.72389  0.83191  1.0000
  H   H1        1.0  0.8105600000000002  0.7213500000000003  0.08818  1.0000
  H   H2        1.0  0.6905300000000002  0.89459  0.19752  1.0000
  H   H3        1.0  0.5703300000000002  0.47596  0.16415999999999997  1.0000
  H   H4        1.0  0.9400900000000002  0.51428  0.0701  1.0000
  H   H5        1.0  0.8354100000000002  0.28934000000000004  0.02426  1.0000
  H   H6        1.0  0.4362800000000001  0.3775800000000001  0.1044  1.0000
  H   H7        1.0  0.31485  0.56135  0.21121  1.0000
  H   H8        1.0  0.32874  0.5690000000000001  0.28657  1.0000
  H   H9        1.0  0.78582  0.76497  0.25179  1.0000
  H   H10       1.0  0.7540600000000002  0.96221  0.08055  1.0000
  H   H11       1.0  0.9635300000000001  0.1931  0.09106  1.0000
  H   H12       1.0  0.9858700000000002  0.9949200000000001  0.18593  1.0000
  H   H13       1.0  0.7219300000000002  0.51951  0.43034999999999995  1.0000
  H   H14       1.0  0.8083100000000001  0.35435  0.47240999999999994  1.0000
  H   H15       1.0  0.8198900000000001  0.04017  0.38277  1.0000
  H   H16       1.0  0.7227900000000003  0.20672  0.34052  1.0000
  H   H17       1.0  0.31056  0.27865  0.41182  1.0000
  H   H18       1.0  0.19053000000000006  0.10541  0.30248  1.0000
  H   H19       1.0  0.07033000000000003  0.5240500000000001  0.33584  1.0000
  H   H20       1.0  0.4400900000000001  0.48572000000000004  0.4299  1.0000
  H   H21       1.0  0.33541  0.7106600000000001  0.47573999999999994  1.0000
  H   H22       1.0  0.9362800000000002  0.6224200000000001  0.39559999999999995  1.0000
  H   H23       1.0  0.8148600000000003  0.43865  0.28879  1.0000
  H   H24       1.0  0.82874  0.43100000000000005  0.21343  1.0000
  H   H25       1.0  0.28582000000000013  0.23503  0.24820999999999996  1.0000
  H   H26       1.0  0.25406  0.03778999999999999  0.41945  1.0000
  H   H27       1.0  0.4635300000000001  0.8069  0.40894  1.0000
  H   H28       1.0  0.48587  0.005079999999999989  0.31407  1.0000
  H   H29       1.0  0.22193000000000004  0.48049  0.06964999999999999  1.0000
  H   H30       1.0  0.30831  0.64565  0.02759  1.0000
  H   H31       1.0  0.31989  0.9598300000000001  0.11722999999999999  1.0000
  H   H32       1.0  0.22279000000000004  0.7932800000000002  0.15948  1.0000
  H   H33       1.0  0.18945000000000006  0.27865  0.91182  1.0000
  H   H34       1.0  0.3094800000000001  0.10539999999999998  0.80248  1.0000
  H   H35       1.0  0.4296700000000001  0.52404  0.83584  1.0000
  H   H36       1.0  0.059920000000000015  0.48572000000000004  0.9299  1.0000
  H   H37       1.0  0.16459000000000004  0.7106600000000001  0.97574  1.0000
  H   H38       1.0  0.5637200000000002  0.6224100000000001  0.8956  1.0000
  H   H39       1.0  0.6851500000000003  0.43865  0.7887999999999998  1.0000
  H   H40       1.0  0.6712600000000002  0.43100000000000005  0.71343  1.0000
  H   H41       1.0  0.21419000000000005  0.23502  0.74821  1.0000
  H   H42       1.0  0.24594000000000005  0.03778999999999997  0.9194499999999999  1.0000
  H   H43       1.0  0.03648  0.80689  0.9089399999999999  1.0000
  H   H44       1.0  0.014130000000000004  0.005080000000000033  0.81407  1.0000
  H   H45       1.0  0.2780700000000001  0.48048000000000013  0.56965  1.0000
  H   H46       1.0  0.19169000000000005  0.64565  0.5276  1.0000
  H   H47       1.0  0.18011000000000005  0.9598200000000001  0.6172399999999999  1.0000
  H   H48       1.0  0.2772100000000001  0.7932800000000002  0.65948  1.0000
  H   H49       1.0  0.6894500000000002  0.72134  0.58818  1.0000
  H   H50       1.0  0.8094800000000002  0.89459  0.69752  1.0000
  H   H51       1.0  0.9296700000000002  0.47595  0.66416  1.0000
  H   H52       1.0  0.5599200000000002  0.5142700000000001  0.5700999999999999  1.0000
  H   H53       1.0  0.66459  0.28933  0.52426  1.0000
  H   H54       1.0  0.06372000000000003  0.3775800000000001  0.60441  1.0000
  H   H55       1.0  0.18515000000000004  0.56135  0.71121  1.0000
  H   H56       1.0  0.17126000000000005  0.5690000000000001  0.78658  1.0000
  H   H57       1.0  0.71418  0.76497  0.75179  1.0000
  H   H58       1.0  0.7459400000000002  0.9622  0.58055  1.0000
  H   H59       1.0  0.53648  0.1931  0.59106  1.0000
  H   H60       1.0  0.5141300000000002  0.9949200000000001  0.68593  1.0000
  H   H61       1.0  0.7780700000000003  0.51951  0.93035  1.0000
  H   H62       1.0  0.6916900000000002  0.35435  0.97241  1.0000
  H   H63       1.0  0.68012  0.04017  0.88277  1.0000
  H   H64       1.0  0.7772100000000002  0.20672  0.84053  1.0000
  C   C1        1.0  0.6859700000000002  0.58902  0.12329  1.0000
  C   C2        1.0  0.7590100000000001  0.7108900000000002  0.11525  1.0000
  C   C3        1.0  0.76505  0.81867  0.14261  1.0000
  C   C4        1.0  0.6954200000000003  0.8074  0.1772  1.0000
  C   C5        1.0  0.62522  0.6836800000000002  0.18447  1.0000
  C   C6        1.0  0.61909  0.5733600000000001  0.15781  1.0000
  C   C7        1.0  0.82108  0.45338  0.06969  1.0000
  C   C8        1.0  0.76778  0.3428  0.04734  1.0000
  C   C9        1.0  0.55811  0.38212  0.08867  1.0000
  C   C10       1.0  0.4149700000000001  0.60074  0.23076  1.0000
  C   C11       1.0  0.42092  0.60858  0.26796  1.0000
  C   C12       1.0  0.65767  0.7145300000000001  0.25131  1.0000
  C   C13       1.0  0.8352600000000002  0.0028299999999999944  0.10336999999999999  1.0000
  C   C14       1.0  0.93772  0.1169  0.10900999999999998  1.0000
  C   C15       1.0  0.9521400000000001  0.01992  0.15907  1.0000
  C   C16       1.0  0.7127500000000002  0.37225000000000014  0.38284  1.0000
  C   C17       1.0  0.7395300000000002  0.41427000000000014  0.4199499999999999  1.0000
  C   C18       1.0  0.7883800000000002  0.32177999999999995  0.44362999999999997  1.0000
  C   C19       1.0  0.8152700000000003  0.18656  0.43008  1.0000
  C   C20       1.0  0.7941300000000002  0.14486  0.39278  1.0000
  C   C21       1.0  0.7412100000000003  0.237  0.36944  1.0000
  C   C22       1.0  0.6594200000000002  0.46929000000000004  0.3567  1.0000
  C   C23       1.0  0.8671500000000002  0.08684999999999997  0.45508999999999994  1.0000
  C   C24       1.0  0.18597  0.4109800000000001  0.37671  1.0000
  C   C25       1.0  0.25901  0.28911  0.38475  1.0000
  C   C26       1.0  0.26505  0.18133  0.35739  1.0000
  C   C27       1.0  0.19542  0.19261  0.3228  1.0000
  C   C28       1.0  0.12522  0.31632000000000005  0.31553  1.0000
  C   C29       1.0  0.11909000000000003  0.42664  0.34219  1.0000
  C   C30       1.0  0.3210800000000001  0.5466300000000001  0.43031  1.0000
  C   C31       1.0  0.26778000000000013  0.6572  0.45265999999999995  1.0000
  C   C32       1.0  0.05811  0.61789  0.41133  1.0000
  C   C33       1.0  0.91497  0.39926000000000006  0.26925  1.0000
  C   C34       1.0  0.9209200000000002  0.39142  0.23204  1.0000
  C   C35       1.0  0.15767  0.28547  0.24868999999999997  1.0000
  C   C36       1.0  0.33526  0.9971700000000001  0.3966299999999999  1.0000
  C   C37       1.0  0.4377200000000001  0.8831  0.39099  1.0000
  C   C38       1.0  0.4521400000000001  0.98009  0.34093  1.0000
  C   C39       1.0  0.21275000000000002  0.62775  0.11715999999999999  1.0000
  C   C40       1.0  0.23952000000000007  0.58573  0.08005  1.0000
  C   C41       1.0  0.28838000000000014  0.67822  0.05637  1.0000
  C   C42       1.0  0.3152700000000001  0.8134400000000002  0.06992  1.0000
  C   C43       1.0  0.2941300000000001  0.85514  0.10722  1.0000
  C   C44       1.0  0.24121000000000006  0.7629999999999999  0.13056999999999996  1.0000
  C   C45       1.0  0.15942000000000006  0.53071  0.14329999999999998  1.0000
  C   C46       1.0  0.36714  0.91315  0.04491  1.0000
  C   C47       1.0  0.31403  0.41097999999999996  0.8767099999999999  1.0000
  C   C48       1.0  0.24099000000000007  0.28911  0.88475  1.0000
  C   C49       1.0  0.23495000000000005  0.18133  0.85739  1.0000
  C   C50       1.0  0.30458  0.19260000000000005  0.8228  1.0000
  C   C51       1.0  0.3747900000000001  0.31631  0.81554  1.0000
  C   C52       1.0  0.38091000000000014  0.42664  0.84219  1.0000
  C   C53       1.0  0.17892  0.5466200000000001  0.9303200000000001  1.0000
  C   C54       1.0  0.23223000000000005  0.6572  0.9526699999999999  1.0000
  C   C55       1.0  0.44189  0.61788  0.91133  1.0000
  C   C56       1.0  0.58503  0.39926000000000006  0.7692499999999999  1.0000
  C   C57       1.0  0.57909  0.3914100000000001  0.73204  1.0000
  C   C58       1.0  0.34233000000000013  0.28547  0.74869  1.0000
  C   C59       1.0  0.16474000000000005  0.9971600000000002  0.89663  1.0000
  C   C60       1.0  0.06229000000000001  0.88309  0.8909899999999998  1.0000
  C   C61       1.0  0.04787  0.9800800000000001  0.84093  1.0000
  C   C62       1.0  0.28725  0.62775  0.6171699999999999  1.0000
  C   C63       1.0  0.26048  0.58573  0.58005  1.0000
  C   C64       1.0  0.21163000000000004  0.67822  0.55637  1.0000
  C   C65       1.0  0.18473000000000006  0.8134400000000002  0.56992  1.0000
  C   C66       1.0  0.20588000000000006  0.8551300000000001  0.60722  1.0000
  C   C67       1.0  0.25879  0.7630000000000002  0.63057  1.0000
  C   C68       1.0  0.34058  0.5307  0.6433  1.0000
  C   C69       1.0  0.13286000000000003  0.91315  0.54491  1.0000
  C   C70       1.0  0.8140300000000003  0.58901  0.62329  1.0000
  C   C71       1.0  0.7409900000000003  0.7108900000000002  0.61525  1.0000
  C   C72       1.0  0.73495  0.81867  0.64261  1.0000
  C   C73       1.0  0.8045800000000002  0.80739  0.6772  1.0000
  C   C74       1.0  0.8747900000000001  0.6836800000000002  0.68447  1.0000
  C   C75       1.0  0.88091  0.5733600000000001  0.65781  1.0000
  C   C76       1.0  0.67893  0.45337000000000005  0.56969  1.0000
  C   C77       1.0  0.73223  0.3428  0.54734  1.0000
  C   C78       1.0  0.9418900000000002  0.38211000000000006  0.58868  1.0000
  C   C79       1.0  0.08503  0.60073  0.73076  1.0000
  C   C80       1.0  0.07908000000000003  0.60858  0.7679599999999999  1.0000
  C   C81       1.0  0.84233  0.7145300000000002  0.75131  1.0000
  C   C82       1.0  0.66474  0.0028300000000000053  0.60337  1.0000
  C   C83       1.0  0.56229  0.1169  0.60902  1.0000
  C   C84       1.0  0.54787  0.01991000000000002  0.65907  1.0000
  C   C85       1.0  0.7872500000000002  0.37225000000000014  0.88284  1.0000
  C   C86       1.0  0.7604800000000003  0.41427000000000014  0.91996  1.0000
  C   C87       1.0  0.7116300000000002  0.32177999999999995  0.9436299999999999  1.0000
  C   C88       1.0  0.6847300000000002  0.18656000000000006  0.93009  1.0000
  C   C89       1.0  0.7058800000000002  0.14485999999999996  0.8927799999999999  1.0000
  C   C90       1.0  0.7587900000000002  0.23699  0.86944  1.0000
  C   C91       1.0  0.8405800000000001  0.46929000000000004  0.85671  1.0000
  C   C92       1.0  0.6328600000000002  0.08684999999999993  0.9550899999999999  1.0000
  I   I1        1.0  0.19983000000000006  0.27954  0.99421  1.0000
  I   I2        1.0  0.9920000000000002  0.8086100000000002  0.32204  1.0000
  I   I3        1.0  0.6998300000000002  0.72046  0.5058  1.0000
  I   I4        1.0  0.4920000000000001  0.19139  0.17796  1.0000
  I   I5        1.0  0.8001700000000002  0.72046  0.0058  1.0000
  I   I6        1.0  0.008000000000000002  0.19138999999999998  0.67797  1.0000
  I   I7        1.0  0.3001800000000001  0.27954  0.4942099999999999  1.0000
  I   I8        1.0  0.508  0.8086100000000002  0.82204  1.0000
  N   N1        1.0  0.6035400000000002  0.30036000000000007  0.05925  1.0000
  N   N2        1.0  0.6879100000000002  0.47806  0.09583  1.0000
  N   N3        1.0  0.57233  0.6793200000000001  0.28039  1.0000
  N   N4        1.0  0.5660000000000002  0.6689000000000003  0.22047  1.0000
  N   N5        1.0  0.009540000000000003  0.12600000000000003  0.14374  1.0000
  N   N6        1.0  0.84475  0.94216  0.13541  1.0000
  N   N7        1.0  0.10354  0.69964  0.44075  1.0000
  N   N8        1.0  0.18791  0.52194  0.40417  1.0000
  N   N9        1.0  0.07233  0.32068  0.21960999999999997  1.0000
  N   N10       1.0  0.066  0.3311  0.27953  1.0000
  N   N11       1.0  0.50954  0.8740000000000001  0.35626  1.0000
  N   N12       1.0  0.34475  0.05784000000000004  0.36459  1.0000
  N   N13       1.0  0.3964700000000001  0.69964  0.94075  1.0000
  N   N14       1.0  0.31209  0.52194  0.90418  1.0000
  N   N15       1.0  0.4276700000000001  0.32067  0.71961  1.0000
  N   N16       1.0  0.43401  0.3311  0.77954  1.0000
  N   N17       1.0  0.9904600000000001  0.8740000000000001  0.85627  1.0000
  N   N18       1.0  0.15525  0.05783999999999993  0.8645899999999997  1.0000
  N   N19       1.0  0.8964700000000002  0.30035  0.55925  1.0000
  N   N20       1.0  0.8121000000000003  0.4780599999999999  0.5958299999999999  1.0000
  N   N21       1.0  0.92767  0.6793200000000001  0.78039  1.0000
  N   N22       1.0  0.9340100000000002  0.6689000000000002  0.72047  1.0000
  N   N23       1.0  0.4904600000000001  0.12599999999999997  0.6437399999999999  1.0000
  N   N24       1.0  0.65525  0.94215  0.63541  1.0000
  O   O1        1.0  0.6787500000000001  0.5966500000000001  0.36894  1.0000
  O   O2        1.0  0.6064500000000003  0.42707000000000006  0.32552  1.0000
  O   O3        1.0  0.8566500000000002  0.11943999999999998  0.48933  1.0000
  O   O4        1.0  0.9179400000000002  0.9709400000000001  0.4404199999999999  1.0000
  O   O5        1.0  0.17875  0.40335  0.13106  1.0000
  O   O6        1.0  0.10644  0.57293  0.17448  1.0000
  O   O7        1.0  0.35665000000000013  0.8805600000000002  0.01067  1.0000
  O   O8        1.0  0.4179400000000001  0.029060000000000006  0.05958  1.0000
  O   O9        1.0  0.3212500000000001  0.40334000000000003  0.63106  1.0000
  O   O10       1.0  0.39356  0.5729200000000001  0.67448  1.0000
  O   O11       1.0  0.14335000000000006  0.8805500000000002  0.5106699999999998  1.0000
  O   O12       1.0  0.08206  0.029059999999999978  0.55958  1.0000
  O   O13       1.0  0.8212500000000003  0.5966500000000001  0.8689399999999999  1.0000
  O   O14       1.0  0.8935600000000002  0.42707000000000006  0.82552  1.0000
  O   O15       1.0  0.6433600000000003  0.11944000000000007  0.98933  1.0000
  O   O16       1.0  0.5820600000000002  0.9709400000000001  0.9404199999999999  1.0000
