data_image0
_chemical_formula_structural       Cd8H56C96N16O32
_chemical_formula_sum              "Cd8 H56 C96 N16 O32"
_cell_length_a       7.85079
_cell_length_b       14.70349
_cell_length_c       26.7716
_cell_angle_alpha    89.98746000000001
_cell_angle_beta     90.04036
_cell_angle_gamma    89.97141999999998

_symmetry_space_group_name_H-M    'P 1'
_symmetry_Int_Tables_number       1

loop_
  _symmetry_equiv_pos_as_xyz
  'x,y,z'

loop_
  _atom_site_type_symbol
  _atom_site_label
  _atom_site_symmetry_multiplicity
  _atom_site_fract_x
  _atom_site_fract_y
  _atom_site_fract_z
  _atom_site_occupancy
  Cd  Cd1       1.0  0.6134  0.76525  0.66189  1.0000
  Cd  Cd2       1.0  0.76622  0.17105999999999993  0.6021  1.0000
  Cd  Cd3       1.0  0.38672  0.7356199999999998  0.16197  1.0000
  Cd  Cd4       1.0  0.23311  0.3303599999999999  0.10183  1.0000
  Cd  Cd5       1.0  0.38661  0.23473999999999995  0.33811  1.0000
  Cd  Cd6       1.0  0.23379  0.8289299999999997  0.3979  1.0000
  Cd  Cd7       1.0  0.61329  0.26437  0.8380300000000002  1.0000
  Cd  Cd8       1.0  0.7669  0.66964  0.89817  1.0000
  H   H1        1.0  0.07369  0.73731  0.72118  1.0000
  H   H2        1.0  0.82947  0.7274799999999998  0.78033  1.0000
  H   H3        1.0  0.15625000000000003  0.71347  0.90197  1.0000
  H   H4        1.0  0.22883  0.7577599999999998  0.64716  1.0000
  H   H5        1.0  0.56031  0.9640499999999997  0.60699  1.0000
  H   H6        1.0  0.31548  0.06188  0.57711  1.0000
  H   H7        1.0  0.47909999999999997  0.55734  0.64721  1.0000
  H   H8        1.0  0.43379  0.4418799999999999  0.58093  1.0000
  H   H9        1.0  0.57555  0.6498199999999998  0.4731  1.0000
  H   H10       1.0  0.62824  0.75209  0.54462  1.0000
  H   H11       1.0  0.9532  0.72681  0.00744  1.0000
  H   H12       1.0  0.05812  0.8651799999999998  0.04801  1.0000
  H   H13       1.0  0.85626  0.01867  0.92264  1.0000
  H   H14       1.0  0.74647  0.87366  0.8895100000000002  1.0000
  H   H15       1.0  0.92553  0.7625999999999997  0.22125000000000003  1.0000
  H   H16       1.0  0.17064  0.7693699999999998  0.28013  1.0000
  H   H17       1.0  0.84659  0.7805099999999998  0.40229  1.0000
  H   H18       1.0  0.77004  0.7431699999999998  0.1475  1.0000
  H   H19       1.0  0.44178  0.53569  0.10673  1.0000
  H   H20       1.0  0.68813  0.4399999999999999  0.07613  1.0000
  H   H21       1.0  0.52262  0.9432399999999997  0.14726  1.0000
  H   H22       1.0  0.56456  0.05894999999999999  0.08088  1.0000
  H   H23       1.0  0.42965  0.8495  0.97317  1.0000
  H   H24       1.0  0.38039  0.7469399999999998  0.0447  1.0000
  H   H25       1.0  0.04966  0.7731499999999998  0.50736  1.0000
  H   H26       1.0  0.94385  0.6346199999999997  0.5481  1.0000
  H   H27       1.0  0.14317  0.48096  0.42265  1.0000
  H   H28       1.0  0.25396  0.62566  0.3895000000000001  1.0000
  H   H29       1.0  0.92632  0.26268  0.27883  1.0000
  H   H30       1.0  0.17053  0.2725199999999999  0.21968  1.0000
  H   H31       1.0  0.84376  0.28652  0.09803  1.0000
  H   H32       1.0  0.77118  0.24222999999999995  0.35284000000000004  1.0000
  H   H33       1.0  0.4397  0.03594  0.39301  1.0000
  H   H34       1.0  0.68452  0.9381199999999997  0.42290000000000005  1.0000
  H   H35       1.0  0.52091  0.44265  0.35279  1.0000
  H   H36       1.0  0.56622  0.5581099999999998  0.41908  1.0000
  H   H37       1.0  0.42446  0.35017  0.5269  1.0000
  H   H38       1.0  0.37177  0.24790999999999996  0.45538  1.0000
  H   H39       1.0  0.04681  0.27318999999999993  0.9925700000000001  1.0000
  H   H40       1.0  0.94189  0.13482  0.95199  1.0000
  H   H41       1.0  0.14375  0.9813199999999997  0.07736  1.0000
  H   H42       1.0  0.25354  0.12633  0.11049  1.0000
  H   H43       1.0  0.07448  0.23738999999999993  0.77876  1.0000
  H   H44       1.0  0.82937  0.23061999999999994  0.7198800000000001  1.0000
  H   H45       1.0  0.15342  0.21948999999999994  0.59771  1.0000
  H   H46       1.0  0.22997  0.25682999999999995  0.8525  1.0000
  H   H47       1.0  0.55823  0.4642999999999999  0.8932700000000001  1.0000
  H   H48       1.0  0.3118699999999999  0.5599899999999998  0.92388  1.0000
  H   H49       1.0  0.47739  0.05675  0.85275  1.0000
  H   H50       1.0  0.43545  0.9410399999999998  0.9191200000000002  1.0000
  H   H51       1.0  0.57036  0.15049  0.02683  1.0000
  H   H52       1.0  0.61961  0.25306  0.95531  1.0000
  H   H53       1.0  0.95035  0.22685  0.49265  1.0000
  H   H54       1.0  0.05615  0.36536999999999986  0.4519  1.0000
  H   H55       1.0  0.85683  0.51903  0.57736  1.0000
  H   H56       1.0  0.74604  0.3743299999999999  0.6105000000000002  1.0000
  C   C1        1.0  0.40805  0.7290799999999997  0.74217  1.0000
  C   C2        1.0  0.26509  0.7260899999999998  0.77947  1.0000
  C   C3        1.0  0.09803  0.73077  0.76096  1.0000
  C   C4        1.0  0.96082  0.72644  0.79365  1.0000
  C   C5        1.0  0.14273  0.7197499999999998  0.86167  1.0000
  C   C6        1.0  0.28773  0.72229  0.83147  1.0000
  C   C7        1.0  0.45588  0.7100699999999998  0.8567100000000002  1.0000
  C   C8        1.0  0.92543  0.8324899999999997  0.62158  1.0000
  C   C9        1.0  0.09847  0.8757099999999998  0.61711  1.0000
  C   C10       1.0  0.24178  0.8257499999999998  0.63156  1.0000
  C   C11       1.0  0.42851  0.9411299999999998  0.60879  1.0000
  C   C12       1.0  0.29302  0.9945199999999997  0.59253  1.0000
  C   C13       1.0  0.12516  0.9629099999999998  0.59699  1.0000
  C   C14       1.0  0.98272  0.02867  0.58614  1.0000
  C   C15       1.0  0.50223  0.5733899999999997  0.60807  1.0000
  C   C16       1.0  0.47485  0.50998  0.57043  1.0000
  C   C17       1.0  0.50714  0.5337299999999998  0.52037  1.0000
  C   C18       1.0  0.55556  0.6239799999999998  0.51077  1.0000
  C   C19       1.0  0.58219  0.68312  0.5505  1.0000
  C   C20       1.0  0.92966  0.7931199999999998  0.9905400000000001  1.0000
  C   C21       1.0  0.99065  0.8723099999999998  0.01277  1.0000
  C   C22       1.0  0.96754  0.9569999999999997  0.98918  1.0000
  C   C23       1.0  0.87951  0.95648  0.94349  1.0000
  C   C24       1.0  0.81817  0.8751999999999998  0.92433  1.0000
  C   C25       1.0  0.5918  0.77054  0.24249  1.0000
  C   C26       1.0  0.73498  0.7723599999999998  0.27986  1.0000
  C   C27       1.0  0.90171  0.7678399999999997  0.26111  1.0000
  C   C28       1.0  0.03961  0.77055  0.29364  1.0000
  C   C29       1.0  0.85906  0.7754999999999999  0.36193  1.0000
  C   C30       1.0  0.71319  0.7745199999999998  0.33199000000000006  1.0000
  C   C31       1.0  0.54546  0.78743  0.35754  1.0000
  C   C32       1.0  0.07358  0.67119  0.12140000000000001  1.0000
  C   C33       1.0  0.90221  0.6264799999999998  0.11674  1.0000
  C   C34       1.0  0.75812  0.6753099999999997  0.13169  1.0000
  C   C35       1.0  0.57315  0.55937  0.10856  1.0000
  C   C36       1.0  0.70959  0.50709  0.09196000000000003  1.0000
  C   C37       1.0  0.87711  0.53939  0.09633  1.0000
  C   C38       1.0  0.0203  0.47407  0.08516  1.0000
  C   C39       1.0  0.50022  0.9268899999999998  0.10811  1.0000
  C   C40       1.0  0.52568  0.99046  0.07043  1.0000
  C   C41       1.0  0.49412  0.9662699999999997  0.02039  1.0000
  C   C42       1.0  0.44892  0.8755199999999997  0.01083  1.0000
  C   C43       1.0  0.42421  0.8162699999999998  0.05060000000000001  1.0000
  C   C44       1.0  0.0724  0.70665  0.49060000000000004  1.0000
  C   C45       1.0  0.01098  0.62759  0.51284  1.0000
  C   C46       1.0  0.03294  0.5428899999999998  0.4892000000000001  1.0000
  C   C47       1.0  0.12069  0.5431699999999999  0.44352  1.0000
  C   C48       1.0  0.18265  0.62429  0.42436  1.0000
  C   C49       1.0  0.59196  0.27092  0.25783  1.0000
  C   C50       1.0  0.73492  0.27391  0.22053000000000006  1.0000
  C   C51       1.0  0.90197  0.26922  0.23904  1.0000
  C   C52       1.0  0.03919  0.27355  0.20636  1.0000
  C   C53       1.0  0.85727  0.28024  0.13833  1.0000
  C   C54       1.0  0.71228  0.2776999999999999  0.16853000000000004  1.0000
  C   C55       1.0  0.54413  0.28993  0.14329  1.0000
  C   C56       1.0  0.07458  0.1675  0.37842  1.0000
  C   C57       1.0  0.90154  0.12427999999999997  0.38289  1.0000
  C   C58       1.0  0.75823  0.17423999999999995  0.36844  1.0000
  C   C59       1.0  0.5715  0.058869999999999985  0.39121  1.0000
  C   C60       1.0  0.70698  0.00547  0.40747  1.0000
  C   C61       1.0  0.8748499999999999  0.03707999999999999  0.40302  1.0000
  C   C62       1.0  0.01729  0.9713199999999997  0.41386  1.0000
  C   C63       1.0  0.49777  0.42659999999999987  0.39193000000000006  1.0000
  C   C64       1.0  0.52516  0.4900199999999999  0.42957  1.0000
  C   C65       1.0  0.49287  0.46627  0.47963  1.0000
  C   C66       1.0  0.44445  0.3760099999999999  0.48923  1.0000
  C   C67       1.0  0.41782  0.3168699999999999  0.4495  1.0000
  C   C68       1.0  0.07035  0.20687  0.00946  1.0000
  C   C69       1.0  0.00936  0.12768  0.98723  1.0000
  C   C70       1.0  0.03246  0.043  0.01083  1.0000
  C   C71       1.0  0.1205  0.043519999999999996  0.05651  1.0000
  C   C72       1.0  0.18184000000000003  0.12479999999999997  0.07568  1.0000
  C   C73       1.0  0.40821  0.22945999999999994  0.75751  1.0000
  C   C74       1.0  0.26502  0.22762999999999994  0.72014  1.0000
  C   C75       1.0  0.0983  0.23215999999999995  0.73889  1.0000
  C   C76       1.0  0.9604  0.22944  0.70636  1.0000
  C   C77       1.0  0.14095  0.22449  0.63808  1.0000
  C   C78       1.0  0.28682  0.22547  0.66801  1.0000
  C   C79       1.0  0.45455  0.21255999999999994  0.64246  1.0000
  C   C80       1.0  0.92643  0.32881  0.8786  1.0000
  C   C81       1.0  0.0978  0.37351  0.8832700000000001  1.0000
  C   C82       1.0  0.24189  0.32469  0.86832  1.0000
  C   C83       1.0  0.42686  0.4406199999999999  0.89144  1.0000
  C   C84       1.0  0.29042  0.4929  0.90804  1.0000
  C   C85       1.0  0.1229  0.46061  0.90367  1.0000
  C   C86       1.0  0.9797  0.5259299999999999  0.91484  1.0000
  C   C87       1.0  0.49979  0.0731  0.89189  1.0000
  C   C88       1.0  0.47433  0.00953  0.92957  1.0000
  C   C89       1.0  0.50589  0.03373  0.97961  1.0000
  C   C90       1.0  0.55108  0.12446999999999997  0.98918  1.0000
  C   C91       1.0  0.5758  0.18371999999999994  0.94941  1.0000
  C   C92       1.0  0.92761  0.29334  0.5094  1.0000
  C   C93       1.0  0.98903  0.3724  0.48716  1.0000
  C   C94       1.0  0.96707  0.45711  0.51081  1.0000
  C   C95       1.0  0.87931  0.4568199999999999  0.55648  1.0000
  C   C96       1.0  0.81735  0.3757  0.57564  1.0000
  N   N1        1.0  0.98271  0.7191399999999998  0.84349  1.0000
  N   N2        1.0  0.40264  0.8574699999999997  0.62806  1.0000
  N   N3        1.0  0.56034  0.65803  0.5985  1.0000
  N   N4        1.0  0.84282  0.7944999999999998  0.9471100000000001  1.0000
  N   N5        1.0  0.01878  0.7760999999999999  0.34356  1.0000
  N   N6        1.0  0.59782  0.6428  0.12826  1.0000
  N   N7        1.0  0.44476  0.84176  0.09858000000000001  1.0000
  N   N8        1.0  0.15873  0.7049999999999997  0.44714  1.0000
  N   N9        1.0  0.017289999999999996  0.28086  0.15651  1.0000
  N   N10       1.0  0.59737  0.14251999999999995  0.37194  1.0000
  N   N11       1.0  0.43966  0.34197  0.4015  1.0000
  N   N12       1.0  0.15719  0.20549  0.052890000000000006  1.0000
  N   N13       1.0  0.98123  0.22389999999999993  0.65644  1.0000
  N   N14       1.0  0.40219  0.35719  0.87174  1.0000
  N   N15       1.0  0.55525  0.15822999999999995  0.90143  1.0000
  N   N16       1.0  0.84128  0.295  0.55287  1.0000
  O   O1        1.0  0.52613  0.78739  0.74755  1.0000
  O   O2        1.0  0.3936  0.6772499999999998  0.7042000000000002  1.0000
  O   O3        1.0  0.55798  0.6510199999999999  0.8386  1.0000
  O   O4        1.0  0.48476  0.7544499999999997  0.89677  1.0000
  O   O5        1.0  0.88513  0.80489  0.66615  1.0000
  O   O6        1.0  0.83641  0.8221  0.58327  1.0000
  O   O7        1.0  0.84955  0.022679999999999992  0.61367  1.0000
  O   O8        1.0  0.0084  0.09202  0.55512  1.0000
  O   O9        1.0  0.47288  0.71268  0.24759  1.0000
  O   O10       1.0  0.60722  0.8226199999999998  0.20463  1.0000
  O   O11       1.0  0.44227  0.8450499999999997  0.33852  1.0000
  O   O12       1.0  0.51726  0.7455699999999997  0.39852  1.0000
  O   O13       1.0  0.11646  0.69496  0.16638000000000003  1.0000
  O   O14       1.0  0.15841  0.6865899999999998  0.08281  1.0000
  O   O15       1.0  0.15697  0.48176999999999987  0.11107  1.0000
  O   O16       1.0  0.99161  0.40893  0.055400000000000005  1.0000
  O   O17       1.0  0.47388  0.21259999999999996  0.25245  1.0000
  O   O18       1.0  0.60641  0.3227399999999999  0.29581  1.0000
  O   O19       1.0  0.44203  0.34897  0.16141  1.0000
  O   O20       1.0  0.51525  0.24553999999999998  0.10323  1.0000
  O   O21       1.0  0.11488  0.19511  0.33386  1.0000
  O   O22       1.0  0.1636  0.17789  0.41673  1.0000
  O   O23       1.0  0.15046  0.9773099999999998  0.3863400000000001  1.0000
  O   O24       1.0  0.9916  0.9079699999999998  0.44488  1.0000
  O   O25       1.0  0.52712  0.28731  0.75242  1.0000
  O   O26       1.0  0.39278  0.17737999999999995  0.79538  1.0000
  O   O27       1.0  0.55774  0.15494999999999995  0.66149  1.0000
  O   O28       1.0  0.48275  0.25443  0.60148  1.0000
  O   O29       1.0  0.88355  0.30503999999999987  0.83363  1.0000
  O   O30       1.0  0.8416  0.3133999999999999  0.9172  1.0000
  O   O31       1.0  0.84304  0.51822  0.88894  1.0000
  O   O32       1.0  0.00839  0.59106  0.9446100000000001  1.0000
