data_image0
_chemical_formula_structural       Cu8H72C80I8N16
_chemical_formula_sum              "Cu8 H72 C80 I8 N16"
_cell_length_a       13.15864
_cell_length_b       17.313250000000004
_cell_length_c       17.31325
_cell_angle_alpha    81.56125000000002
_cell_angle_beta     67.46296999999998
_cell_angle_gamma    67.46296999999998

_symmetry_space_group_name_H-M    'P 1'
_symmetry_Int_Tables_number       1

loop_
  _symmetry_equiv_pos_as_xyz
  'x,y,z'

loop_
  _atom_site_type_symbol
  _atom_site_label
  _atom_site_symmetry_multiplicity
  _atom_site_fract_x
  _atom_site_fract_y
  _atom_site_fract_z
  _atom_site_occupancy
  Cu  Cu1       1.0  0.8644600000000001  0.7500499999999998  0.7718999999999998  1.0000
  Cu  Cu2       1.0  0.3858100000000001  0.7499699999999998  0.7275099999999998  1.0000
  Cu  Cu3       1.0  0.6142100000000006  0.7724899999999998  0.75003  1.0000
  Cu  Cu4       1.0  0.13555999999999988  0.7280999999999997  0.74994  1.0000
  Cu  Cu5       1.0  0.13555000000000006  0.24993999999999994  0.22809999999999994  1.0000
  Cu  Cu6       1.0  0.61421  0.25003  0.27249  1.0000
  Cu  Cu7       1.0  0.3858  0.22751  0.24996999999999994  1.0000
  Cu  Cu8       1.0  0.86446  0.27189999999999986  0.25006  1.0000
  H   H1        1.0  0.8450100000000001  0.8103199999999998  0.9519999999999997  1.0000
  H   H2        1.0  0.89934  0.8458899999999998  0.8494799999999998  1.0000
  H   H3        1.0  0.82302  0.9913299999999998  0.8974699999999998  1.0000
  H   H4        1.0  0.9089000000000004  0.9263499999999998  0.9550999999999997  1.0000
  H   H5        1.0  0.6078000000000002  0.6886199999999998  0.5470599999999998  1.0000
  H   H6        1.0  0.5951799999999999  0.6528699999999997  0.64942  1.0000
  H   H7        1.0  0.71284  0.5073299999999997  0.6011  1.0000
  H   H8        1.0  0.7916900000000001  0.5720199999999998  0.5433099999999997  1.0000
  H   H9        1.0  0.6544700000000004  0.9525599999999997  0.6890899999999998  1.0000
  H   H10       1.0  0.74487  0.8501399999999998  0.65346  1.0000
  H   H11       1.0  0.8146500000000001  0.8980899999999998  0.5079899999999998  1.0000
  H   H12       1.0  0.8350300000000005  0.9558799999999997  0.5727999999999998  1.0000
  H   H13       1.0  0.2973800000000001  0.54757  0.81082  1.0000
  H   H14       1.0  0.2483500000000002  0.6500299999999998  0.8465899999999997  1.0000
  H   H15       1.0  0.21997000000000005  0.60175  0.9920199999999998  1.0000
  H   H16       1.0  0.36402  0.54409  0.92715  1.0000
  H   H17       1.0  0.1550100000000003  0.5479999999999998  0.6896699999999998  1.0000
  H   H18       1.0  0.10068000000000006  0.6505099999999998  0.65411  1.0000
  H   H19       1.0  0.17700000000000018  0.6025299999999998  0.5086699999999997  1.0000
  H   H20       1.0  0.0911200000000002  0.5448999999999998  0.57365  1.0000
  H   H21       1.0  0.3922200000000001  0.9529399999999998  0.81138  1.0000
  H   H22       1.0  0.40484000000000003  0.8505799999999998  0.8471199999999998  1.0000
  H   H23       1.0  0.28718  0.8989  0.9926599999999998  1.0000
  H   H24       1.0  0.20833000000000032  0.9566799999999998  0.9279699999999997  1.0000
  H   H25       1.0  0.3455499999999997  0.8108999999999997  0.54744  1.0000
  H   H26       1.0  0.25515000000000027  0.8465399999999997  0.6498599999999998  1.0000
  H   H27       1.0  0.1853700000000002  0.9920099999999997  0.6019099999999997  1.0000
  H   H28       1.0  0.16499000000000016  0.9271899999999997  0.54412  1.0000
  H   H29       1.0  0.7026399999999999  0.68918  0.9524299999999998  1.0000
  H   H30       1.0  0.75167  0.6534099999999998  0.84996  1.0000
  H   H31       1.0  0.7800500000000005  0.5079699999999998  0.8982399999999998  1.0000
  H   H32       1.0  0.6360000000000001  0.5728499999999997  0.95591  1.0000
  H   H33       1.0  0.15501000000000006  0.18967  0.04799999999999999  1.0000
  H   H34       1.0  0.10068000000000003  0.15411  0.15051999999999993  1.0000
  H   H35       1.0  0.17699000000000004  0.00867  0.10252999999999997  1.0000
  H   H36       1.0  0.09111000000000001  0.07364999999999997  0.04489999999999999  1.0000
  H   H37       1.0  0.39222000000000007  0.31138  0.4529399999999999  1.0000
  H   H38       1.0  0.40483  0.34712  0.35058  1.0000
  H   H39       1.0  0.2871700000000001  0.4926599999999999  0.3989  1.0000
  H   H40       1.0  0.20832000000000014  0.4279699999999999  0.45669  1.0000
  H   H41       1.0  0.34554  0.04744  0.3108999999999999  1.0000
  H   H42       1.0  0.2551499999999999  0.14985999999999994  0.34654  1.0000
  H   H43       1.0  0.18536000000000005  0.10190999999999997  0.4920099999999999  1.0000
  H   H44       1.0  0.16498000000000002  0.044119999999999986  0.4271899999999999  1.0000
  H   H45       1.0  0.70263  0.4524299999999999  0.18917999999999993  1.0000
  H   H46       1.0  0.7516700000000001  0.34996  0.15341  1.0000
  H   H47       1.0  0.7800400000000002  0.3982499999999999  0.00798  1.0000
  H   H48       1.0  0.6360000000000001  0.45590999999999987  0.07285  1.0000
  H   H49       1.0  0.845  0.4519999999999999  0.31033  1.0000
  H   H50       1.0  0.8993299999999999  0.34948  0.34589  1.0000
  H   H51       1.0  0.8230200000000001  0.3974699999999999  0.49133  1.0000
  H   H52       1.0  0.9089000000000006  0.4550999999999999  0.42635  1.0000
  H   H53       1.0  0.6077900000000002  0.047059999999999984  0.18862  1.0000
  H   H54       1.0  0.59518  0.14942  0.15287  1.0000
  H   H55       1.0  0.71284  0.10109999999999997  0.00733  1.0000
  H   H56       1.0  0.79168  0.04330999999999999  0.07202  1.0000
  H   H57       1.0  0.6544600000000003  0.18908999999999995  0.4525599999999999  1.0000
  H   H58       1.0  0.74486  0.15346  0.35014  1.0000
  H   H59       1.0  0.8146500000000001  0.00799  0.3980899999999999  1.0000
  H   H60       1.0  0.83503  0.07279999999999998  0.4558799999999999  1.0000
  H   H61       1.0  0.29738000000000003  0.31082  0.04757  1.0000
  H   H62       1.0  0.24834000000000012  0.3465899999999999  0.15003999999999995  1.0000
  H   H63       1.0  0.21996000000000004  0.4920199999999999  0.10175  1.0000
  H   H64       1.0  0.36401  0.42714999999999986  0.04408999999999998  1.0000
  H   H65       1.0  0.7286400000000001  0.9246599999999998  0.07403999999999997  1.0000
  H   H66       1.0  0.72864  0.5740400000000001  0.42466  1.0000
  H   H67       1.0  0.6526400000000001  0.07464999999999997  0.5746499999999998  1.0000
  H   H68       1.0  0.30345000000000016  0.42526999999999987  0.9252699999999998  1.0000
  H   H69       1.0  0.2713700000000001  0.42596  0.5753399999999997  1.0000
  H   H70       1.0  0.2713800000000001  0.07534  0.9259599999999998  1.0000
  H   H71       1.0  0.34737000000000007  0.9253499999999998  0.42535  1.0000
  H   H72       1.0  0.6965600000000001  0.5747299999999997  0.07473  1.0000
  C   C1        1.0  0.7125700000000003  0.8793199999999998  0.90096  1.0000
  C   C2        1.0  0.6069800000000001  0.9401999999999998  0.95264  1.0000
  C   C3        1.0  0.8273099999999998  0.8644  0.9102999999999998  1.0000
  C   C4        1.0  0.8261400000000001  0.9413799999999998  0.94469  1.0000
  C   C5        1.0  0.49279  0.62027  0.59854  1.0000
  C   C6        1.0  0.49984000000000034  0.5595299999999997  0.5471499999999998  1.0000
  C   C7        1.0  0.6025100000000001  0.6345599999999998  0.58873  1.0000
  C   C8        1.0  0.7132000000000002  0.5573899999999998  0.554  1.0000
  C   C9        1.0  0.5914500000000003  0.9012699999999998  0.6204899999999998  1.0000
  C   C10       1.0  0.5470800000000002  0.9527199999999998  0.5596099999999998  1.0000
  C   C11       1.0  0.6912300000000001  0.9108599999999998  0.63504  1.0000
  C   C12       1.0  0.7673900000000001  0.9453199999999998  0.55795  1.0000
  C   C13       1.0  0.11339000000000021  0.5988199999999998  0.8795299999999998  1.0000
  C   C14       1.0  0.059590000000000094  0.54722  0.9402999999999998  1.0000
  C   C15       1.0  0.23756000000000005  0.58924  0.86492  1.0000
  C   C16       1.0  0.27078  0.55462  0.9419799999999998  1.0000
  C   C17       1.0  0.2874500000000001  0.59904  0.62068  1.0000
  C   C18       1.0  0.39304  0.54736  0.55979  1.0000
  C   C19       1.0  0.1727100000000001  0.5896899999999998  0.6356  1.0000
  C   C20       1.0  0.17388000000000006  0.5552999999999998  0.55862  1.0000
  C   C21       1.0  0.5072299999999998  0.9014599999999998  0.8797199999999997  1.0000
  C   C22       1.0  0.5001800000000002  0.9528499999999998  0.9404699999999998  1.0000
  C   C23       1.0  0.39751000000000014  0.91127  0.8654399999999998  1.0000
  C   C24       1.0  0.28682000000000013  0.9459999999999997  0.9426099999999997  1.0000
  C   C25       1.0  0.40857000000000016  0.8795099999999998  0.5987299999999998  1.0000
  C   C26       1.0  0.4529400000000001  0.9403899999999997  0.5472799999999998  1.0000
  C   C27       1.0  0.30879000000000006  0.8649599999999997  0.58914  1.0000
  C   C28       1.0  0.23263000000000006  0.9420499999999998  0.55468  1.0000
  C   C29       1.0  0.8866199999999999  0.6204599999999998  0.9011799999999998  1.0000
  C   C30       1.0  0.94043  0.55969  0.9527799999999997  1.0000
  C   C31       1.0  0.7624599999999997  0.6350699999999998  0.91076  1.0000
  C   C32       1.0  0.7292400000000003  0.5580199999999997  0.94537  1.0000
  C   C33       1.0  0.2874499999999999  0.12067999999999997  0.09903999999999998  1.0000
  C   C34       1.0  0.39304  0.059799999999999985  0.04736  1.0000
  C   C35       1.0  0.17270000000000002  0.1356  0.08968999999999998  1.0000
  C   C36       1.0  0.17387000000000005  0.058619999999999985  0.055309999999999984  1.0000
  C   C37       1.0  0.5072199999999999  0.3797199999999999  0.40146  1.0000
  C   C38       1.0  0.50018  0.44046999999999986  0.45284999999999986  1.0000
  C   C39       1.0  0.3975099999999999  0.3654399999999999  0.41127  1.0000
  C   C40       1.0  0.28681000000000006  0.4426099999999999  0.4459999999999999  1.0000
  C   C41       1.0  0.40856  0.09873  0.3795099999999999  1.0000
  C   C42       1.0  0.4529299999999999  0.04727999999999999  0.44039  1.0000
  C   C43       1.0  0.30878000000000005  0.08913999999999997  0.3649599999999999  1.0000
  C   C44       1.0  0.23262000000000005  0.054679999999999986  0.4420499999999999  1.0000
  C   C45       1.0  0.8866199999999999  0.40117999999999987  0.12046  1.0000
  C   C46       1.0  0.9404199999999999  0.4527799999999999  0.0597  1.0000
  C   C47       1.0  0.76246  0.4107599999999999  0.13508  1.0000
  C   C48       1.0  0.72924  0.44537  0.05802  1.0000
  C   C49       1.0  0.71256  0.40095999999999987  0.37932  1.0000
  C   C50       1.0  0.6069700000000001  0.4526399999999999  0.44019999999999987  1.0000
  C   C51       1.0  0.82731  0.41031  0.3643999999999999  1.0000
  C   C52       1.0  0.82614  0.44469  0.4413799999999999  1.0000
  C   C53       1.0  0.49279000000000006  0.09853999999999997  0.12027999999999997  1.0000
  C   C54       1.0  0.49983  0.047149999999999984  0.059529999999999986  1.0000
  C   C55       1.0  0.6024999999999999  0.08873  0.13456  1.0000
  C   C56       1.0  0.7132  0.053999999999999986  0.05738999999999998  1.0000
  C   C57       1.0  0.59144  0.12048999999999997  0.4012699999999999  1.0000
  C   C58       1.0  0.5470800000000001  0.05960999999999999  0.45272  1.0000
  C   C59       1.0  0.6912300000000001  0.13504  0.4108599999999999  1.0000
  C   C60       1.0  0.76739  0.05794999999999999  0.4453199999999999  1.0000
  C   C61       1.0  0.11339000000000005  0.3795399999999999  0.09882  1.0000
  C   C62       1.0  0.059590000000000025  0.4403  0.047219999999999984  1.0000
  C   C63       1.0  0.23755000000000007  0.3649199999999999  0.08923999999999997  1.0000
  C   C64       1.0  0.27077000000000007  0.4419799999999999  0.05463  1.0000
  C   C65       1.0  0.6074700000000001  0.9867399999999997  0.01278  1.0000
  C   C66       1.0  0.7201400000000001  0.9734299999999998  0.025489999999999992  1.0000
  C   C67       1.0  0.6074700000000001  0.5127699999999997  0.48674  1.0000
  C   C68       1.0  0.7201400000000001  0.5254899999999998  0.4734299999999999  1.0000
  C   C69       1.0  0.59412  0.012979999999999997  0.51298  1.0000
  C   C70       1.0  0.6934  0.025979999999999993  0.52598  1.0000
  C   C71       1.0  0.12038000000000017  0.4869699999999999  0.9869699999999998  1.0000
  C   C72       1.0  0.24594000000000016  0.4739299999999999  0.9739299999999997  1.0000
  C   C73       1.0  0.39253999999999983  0.4872199999999999  0.5132599999999998  1.0000
  C   C74       1.0  0.27987  0.47449999999999987  0.52657  1.0000
  C   C75       1.0  0.39253999999999994  0.013259999999999996  0.98722  1.0000
  C   C76       1.0  0.27987000000000006  0.026569999999999993  0.9744999999999998  1.0000
  C   C77       1.0  0.40590000000000015  0.9870199999999998  0.4870199999999999  1.0000
  C   C78       1.0  0.30662  0.9740199999999998  0.47402  1.0000
  C   C79       1.0  0.8796300000000001  0.5130299999999998  0.013029999999999996  1.0000
  C   C80       1.0  0.75408  0.52607  0.02607  1.0000
  I   I1        1.0  0.8324100000000004  0.66854  0.66826  1.0000
  I   I2        1.0  0.16761000000000015  0.8317399999999998  0.8314599999999998  1.0000
  I   I3        1.0  0.50001  0.6689799999999998  0.83102  1.0000
  I   I4        1.0  1.0000000000151447e-05  0.8323199999999997  0.66767  1.0000
  I   I5        1.0  0.16760000000000014  0.33145999999999987  0.33173999999999987  1.0000
  I   I6        1.0  0.8324  0.16825999999999994  0.16854  1.0000
  I   I7        1.0  0.5  0.33101999999999987  0.16897999999999994  1.0000
  I   I8        1.0  1.181210394444425e-16  0.16766999999999996  0.3323299999999999  1.0000
  N   N1        1.0  0.7130700000000001  0.8350499999999997  0.8439699999999998  1.0000
  N   N2        1.0  0.39154000000000005  0.6651599999999998  0.65544  1.0000
  N   N3        1.0  0.54745  0.8443299999999998  0.66509  1.0000
  N   N4        1.0  0.05689000000000018  0.6557599999999998  0.83498  1.0000
  N   N5        1.0  0.28695000000000015  0.65603  0.66495  1.0000
  N   N6        1.0  0.6084800000000005  0.8445499999999998  0.8348399999999998  1.0000
  N   N7        1.0  0.45257000000000014  0.8349099999999998  0.6556599999999998  1.0000
  N   N8        1.0  0.9431300000000004  0.6650199999999997  0.8442299999999998  1.0000
  N   N9        1.0  0.28694  0.16494999999999996  0.15602999999999995  1.0000
  N   N10       1.0  0.60847  0.3348399999999999  0.3445499999999999  1.0000
  N   N11       1.0  0.45255999999999996  0.15566  0.33491  1.0000
  N   N12       1.0  0.9431299999999998  0.34422999999999987  0.16501999999999994  1.0000
  N   N13       1.0  0.71306  0.34397  0.3350499999999999  1.0000
  N   N14       1.0  0.39154  0.15545  0.16516  1.0000
  N   N15       1.0  0.5474399999999999  0.16509  0.34433  1.0000
  N   N16       1.0  0.05688000000000009  0.3349799999999999  0.15576999999999994  1.0000
