data_image0
_chemical_formula_structural       Ba8Cd8H32C96S16O64
_chemical_formula_sum              "Ba8 Cd8 H32 C96 S16 O64"
_cell_length_a       14.13016
_cell_length_b       20.19217
_cell_length_c       20.04661
_cell_angle_alpha    90.20618
_cell_angle_beta     90.00448999999999
_cell_angle_gamma    90.03568

_symmetry_space_group_name_H-M    'P 1'
_symmetry_Int_Tables_number       1

loop_
  _symmetry_equiv_pos_as_xyz
  'x,y,z'

loop_
  _atom_site_type_symbol
  _atom_site_label
  _atom_site_symmetry_multiplicity
  _atom_site_fract_x
  _atom_site_fract_y
  _atom_site_fract_z
  _atom_site_occupancy
  Ba  Ba1       1.0  0.36778  0.3974000000000001  0.28068  1.0000
  Ba  Ba2       1.0  0.13234  0.60229  0.7821899999999999  1.0000
  Ba  Ba3       1.0  0.6326299999999998  0.89745  0.21828999999999998  1.0000
  Ba  Ba4       1.0  0.86733  0.10288000000000001  0.72017  1.0000
  Ba  Ba5       1.0  0.6322299999999998  0.6026  0.71932  1.0000
  Ba  Ba6       1.0  0.86767  0.39771  0.21780999999999998  1.0000
  Ba  Ba7       1.0  0.36737999999999993  0.10254  0.78171  1.0000
  Ba  Ba8       1.0  0.13268  0.8971200000000001  0.27983  1.0000
  Cd  Cd1       1.0  0.12088  0.44846  0.26272  1.0000
  Cd  Cd2       1.0  0.37895  0.5514600000000001  0.76358  1.0000
  Cd  Cd3       1.0  0.87861  0.94867  0.23637  1.0000
  Cd  Cd4       1.0  0.62116  0.05138000000000001  0.73693  1.0000
  Cd  Cd5       1.0  0.8791299999999997  0.55154  0.73728  1.0000
  Cd  Cd6       1.0  0.62106  0.44854000000000005  0.23642  1.0000
  Cd  Cd7       1.0  0.1214  0.05133  0.76363  1.0000
  Cd  Cd8       1.0  0.37885  0.9486100000000002  0.26308  1.0000
  H   H1        1.0  0.25541  0.20282  0.26597  1.0000
  H   H2        1.0  0.19523999999999994  0.07908  0.26218  1.0000
  H   H3        1.0  0.4113099999999999  0.51378  0.12672  1.0000
  H   H4        1.0  0.46187  0.55237  0.00526  1.0000
  H   H5        1.0  0.24463  0.79758  0.76682  1.0000
  H   H6        1.0  0.30485  0.9212100000000001  0.76181  1.0000
  H   H7        1.0  0.08882  0.48624  0.62694  1.0000
  H   H8        1.0  0.03798  0.44793  0.50538  1.0000
  H   H9        1.0  0.7441599999999999  0.7028300000000002  0.23305999999999996  1.0000
  H   H10       1.0  0.80441  0.57943  0.23825  1.0000
  H   H11       1.0  0.58802  0.013500000000000002  0.37334  1.0000
  H   H12       1.0  0.53747  0.0524  0.49472  1.0000
  H   H13       1.0  0.7558799999999998  0.29685  0.73398  1.0000
  H   H14       1.0  0.69552  0.42034  0.73767  1.0000
  H   H15       1.0  0.9119699999999997  0.98636  0.87359  1.0000
  H   H16       1.0  0.96248  0.9473200000000002  0.9948499999999999  1.0000
  H   H17       1.0  0.7446  0.79718  0.73403  1.0000
  H   H18       1.0  0.80477  0.9209200000000001  0.73782  1.0000
  H   H19       1.0  0.5886999999999998  0.48621000000000003  0.87328  1.0000
  H   H20       1.0  0.53814  0.4476200000000001  0.99474  1.0000
  H   H21       1.0  0.75538  0.20242  0.23317999999999997  1.0000
  H   H22       1.0  0.6951599999999999  0.07878000000000003  0.23819000000000004  1.0000
  H   H23       1.0  0.9111899999999998  0.51376  0.37306  1.0000
  H   H24       1.0  0.9620299999999999  0.55206  0.49461999999999995  1.0000
  H   H25       1.0  0.25585  0.29717000000000005  0.76694  1.0000
  H   H26       1.0  0.1956  0.42057000000000005  0.76175  1.0000
  H   H27       1.0  0.41199  0.98649  0.62666  1.0000
  H   H28       1.0  0.46254  0.9476000000000001  0.50528  1.0000
  H   H29       1.0  0.24413  0.7031400000000001  0.26602  1.0000
  H   H30       1.0  0.30449  0.57966  0.26233  1.0000
  H   H31       1.0  0.08804  0.01363  0.12641  1.0000
  H   H32       1.0  0.03753  0.05268000000000001  0.00515  1.0000
  C   C1        1.0  0.11523  0.30654  0.25112  1.0000
  C   C2        1.0  0.10898  0.234  0.25115  1.0000
  C   C3        1.0  0.18194999999999995  0.18846000000000004  0.25926  1.0000
  C   C4        1.0  0.14994999999999997  0.12236  0.25777  1.0000
  C   C5        1.0  0.05262  0.11812  0.24871999999999997  1.0000
  C   C6        1.0  0.99289  0.05862000000000001  0.24426999999999996  1.0000
  C   C7        1.0  0.21591999999999995  0.47523000000000004  0.14542  1.0000
  C   C8        1.0  0.26939  0.4980000000000001  0.08698  1.0000
  C   C9        1.0  0.36441  0.5159000000000001  0.08384  1.0000
  C   C10       1.0  0.3914199999999999  0.53619  0.01943  1.0000
  C   C11       1.0  0.3169799999999999  0.5332  0.9740999999999999  1.0000
  C   C12       1.0  0.3202699999999999  0.5463  0.9018299999999999  1.0000
  C   C13       1.0  0.38475  0.69353  0.75352  1.0000
  C   C14       1.0  0.39091  0.76608  0.75207  1.0000
  C   C15       1.0  0.31805  0.8118  0.7598  1.0000
  C   C16       1.0  0.35009  0.8778500000000001  0.75756  1.0000
  C   C17       1.0  0.44737999999999994  0.88189  0.74826  1.0000
  C   C18       1.0  0.50712  0.9413400000000002  0.7438499999999999  1.0000
  C   C19       1.0  0.2840799999999999  0.52481  0.64585  1.0000
  C   C20       1.0  0.23076999999999995  0.50201  0.58719  1.0000
  C   C21       1.0  0.13566  0.48427000000000003  0.584  1.0000
  C   C22       1.0  0.10849999999999999  0.4641100000000001  0.51944  1.0000
  C   C23       1.0  0.18288  0.46683000000000013  0.4741  1.0000
  C   C24       1.0  0.18059  0.4525  0.40190000000000003  1.0000
  C   C25       1.0  0.8841899999999999  0.80732  0.24654999999999996  1.0000
  C   C26       1.0  0.8904  0.7347000000000001  0.24797  1.0000
  C   C27       1.0  0.81762  0.68884  0.24017999999999998  1.0000
  C   C28       1.0  0.8496999999999999  0.6228  0.24243000000000003  1.0000
  C   C29       1.0  0.9469799999999998  0.61872  0.25169  1.0000
  C   C30       1.0  0.007159999999999998  0.55935  0.25599  1.0000
  C   C31       1.0  0.7839599999999998  0.97606  0.35428  1.0000
  C   C32       1.0  0.7304499999999998  0.99889  0.41285999999999995  1.0000
  C   C33       1.0  0.63516  0.01612  0.4161  1.0000
  C   C34       1.0  0.60816  0.03678  0.48053  1.0000
  C   C35       1.0  0.68285  0.03509  0.52568  1.0000
  C   C36       1.0  0.68055  0.05004000000000001  0.59776  1.0000
  C   C37       1.0  0.61561  0.19262  0.7489799999999999  1.0000
  C   C38       1.0  0.6094099999999999  0.26525000000000004  0.7488  1.0000
  C   C39       1.0  0.68233  0.31092  0.74068  1.0000
  C   C40       1.0  0.65027  0.37701000000000007  0.7421399999999999  1.0000
  C   C41       1.0  0.55297  0.38128  0.75119  1.0000
  C   C42       1.0  0.49293  0.44073  0.75565  1.0000
  C   C43       1.0  0.71597  0.023500000000000007  0.8545999999999999  1.0000
  C   C44       1.0  0.7697  0.0009999999999999998  0.91311  1.0000
  C   C45       1.0  0.86492  0.9837100000000002  0.91637  1.0000
  C   C46       1.0  0.89189  0.96313  0.98069  1.0000
  C   C47       1.0  0.81725  0.96526  0.0259  1.0000
  C   C48       1.0  0.82022  0.9512000000000002  0.09804  1.0000
  C   C49       1.0  0.8847799999999998  0.6934500000000001  0.74888  1.0000
  C   C50       1.0  0.8910299999999998  0.7660000000000001  0.74886  1.0000
  C   C51       1.0  0.8180599999999998  0.8115400000000003  0.74074  1.0000
  C   C52       1.0  0.85006  0.87764  0.74223  1.0000
  C   C53       1.0  0.9473899999999997  0.88188  0.75128  1.0000
  C   C54       1.0  0.007119999999999998  0.94138  0.75573  1.0000
  C   C55       1.0  0.78409  0.5247700000000001  0.85458  1.0000
  C   C56       1.0  0.7306199999999998  0.5019900000000002  0.9130199999999999  1.0000
  C   C57       1.0  0.6355999999999999  0.4840900000000001  0.91616  1.0000
  C   C58       1.0  0.60859  0.46381000000000006  0.9805699999999999  1.0000
  C   C59       1.0  0.68303  0.46679000000000004  0.0259  1.0000
  C   C60       1.0  0.6797399999999998  0.4537000000000001  0.09817  1.0000
  C   C61       1.0  0.6152599999999999  0.30647  0.24648  1.0000
  C   C62       1.0  0.6091  0.23392  0.24793  1.0000
  C   C63       1.0  0.68196  0.18819  0.24019999999999997  1.0000
  C   C64       1.0  0.6499199999999999  0.12214000000000001  0.24244  1.0000
  C   C65       1.0  0.55263  0.11811  0.25174  1.0000
  C   C66       1.0  0.49288999999999994  0.058660000000000004  0.25615  1.0000
  C   C67       1.0  0.7159299999999997  0.47519  0.35415  1.0000
  C   C68       1.0  0.7692399999999998  0.4979900000000001  0.41281  1.0000
  C   C69       1.0  0.86435  0.51573  0.4159999999999999  1.0000
  C   C70       1.0  0.89151  0.53589  0.48056  1.0000
  C   C71       1.0  0.8171299999999998  0.5331700000000001  0.5259  1.0000
  C   C72       1.0  0.81942  0.5475  0.5981  1.0000
  C   C73       1.0  0.11582  0.19268  0.75345  1.0000
  C   C74       1.0  0.10960999999999997  0.2653  0.75203  1.0000
  C   C75       1.0  0.18239  0.31116000000000005  0.75982  1.0000
  C   C76       1.0  0.15031  0.3772  0.75757  1.0000
  C   C77       1.0  0.05303  0.38128  0.74831  1.0000
  C   C78       1.0  0.99285  0.44065  0.74401  1.0000
  C   C79       1.0  0.21605  0.02394  0.64572  1.0000
  C   C80       1.0  0.26956  0.0011  0.58714  1.0000
  C   C81       1.0  0.3648499999999999  0.98388  0.5839  1.0000
  C   C82       1.0  0.39185  0.96322  0.51947  1.0000
  C   C83       1.0  0.3171599999999999  0.9649100000000003  0.47432  1.0000
  C   C84       1.0  0.31946  0.94996  0.40224000000000004  1.0000
  C   C85       1.0  0.3844  0.8073700000000001  0.25102  1.0000
  C   C86       1.0  0.3906  0.7347500000000002  0.2512  1.0000
  C   C87       1.0  0.31768  0.6890700000000001  0.25932  1.0000
  C   C88       1.0  0.34973  0.6229900000000002  0.25786  1.0000
  C   C89       1.0  0.44702999999999987  0.61871  0.24882  1.0000
  C   C90       1.0  0.50708  0.5592700000000002  0.24435  1.0000
  C   C91       1.0  0.28404  0.97649  0.1454  1.0000
  C   C92       1.0  0.23031  0.9990000000000001  0.08689  1.0000
  C   C93       1.0  0.13509  0.016290000000000002  0.08363  1.0000
  C   C94       1.0  0.10812  0.03687  0.01931  1.0000
  C   C95       1.0  0.18276  0.03473  0.9740999999999999  1.0000
  C   C96       1.0  0.17979  0.04879  0.90196  1.0000
  S   S1        1.0  0.0008599999999999997  0.19515000000000002  0.24165  1.0000
  S   S2        1.0  0.21339  0.50636  0.01085  1.0000
  S   S3        1.0  0.499  0.80471  0.74168  1.0000
  S   S4        1.0  0.28664  0.4934300000000001  0.51102  1.0000
  S   S5        1.0  0.99851  0.69606  0.25835  1.0000
  S   S6        1.0  0.7866099999999998  0.00857  0.4888  1.0000
  S   S7        1.0  0.50129  0.30411  0.75828  1.0000
  S   S8        1.0  0.7136  0.99194  0.98914  1.0000
  S   S9        1.0  0.99915  0.80484  0.75835  1.0000
  S   S10       1.0  0.7866199999999998  0.49363000000000007  0.9891499999999999  1.0000
  S   S11       1.0  0.50101  0.19529000000000005  0.25832  1.0000
  S   S12       1.0  0.71337  0.50656  0.48898  1.0000
  S   S13       1.0  0.0015  0.30393  0.74165  1.0000
  S   S14       1.0  0.2134  0.9914300000000001  0.5112  1.0000
  S   S15       1.0  0.49872  0.69589  0.24171999999999996  1.0000
  S   S16       1.0  0.28641  0.00805  0.01086  1.0000
  O   O1        1.0  0.03864  0.34040000000000004  0.24281999999999998  1.0000
  O   O2        1.0  0.19581  0.33378000000000013  0.26001  1.0000
  O   O3        1.0  0.9053399999999998  0.06472  0.2322  1.0000
  O   O4        1.0  0.03301  0.0016900000000000003  0.2524  1.0000
  O   O5        1.0  0.26216  0.4681100000000001  0.20121  1.0000
  O   O6        1.0  0.12807  0.4644600000000001  0.14138  1.0000
  O   O7        1.0  0.40134  0.55583  0.87552  1.0000
  O   O8        1.0  0.24239  0.54574  0.86881  1.0000
  O   O9        1.0  0.46112  0.6596000000000002  0.7444  1.0000
  O   O10       1.0  0.30455  0.66639  0.76427  1.0000
  O   O11       1.0  0.5943399999999999  0.93536  0.73057  1.0000
  O   O12       1.0  0.46723  0.99817  0.75365  1.0000
  O   O13       1.0  0.23723  0.53216  0.70127  1.0000
  O   O14       1.0  0.37205  0.5354600000000002  0.64257  1.0000
  O   O15       1.0  0.09987999999999997  0.44429000000000013  0.37443  1.0000
  O   O16       1.0  0.2595  0.45065  0.37023  1.0000
  O   O17       1.0  0.9603699999999997  0.8414800000000002  0.25568  1.0000
  O   O18       1.0  0.80406  0.83454  0.23581999999999997  1.0000
  O   O19       1.0  0.09428  0.5658900000000001  0.26911  1.0000
  O   O20       1.0  0.96778  0.50213  0.24629999999999996  1.0000
  O   O21       1.0  0.73712  0.96876  0.29881  1.0000
  O   O22       1.0  0.87182  0.96538  0.35771  1.0000
  O   O23       1.0  0.60007  0.06026000000000001  0.62484  1.0000
  O   O24       1.0  0.7592599999999998  0.050370000000000005  0.62979  1.0000
  O   O25       1.0  0.53918  0.15856000000000003  0.75728  1.0000
  O   O26       1.0  0.6961299999999998  0.16527  0.74021  1.0000
  O   O27       1.0  0.40548  0.43412  0.76758  1.0000
  O   O28       1.0  0.53268  0.49798000000000003  0.74763  1.0000
  O   O29       1.0  0.76221  0.030540000000000005  0.79877  1.0000
  O   O30       1.0  0.62818  0.03409000000000001  0.85869  1.0000
  O   O31       1.0  0.90075  0.9396100000000002  0.12429999999999998  1.0000
  O   O32       1.0  0.74239  0.95297  0.13111  1.0000
  O   O33       1.0  0.96137  0.6596000000000002  0.75718  1.0000
  O   O34       1.0  0.8042  0.6662200000000001  0.73999  1.0000
  O   O35       1.0  0.09466999999999999  0.93527  0.7678  1.0000
  O   O36       1.0  0.9669999999999997  0.9983100000000003  0.7476  1.0000
  O   O37       1.0  0.73785  0.53189  0.79879  1.0000
  O   O38       1.0  0.8719399999999999  0.53554  0.8586199999999999  1.0000
  O   O39       1.0  0.5986699999999999  0.44417  0.12448  1.0000
  O   O40       1.0  0.75762  0.45425000000000004  0.13119  1.0000
  O   O41       1.0  0.53889  0.34040000000000004  0.2556  1.0000
  O   O42       1.0  0.69546  0.33360000000000006  0.23572999999999997  1.0000
  O   O43       1.0  0.40567  0.06464  0.26943  1.0000
  O   O44       1.0  0.53278  0.00182  0.24635  1.0000
  O   O45       1.0  0.76278  0.46784  0.29873  1.0000
  O   O46       1.0  0.62796  0.46454000000000006  0.35743  1.0000
  O   O47       1.0  0.90013  0.5557100000000001  0.62557  1.0000
  O   O48       1.0  0.74051  0.54934  0.62977  1.0000
  O   O49       1.0  0.03964  0.15851000000000004  0.74432  1.0000
  O   O50       1.0  0.19595  0.16545000000000004  0.76418  1.0000
  O   O51       1.0  0.9057299999999998  0.43411  0.73089  1.0000
  O   O52       1.0  0.03223  0.49787  0.7537  1.0000
  O   O53       1.0  0.26289  0.031240000000000004  0.70119  1.0000
  O   O54       1.0  0.12819  0.03462  0.6423  1.0000
  O   O55       1.0  0.39994  0.9397300000000001  0.37516  1.0000
  O   O56       1.0  0.24074999999999994  0.94963  0.37021  1.0000
  O   O57       1.0  0.46083  0.8414400000000001  0.24272  1.0000
  O   O58       1.0  0.3038799999999999  0.8347300000000001  0.25979  1.0000
  O   O59       1.0  0.5945299999999999  0.56588  0.23242000000000002  1.0000
  O   O60       1.0  0.46733  0.50202  0.25237  1.0000
  O   O61       1.0  0.2378  0.9694600000000002  0.20122999999999996  1.0000
  O   O62       1.0  0.37183  0.9659100000000003  0.14132  1.0000
  O   O63       1.0  0.09926  0.06039  0.8756999999999999  1.0000
  O   O64       1.0  0.25762  0.04702  0.86889  1.0000
