data_image0
_chemical_formula_structural       Zn12P16H60C56N8O56
_chemical_formula_sum              "Zn12 P16 H60 C56 N8 O56"
_cell_length_a       9.23038
_cell_length_b       9.692
_cell_length_c       31.01347
_cell_angle_alpha    93.11892000000002
_cell_angle_beta     90.0
_cell_angle_gamma    90.0

_symmetry_space_group_name_H-M    'P 1'
_symmetry_Int_Tables_number       1

loop_
  _symmetry_equiv_pos_as_xyz
  'x,y,z'

loop_
  _atom_site_type_symbol
  _atom_site_label
  _atom_site_symmetry_multiplicity
  _atom_site_fract_x
  _atom_site_fract_y
  _atom_site_fract_z
  _atom_site_occupancy
  Zn  Zn1       1.0  0.72647  0.47557000000000005  0.86044  1.0000
  Zn  Zn2       1.0  0.44884  0.29411  0.96001  1.0000
  Zn  Zn3       1.0  0.68543  0.55865  0.68969  1.0000
  Zn  Zn4       1.0  0.22647  0.52442  0.63956  1.0000
  Zn  Zn5       1.0  0.94883  0.70588  0.53999  1.0000
  Zn  Zn6       1.0  0.18543  0.44133999999999995  0.81031  1.0000
  Zn  Zn7       1.0  0.27354  0.52444  0.13956  1.0000
  Zn  Zn8       1.0  0.55115  0.70588  0.03999  1.0000
  Zn  Zn9       1.0  0.31459  0.44133  0.31030999999999986  1.0000
  Zn  Zn10      1.0  0.77354  0.4755599999999999  0.36045  1.0000
  Zn  Zn11      1.0  0.05115  0.29412  0.46000999999999986  1.0000
  Zn  Zn12      1.0  0.81459  0.55867  0.18969  1.0000
  P   P1        1.0  0.8780399999999999  0.54121  0.77713  1.0000
  P   P2        1.0  0.9267399999999999  0.25098  0.81756  1.0000
  P   P3        1.0  0.62988  0.58566  0.9499599999999998  1.0000
  P   P4        1.0  0.38726999999999995  0.47862  0.8878  1.0000
  P   P5        1.0  0.37804  0.45877999999999997  0.7228799999999997  1.0000
  P   P6        1.0  0.42674  0.74901  0.68244  1.0000
  P   P7        1.0  0.12989  0.41433000000000003  0.55005  1.0000
  P   P8        1.0  0.8872699999999999  0.5213699999999999  0.6122099999999998  1.0000
  P   P9        1.0  0.12196  0.45879000000000003  0.22286999999999996  1.0000
  P   P10       1.0  0.07326  0.74904  0.18243  1.0000
  P   P11       1.0  0.37012  0.41432  0.05004999999999998  1.0000
  P   P12       1.0  0.61273  0.52137  0.11220999999999998  1.0000
  P   P13       1.0  0.62195  0.54121  0.27713  1.0000
  P   P14       1.0  0.57326  0.25096  0.3175699999999999  1.0000
  P   P15       1.0  0.87012  0.58568  0.44996  1.0000
  P   P16       1.0  0.11273999999999999  0.47863  0.38778999999999997  1.0000
  H   H1        1.0  0.64804  0.35540999999999995  0.7475199999999997  1.0000
  H   H2        1.0  0.34462  0.60646  0.9777999999999998  1.0000
  H   H3        1.0  0.22393999999999997  0.9301  0.6974499999999998  1.0000
  H   H4        1.0  0.87322  0.3526  0.7011  1.0000
  H   H5        1.0  0.04134  0.3573  0.7274399999999999  1.0000
  H   H6        1.0  0.72697  0.11212999999999997  0.7035899999999998  1.0000
  H   H7        1.0  0.7701599999999998  0.8646  0.6811999999999999  1.0000
  H   H8        1.0  0.02861  0.77554  0.67938  1.0000
  H   H9        1.0  0.18868  0.16046999999999997  0.72156  1.0000
  H   H10       1.0  0.52086  0.7149599999999999  0.86335  1.0000
  H   H11       1.0  0.3573  0.78494  0.8840599999999997  1.0000
  H   H12       1.0  0.75346  0.81597  0.87949  1.0000
  H   H13       1.0  0.8800599999999998  0.04079999999999996  0.8977099999999998  1.0000
  H   H14       1.0  0.74148  0.23264999999999997  0.9355499999999998  1.0000
  H   H15       1.0  0.36796  0.99256  0.9381999999999998  1.0000
  H   H16       1.0  0.14804  0.64458  0.7524799999999998  1.0000
  H   H17       1.0  0.84462  0.39352999999999994  0.5221999999999998  1.0000
  H   H18       1.0  0.7239399999999999  0.06988999999999997  0.8025499999999998  1.0000
  H   H19       1.0  0.37322  0.64739  0.7989  1.0000
  H   H20       1.0  0.54134  0.6426899999999999  0.7725699999999998  1.0000
  H   H21       1.0  0.22697  0.8878600000000001  0.7964199999999998  1.0000
  H   H22       1.0  0.27016  0.13538999999999995  0.8187999999999998  1.0000
  H   H23       1.0  0.52861  0.22445  0.82062  1.0000
  H   H24       1.0  0.68868  0.83952  0.7784499999999998  1.0000
  H   H25       1.0  0.02087  0.28503  0.63665  1.0000
  H   H26       1.0  0.8573  0.21505  0.6159399999999998  1.0000
  H   H27       1.0  0.25346  0.18402000000000002  0.62052  1.0000
  H   H28       1.0  0.38007  0.9591900000000001  0.60229  1.0000
  H   H29       1.0  0.24148999999999998  0.76734  0.5644499999999998  1.0000
  H   H30       1.0  0.8679500000000001  0.007429999999999963  0.5617999999999997  1.0000
  H   H31       1.0  0.35196  0.64459  0.25248  1.0000
  H   H32       1.0  0.65535  0.39352  0.0222  1.0000
  H   H33       1.0  0.77605  0.06989999999999998  0.3025499999999999  1.0000
  H   H34       1.0  0.12679  0.64739  0.2989  1.0000
  H   H35       1.0  0.95866  0.64269  0.27256  1.0000
  H   H36       1.0  0.27303  0.8878700000000002  0.29642  1.0000
  H   H37       1.0  0.22984  0.1354  0.3188  1.0000
  H   H38       1.0  0.9713899999999999  0.22446999999999998  0.3206199999999999  1.0000
  H   H39       1.0  0.8113  0.8395499999999999  0.27845  1.0000
  H   H40       1.0  0.47914  0.28503  0.13665999999999995  1.0000
  H   H41       1.0  0.6427  0.21505  0.11593999999999997  1.0000
  H   H42       1.0  0.24654  0.18403  0.12051999999999997  1.0000
  H   H43       1.0  0.11992999999999998  0.9592000000000002  0.10229  1.0000
  H   H44       1.0  0.25849  0.76734  0.06444999999999998  1.0000
  H   H45       1.0  0.63203  0.007419999999999997  0.06179999999999999  1.0000
  H   H46       1.0  0.85196  0.35540999999999995  0.24751999999999993  1.0000
  H   H47       1.0  0.15535  0.60648  0.4777999999999999  1.0000
  H   H48       1.0  0.27606  0.93009  0.19744999999999993  1.0000
  H   H49       1.0  0.6267899999999998  0.35261  0.2011  1.0000
  H   H50       1.0  0.45867  0.35730999999999996  0.22743999999999995  1.0000
  H   H51       1.0  0.77303  0.11212  0.20357999999999996  1.0000
  H   H52       1.0  0.72984  0.8646  0.18119999999999994  1.0000
  H   H53       1.0  0.47139  0.77552  0.17938  1.0000
  H   H54       1.0  0.31131  0.16045  0.22154999999999994  1.0000
  H   H55       1.0  0.9791399999999999  0.71497  0.3633399999999999  1.0000
  H   H56       1.0  0.1427  0.7849500000000003  0.38406  1.0000
  H   H57       1.0  0.74654  0.81597  0.3794799999999999  1.0000
  H   H58       1.0  0.61992  0.04080000000000002  0.39771  1.0000
  H   H59       1.0  0.75849  0.23265000000000002  0.43555  1.0000
  H   H60       1.0  0.13203  0.9925700000000001  0.43819999999999987  1.0000
  C   C1        1.0  0.85608  0.34624000000000005  0.7703  1.0000
  C   C2        1.0  0.93466  0.30719  0.7271799999999998  1.0000
  C   C3        1.0  0.9534099999999999  0.15634999999999993  0.7154499999999998  1.0000
  C   C4        1.0  0.83661  0.07034  0.7032099999999998  1.0000
  C   C5        1.0  0.86058  0.9322900000000001  0.69026  1.0000
  C   C6        1.0  0.00155  0.88173  0.68912  1.0000
  C   C7        1.0  0.09208  0.10002  0.71353  1.0000
  C   C8        1.0  0.4510199999999999  0.63754  0.9234999999999998  1.0000
  C   C9        1.0  0.46816  0.7567399999999999  0.8929799999999998  1.0000
  C   C10       1.0  0.55094  0.88534  0.9079999999999998  1.0000
  C   C11       1.0  0.69709  0.90075  0.8967999999999998  1.0000
  C   C12       1.0  0.76816  0.02481999999999996  0.9071499999999998  1.0000
  C   C13       1.0  0.69181  0.13246999999999995  0.9280099999999998  1.0000
  C   C14       1.0  0.48182  0.9978699999999999  0.9292599999999998  1.0000
  C   C15       1.0  0.35608  0.65375  0.7297  1.0000
  C   C16       1.0  0.43466  0.6927999999999999  0.7728199999999997  1.0000
  C   C17       1.0  0.45341  0.84364  0.7845499999999997  1.0000
  C   C18       1.0  0.33662  0.92965  0.7967999999999997  1.0000
  C   C19       1.0  0.36058  0.06770000000000002  0.80974  1.0000
  C   C20       1.0  0.50155  0.11825000000000001  0.81088  1.0000
  C   C21       1.0  0.59208  0.89996  0.7864799999999997  1.0000
  C   C22       1.0  0.9510099999999999  0.36244  0.57651  1.0000
  C   C23       1.0  0.9681600000000001  0.24324999999999994  0.6070199999999998  1.0000
  C   C24       1.0  0.05094  0.11464999999999995  0.5919999999999997  1.0000
  C   C25       1.0  0.19709  0.09923999999999995  0.6031999999999997  1.0000
  C   C26       1.0  0.26816  0.9751699999999996  0.5928499999999998  1.0000
  C   C27       1.0  0.19182  0.86752  0.572  1.0000
  C   C28       1.0  0.98182  0.0021199999999999618  0.5707499999999998  1.0000
  C   C29       1.0  0.14392  0.65376  0.2297  1.0000
  C   C30       1.0  0.06534  0.69281  0.27281999999999995  1.0000
  C   C31       1.0  0.04658  0.84364  0.2845499999999999  1.0000
  C   C32       1.0  0.16338  0.92966  0.2968  1.0000
  C   C33       1.0  0.13940999999999998  0.06770999999999998  0.3097399999999999  1.0000
  C   C34       1.0  0.99845  0.11827  0.3108799999999999  1.0000
  C   C35       1.0  0.9079100000000001  0.89998  0.2864799999999999  1.0000
  C   C36       1.0  0.54898  0.36245  0.07650999999999997  1.0000
  C   C37       1.0  0.53184  0.24325  0.10701999999999998  1.0000
  C   C38       1.0  0.44905  0.11464999999999999  0.09201  1.0000
  C   C39       1.0  0.30291  0.09924  0.10321  1.0000
  C   C40       1.0  0.23183  0.9751700000000002  0.09286  1.0000
  C   C41       1.0  0.30817  0.86752  0.07199999999999997  1.0000
  C   C42       1.0  0.51817  0.0021099999999999947  0.07074999999999997  1.0000
  C   C43       1.0  0.64391  0.34624000000000005  0.2702999999999999  1.0000
  C   C44       1.0  0.56534  0.30719  0.22717999999999994  1.0000
  C   C45       1.0  0.54658  0.15635  0.21545  1.0000
  C   C46       1.0  0.66338  0.07033  0.20319999999999994  1.0000
  C   C47       1.0  0.63941  0.93228  0.19026  1.0000
  C   C48       1.0  0.49845  0.88173  0.18912  1.0000
  C   C49       1.0  0.40792  0.10001999999999998  0.21351999999999993  1.0000
  C   C50       1.0  0.04898  0.63755  0.42348999999999987  1.0000
  C   C51       1.0  0.03184  0.75675  0.39298  1.0000
  C   C52       1.0  0.9490499999999998  0.8853500000000001  0.4079999999999999  1.0000
  C   C53       1.0  0.8029  0.9007600000000001  0.3967999999999999  1.0000
  C   C54       1.0  0.73183  0.024819999999999974  0.4071399999999999  1.0000
  C   C55       1.0  0.8081699999999999  0.13247999999999996  0.4279999999999999  1.0000
  C   C56       1.0  0.01817  0.99788  0.4292499999999999  1.0000
  N   N1        1.0  0.11259  0.9665400000000001  0.7005199999999998  1.0000
  N   N2        1.0  0.55054  0.11942999999999998  0.9388699999999998  1.0000
  N   N3        1.0  0.61259  0.033449999999999966  0.7994799999999997  1.0000
  N   N4        1.0  0.05055  0.8805600000000001  0.5611299999999998  1.0000
  N   N5        1.0  0.88741  0.03345999999999997  0.2994799999999999  1.0000
  N   N6        1.0  0.44944  0.8805600000000001  0.06112999999999998  1.0000
  N   N7        1.0  0.38741  0.96653  0.20051999999999995  1.0000
  N   N8        1.0  0.94944  0.11944  0.43887  1.0000
  O   O1        1.0  0.77855  0.59616  0.81398  1.0000
  O   O2        1.0  0.83519  0.5982999999999999  0.7337899999999998  1.0000
  O   O3        1.0  0.04201  0.56938  0.7858899999999999  1.0000
  O   O4        1.0  0.85664  0.31919999999999993  0.8586599999999998  1.0000
  O   O5        1.0  0.09349  0.26666  0.81794  1.0000
  O   O6        1.0  0.8844  0.10012999999999997  0.8093499999999998  1.0000
  O   O7        1.0  0.70701  0.31228999999999996  0.7706099999999998  1.0000
  O   O8        1.0  0.74363  0.59067  0.9143799999999997  1.0000
  O   O9        1.0  0.60793  0.4410599999999999  0.9679299999999997  1.0000
  O   O10       1.0  0.65217  0.70129  0.9851099999999998  1.0000
  O   O11       1.0  0.27128  0.54213  0.8594399999999998  1.0000
  O   O12       1.0  0.52009  0.42375  0.8624899999999998  1.0000
  O   O13       1.0  0.32213  0.37544  0.9181799999999998  1.0000
  O   O14       1.0  0.3479  0.67425  0.95473  1.0000
  O   O15       1.0  0.27855  0.40383000000000013  0.68602  1.0000
  O   O16       1.0  0.33519  0.40169  0.7662099999999997  1.0000
  O   O17       1.0  0.54201  0.43060999999999994  0.7141099999999998  1.0000
  O   O18       1.0  0.35664  0.6807899999999999  0.6413399999999998  1.0000
  O   O19       1.0  0.59349  0.73333  0.68206  1.0000
  O   O20       1.0  0.3844  0.89986  0.6906499999999998  1.0000
  O   O21       1.0  0.20700999999999997  0.6877  0.7293999999999998  1.0000
  O   O22       1.0  0.24363  0.40932  0.58562  1.0000
  O   O23       1.0  0.10793  0.5589299999999999  0.5320699999999998  1.0000
  O   O24       1.0  0.15217  0.2987000000000001  0.51489  1.0000
  O   O25       1.0  0.77128  0.45785  0.64056  1.0000
  O   O26       1.0  0.02009  0.57624  0.6375099999999998  1.0000
  O   O27       1.0  0.82212  0.62455  0.5818199999999998  1.0000
  O   O28       1.0  0.8479  0.3257399999999999  0.5452799999999998  1.0000
  O   O29       1.0  0.22146  0.40385  0.18602  1.0000
  O   O30       1.0  0.16481  0.4017  0.26621  1.0000
  O   O31       1.0  0.95799  0.43060999999999994  0.21410999999999994  1.0000
  O   O32       1.0  0.14336  0.68081  0.14133  1.0000
  O   O33       1.0  0.9065099999999999  0.73337  0.18206  1.0000
  O   O34       1.0  0.1156  0.8998900000000001  0.19064999999999993  1.0000
  O   O35       1.0  0.29299  0.6877  0.22938999999999998  1.0000
  O   O36       1.0  0.25636  0.40932  0.08561999999999997  1.0000
  O   O37       1.0  0.39207  0.55891  0.03207  1.0000
  O   O38       1.0  0.34782  0.29869  0.01489  1.0000
  O   O39       1.0  0.72873  0.45786  0.14055999999999993  1.0000
  O   O40       1.0  0.47992999999999997  0.57624  0.13752999999999996  1.0000
  O   O41       1.0  0.67787  0.62455  0.08181999999999998  1.0000
  O   O42       1.0  0.6521  0.32574  0.04528  1.0000
  O   O43       1.0  0.72145  0.59614  0.31397999999999987  1.0000
  O   O44       1.0  0.66481  0.5983  0.23378999999999994  1.0000
  O   O45       1.0  0.45799  0.56939  0.28589  1.0000
  O   O46       1.0  0.64336  0.3191899999999999  0.3586699999999999  1.0000
  O   O47       1.0  0.40651  0.26663  0.31794  1.0000
  O   O48       1.0  0.6156  0.10010999999999998  0.3093499999999999  1.0000
  O   O49       1.0  0.79299  0.3123  0.27061  1.0000
  O   O50       1.0  0.75636  0.59067  0.41439  1.0000
  O   O51       1.0  0.8920699999999999  0.4410899999999999  0.4679299999999999  1.0000
  O   O52       1.0  0.84781  0.70131  0.4851099999999999  1.0000
  O   O53       1.0  0.22873  0.54214  0.35944  1.0000
  O   O54       1.0  0.9799299999999999  0.4237600000000001  0.3624799999999999  1.0000
  O   O55       1.0  0.17787  0.37544999999999995  0.4181799999999999  1.0000
  O   O56       1.0  0.1521  0.67425  0.45472  1.0000
