data_image0
_chemical_formula_structural       La4Cu6H60C48N12O48
_chemical_formula_sum              "La4 Cu6 H60 C48 N12 O48"
_cell_length_a       13.44131
_cell_length_b       13.44135
_cell_length_c       15.07976
_cell_angle_alpha    89.99079999999998
_cell_angle_beta     90.00901
_cell_angle_gamma    120.15684

_symmetry_space_group_name_H-M    'P 1'
_symmetry_Int_Tables_number       1

loop_
  _symmetry_equiv_pos_as_xyz
  'x,y,z'

loop_
  _atom_site_type_symbol
  _atom_site_label
  _atom_site_symmetry_multiplicity
  _atom_site_fract_x
  _atom_site_fract_y
  _atom_site_fract_z
  _atom_site_occupancy
  La  La1       1.0  0.66666  0.3336  0.32995  1.0000
  La  La2       1.0  0.3336  0.66667  0.17005  1.0000
  La  La3       1.0  0.33334  0.6664  0.67005  1.0000
  La  La4       1.0  0.6664  0.33333  0.82995  1.0000
  Cu  Cu1       1.0  0.5  0.5  0.5  1.0000
  Cu  Cu2       1.0  0.5000000000000001  0.9999900000000002  0.5  1.0000
  Cu  Cu3       1.0  0.0  0.5  0.5  1.0000
  Cu  Cu4       1.0  0.5  0.5  0.0  1.0000
  Cu  Cu5       1.0  0.0  0.5  0.0  1.0000
  Cu  Cu6       1.0  0.5  0.0  0.0  1.0000
  H   H1        1.0  0.641  0.67935  0.58045  1.0000
  H   H2        1.0  0.8315199999999998  0.6944199999999999  0.52491  1.0000
  H   H3        1.0  0.7400900000000001  0.7131300000000002  0.44936  1.0000
  H   H4        1.0  0.68352  0.60549  0.69834  1.0000
  H   H5        1.0  0.73928  0.53952  0.62986  1.0000
  H   H6        1.0  0.32084  0.96094  0.58035  1.0000
  H   H7        1.0  0.30618  0.13678  0.52516  1.0000
  H   H8        1.0  0.28687  0.026470000000000004  0.44948  1.0000
  H   H9        1.0  0.39449  0.07767  0.69815  1.0000
  H   H10       1.0  0.46119  0.19979  0.62965  1.0000
  H   H11       1.0  0.03837999999999995  0.35967999999999994  0.58049  1.0000
  H   H12       1.0  0.86228  0.16886  0.52499  1.0000
  H   H13       1.0  0.97288  0.26054  0.44954  1.0000
  H   H14       1.0  0.9219099999999999  0.31668  0.6984100000000002  1.0000
  H   H15       1.0  0.79977  0.26062  0.63006  1.0000
  H   H16       1.0  0.67935  0.64099  0.91955  1.0000
  H   H17       1.0  0.69442  0.83151  0.97509  1.0000
  H   H18       1.0  0.71313  0.7400899999999999  0.05064  1.0000
  H   H19       1.0  0.6054899999999999  0.68352  0.80166  1.0000
  H   H20       1.0  0.5395200000000001  0.7392800000000002  0.87014  1.0000
  H   H21       1.0  0.96094  0.32084  0.91964  1.0000
  H   H22       1.0  0.13677999999999996  0.30618  0.97484  1.0000
  H   H23       1.0  0.02647999999999999  0.28687  0.05052000000000001  1.0000
  H   H24       1.0  0.07767  0.39449  0.80185  1.0000
  H   H25       1.0  0.19979000000000002  0.46119000000000004  0.87035  1.0000
  H   H26       1.0  0.35968  0.03837  0.91951  1.0000
  H   H27       1.0  0.16885999999999995  0.8622799999999999  0.97501  1.0000
  H   H28       1.0  0.26055  0.97288  0.05046  1.0000
  H   H29       1.0  0.31668  0.92191  0.80159  1.0000
  H   H30       1.0  0.26061999999999996  0.7997700000000001  0.8699400000000003  1.0000
  H   H31       1.0  0.359  0.32065  0.41955  1.0000
  H   H32       1.0  0.16848  0.30558  0.47509  1.0000
  H   H33       1.0  0.25991  0.28687  0.55063  1.0000
  H   H34       1.0  0.3164800000000001  0.3945100000000001  0.30166  1.0000
  H   H35       1.0  0.26072  0.46048  0.37014  1.0000
  H   H36       1.0  0.67916  0.03905  0.41965000000000013  1.0000
  H   H37       1.0  0.69382  0.86322  0.47484  1.0000
  H   H38       1.0  0.71313  0.97353  0.55052  1.0000
  H   H39       1.0  0.60551  0.92233  0.30185  1.0000
  H   H40       1.0  0.53881  0.80021  0.37035  1.0000
  H   H41       1.0  0.96162  0.64032  0.41951  1.0000
  H   H42       1.0  0.13772000000000006  0.83114  0.47501  1.0000
  H   H43       1.0  0.02712000000000003  0.7394600000000001  0.5504600000000002  1.0000
  H   H44       1.0  0.07808999999999996  0.68332  0.30159  1.0000
  H   H45       1.0  0.20023000000000005  0.73938  0.36994  1.0000
  H   H46       1.0  0.32065  0.35901  0.08045000000000001  1.0000
  H   H47       1.0  0.30558  0.16849  0.02491  1.0000
  H   H48       1.0  0.28687  0.25991  0.94936  1.0000
  H   H49       1.0  0.39451  0.31648  0.19834  1.0000
  H   H50       1.0  0.46047999999999994  0.26072  0.12986  1.0000
  H   H51       1.0  0.039060000000000004  0.67916  0.08035  1.0000
  H   H52       1.0  0.86322  0.69382  0.02516  1.0000
  H   H53       1.0  0.97353  0.7131300000000002  0.94948  1.0000
  H   H54       1.0  0.92233  0.60551  0.19815000000000002  1.0000
  H   H55       1.0  0.80021  0.53881  0.12965  1.0000
  H   H56       1.0  0.64033  0.96163  0.08049  1.0000
  H   H57       1.0  0.83114  0.13772  0.02499  1.0000
  H   H58       1.0  0.73945  0.02712  0.94954  1.0000
  H   H59       1.0  0.68332  0.07809  0.19841  1.0000
  H   H60       1.0  0.73938  0.20023  0.13006  1.0000
  C   C1        1.0  0.73373  0.55323  0.43517  1.0000
  C   C2        1.0  0.74578  0.65148  0.4939600000000001  1.0000
  C   C3        1.0  0.66557  0.55295  0.63821  1.0000
  C   C4        1.0  0.55968  0.43544  0.65568  1.0000
  C   C5        1.0  0.44696  0.1805  0.43507  1.0000
  C   C6        1.0  0.34879000000000004  0.09399  0.49400000000000005  1.0000
  C   C7        1.0  0.44728  0.11241  0.63813  1.0000
  C   C8        1.0  0.56452  0.1241  0.65578  1.0000
  C   C9        1.0  0.81911  0.26634  0.43498  1.0000
  C   C10       1.0  0.90531  0.25458  0.49400000000000005  1.0000
  C   C11       1.0  0.88717  0.33453  0.63836  1.0000
  C   C12       1.0  0.87578  0.44026  0.6557900000000002  1.0000
  C   C13       1.0  0.5532299999999999  0.7337299999999999  0.06483  1.0000
  C   C14       1.0  0.6514799999999998  0.7457799999999999  0.00604  1.0000
  C   C15       1.0  0.55295  0.66556  0.86178  1.0000
  C   C16       1.0  0.43544  0.55967  0.8443400000000001  1.0000
  C   C17       1.0  0.18050000000000002  0.44697000000000003  0.06493  1.0000
  C   C18       1.0  0.09399  0.34879000000000004  0.006  1.0000
  C   C19       1.0  0.11241000000000002  0.44728  0.8618700000000002  1.0000
  C   C20       1.0  0.12408999999999998  0.56451  0.84424  1.0000
  C   C21       1.0  0.26634999999999986  0.81912  0.06502  1.0000
  C   C22       1.0  0.25458  0.90531  0.00599  1.0000
  C   C23       1.0  0.33453  0.88717  0.86164  1.0000
  C   C24       1.0  0.44027  0.8758  0.84423  1.0000
  C   C25       1.0  0.26627  0.44677  0.56483  1.0000
  C   C26       1.0  0.25422000000000006  0.34852000000000005  0.50604  1.0000
  C   C27       1.0  0.33443  0.44705  0.36178  1.0000
  C   C28       1.0  0.44032  0.56456  0.34432  1.0000
  C   C29       1.0  0.55304  0.8194999999999999  0.56493  1.0000
  C   C30       1.0  0.65122  0.90601  0.506  1.0000
  C   C31       1.0  0.55272  0.88759  0.36187  1.0000
  C   C32       1.0  0.43548000000000003  0.8759000000000001  0.34422  1.0000
  C   C33       1.0  0.18088999999999994  0.73366  0.56502  1.0000
  C   C34       1.0  0.09469999999999999  0.7454200000000001  0.50599  1.0000
  C   C35       1.0  0.11282999999999993  0.66547  0.36164  1.0000
  C   C36       1.0  0.12421999999999997  0.55974  0.34421  1.0000
  C   C37       1.0  0.44677000000000006  0.26627  0.9351700000000002  1.0000
  C   C38       1.0  0.34852  0.25422  0.99395  1.0000
  C   C39       1.0  0.44705  0.33444  0.13822  1.0000
  C   C40       1.0  0.56456  0.44033000000000005  0.15566  1.0000
  C   C41       1.0  0.8195  0.55303  0.93507  1.0000
  C   C42       1.0  0.90601  0.65121  0.994  1.0000
  C   C43       1.0  0.88759  0.55272  0.13813000000000003  1.0000
  C   C44       1.0  0.8759099999999999  0.43548  0.15576  1.0000
  C   C45       1.0  0.73365  0.18088  0.93498  1.0000
  C   C46       1.0  0.74542  0.09469  0.994  1.0000
  C   C47       1.0  0.66547  0.11283  0.13836  1.0000
  C   C48       1.0  0.55973  0.12419999999999999  0.15577  1.0000
  N   N1        1.0  0.6524799999999998  0.61209  0.55993  1.0000
  N   N2        1.0  0.38814  0.04005  0.55982  1.0000
  N   N3        1.0  0.95941  0.34786  0.56001  1.0000
  N   N4        1.0  0.61209  0.65247  0.94007  1.0000
  N   N5        1.0  0.04005000000000001  0.38814  0.94018  1.0000
  N   N6        1.0  0.34786999999999996  0.9594  0.93999  1.0000
  N   N7        1.0  0.34752  0.3879  0.44007  1.0000
  N   N8        1.0  0.61186  0.9599500000000001  0.44018000000000007  1.0000
  N   N9        1.0  0.04059  0.65214  0.43999  1.0000
  N   N10       1.0  0.38791  0.34753  0.05993  1.0000
  N   N11       1.0  0.9599499999999999  0.61186  0.05982  1.0000
  N   N12       1.0  0.65214  0.04059  0.06001  1.0000
  O   O1        1.0  0.6401  0.45641  0.4420100000000001  1.0000
  O   O2        1.0  0.81327  0.57087  0.38143  1.0000
  O   O3        1.0  0.47518  0.39583  0.60164  1.0000
  O   O4        1.0  0.56027  0.38053  0.72358  1.0000
  O   O5        1.0  0.5438  0.18424  0.4420100000000001  1.0000
  O   O6        1.0  0.42916000000000004  0.24205000000000002  0.38108  1.0000
  O   O7        1.0  0.60404  0.0793  0.6018  1.0000
  O   O8        1.0  0.61942  0.17972000000000002  0.72377  1.0000
  O   O9        1.0  0.81571  0.3596  0.44204  1.0000
  O   O10       1.0  0.75759  0.18702  0.38079  1.0000
  O   O11       1.0  0.92092  0.52474  0.60176  1.0000
  O   O12       1.0  0.82017  0.43964  0.72368  1.0000
  O   O13       1.0  0.45641  0.6401  0.05799  1.0000
  O   O14       1.0  0.57087  0.8132700000000002  0.11857  1.0000
  O   O15       1.0  0.39584  0.47519  0.89836  1.0000
  O   O16       1.0  0.38052  0.56027  0.7764  1.0000
  O   O17       1.0  0.18424999999999997  0.5438  0.05799  1.0000
  O   O18       1.0  0.24205  0.42916  0.11892  1.0000
  O   O19       1.0  0.07931000000000007  0.60404  0.89819  1.0000
  O   O20       1.0  0.17973000000000008  0.61943  0.77622  1.0000
  O   O21       1.0  0.35960000000000003  0.8157100000000002  0.05796  1.0000
  O   O22       1.0  0.18701999999999988  0.7575899999999999  0.11921  1.0000
  O   O23       1.0  0.5247300000000001  0.9209100000000001  0.89824  1.0000
  O   O24       1.0  0.4396399999999999  0.82016  0.77631  1.0000
  O   O25       1.0  0.35989999999999994  0.54359  0.55799  1.0000
  O   O26       1.0  0.18674  0.42913  0.61857  1.0000
  O   O27       1.0  0.5248199999999998  0.60417  0.3983600000000001  1.0000
  O   O28       1.0  0.43973  0.61947  0.27642  1.0000
  O   O29       1.0  0.4562  0.81575  0.55799  1.0000
  O   O30       1.0  0.57084  0.75795  0.61892  1.0000
  O   O31       1.0  0.39596  0.9207  0.3982  1.0000
  O   O32       1.0  0.38058  0.82028  0.27623  1.0000
  O   O33       1.0  0.18428999999999998  0.6404  0.55796  1.0000
  O   O34       1.0  0.24240999999999996  0.81298  0.61921  1.0000
  O   O35       1.0  0.07907999999999997  0.47525999999999996  0.39824  1.0000
  O   O36       1.0  0.17983  0.56036  0.27632  1.0000
  O   O37       1.0  0.54359  0.3599  0.94201  1.0000
  O   O38       1.0  0.42913  0.18673  0.88143  1.0000
  O   O39       1.0  0.60417  0.52481  0.10164  1.0000
  O   O40       1.0  0.6194799999999999  0.43973  0.22360000000000005  1.0000
  O   O41       1.0  0.81575  0.4562  0.94201  1.0000
  O   O42       1.0  0.75795  0.57084  0.88107  1.0000
  O   O43       1.0  0.92069  0.39596  0.10181  1.0000
  O   O44       1.0  0.8202699999999999  0.38057  0.22378  1.0000
  O   O45       1.0  0.6404  0.18429  0.94204  1.0000
  O   O46       1.0  0.81298  0.24241  0.88079  1.0000
  O   O47       1.0  0.47527  0.07909  0.10176000000000003  1.0000
  O   O48       1.0  0.56036  0.17983999999999997  0.22369  1.0000
