data_image0
_chemical_formula_structural       Lu6H18W24C42N6O86
_chemical_formula_sum              "Lu6 H18 W24 C42 N6 O86"
_cell_length_a       15.64121
_cell_length_b       15.67215
_cell_length_c       19.00346
_cell_angle_alpha    65.07406
_cell_angle_beta     65.09402
_cell_angle_gamma    59.04536

_space_group_name_H-M_alt    "P 1"
_space_group_IT_number       1

loop_
  _space_group_symop_operation_xyz
  'x, y, z'

loop_
  _atom_site_type_symbol
  _atom_site_label
  _atom_site_symmetry_multiplicity
  _atom_site_fract_x
  _atom_site_fract_y
  _atom_site_fract_z
  _atom_site_occupancy
  Lu  Lu1       1.0  0.5692  0.99805  0.52497  1.0000
  Lu  Lu2       1.0  0.9903899999999999  0.9115700000000001  0.52596  1.0000
  Lu  Lu3       1.0  0.9059999999999998  0.57672  0.5244  1.0000
  Lu  Lu4       1.0  0.4118299999999999  0.49501  0.02483  1.0000
  Lu  Lu5       1.0  0.07536  0.40446000000000004  0.02263  1.0000
  Lu  Lu6       1.0  0.49971999999999983  0.06519  0.02489  1.0000
  H   H1        1.0  0.2609  0.26438  0.86424  1.0000
  H   H2        1.0  0.29131  0.20466000000000004  0.66087  1.0000
  H   H3        1.0  0.5147299999999999  0.9897300000000001  0.79904  1.0000
  H   H4        1.0  0.26458000000000004  0.61279  0.86173  1.0000
  H   H5        1.0  0.19809000000000002  0.8485  0.65794  1.0000
  H   H6        1.0  0.9927299999999998  0.6943500000000001  0.79834  1.0000
  H   H7        1.0  0.6169599999999997  0.25937000000000004  0.85926  1.0000
  H   H8        1.0  0.8486999999999996  0.29779  0.65357  1.0000
  H   H9        1.0  0.6962199999999996  0.5124  0.7985  1.0000
  H   H10       1.0  0.11251999999999977  0.7660000000000001  0.36211  1.0000
  H   H11       1.0  0.3484  0.70076  0.1581  1.0000
  H   H12       1.0  0.19511999999999996  0.49462  0.29849  1.0000
  H   H13       1.0  0.7572899999999999  0.11775  0.35932  1.0000
  H   H14       1.0  0.7980900000000001  0.34814  0.15355  1.0000
  H   H15       1.0  0.01271999999999997  0.19367000000000004  0.2992  1.0000
  H   H16       1.0  0.7652400000000001  0.75894  0.36497  1.0000
  H   H17       1.0  0.7037200000000001  0.79094  0.16175  1.0000
  H   H18       1.0  0.48971000000000003  0.012950000000000005  0.30089  1.0000
  W   W1        1.0  0.5637299999999995  0.25297000000000003  0.48568  1.0000
  W   W2        1.0  0.7367899999999996  0.3470599999999999  0.47557  1.0000
  W   W3        1.0  0.5306999999999998  0.34587000000000007  0.65189  1.0000
  W   W4        1.0  0.4932699999999998  0.45482  0.34581  1.0000
  W   W5        1.0  0.25248000000000015  0.70215  0.48466  1.0000
  W   W6        1.0  0.3503700000000002  0.44164  0.47581  1.0000
  W   W7        1.0  0.3467299999999999  0.47152  0.65187  1.0000
  W   W8        1.0  0.45435  0.70877  0.34434  1.0000
  W   W9        1.0  0.70144  0.5586  0.48443  1.0000
  W   W10       1.0  0.43971999999999967  0.7338300000000001  0.47414  1.0000
  W   W11       1.0  0.47074000000000005  0.52887  0.6512  1.0000
  W   W12       1.0  0.7098099999999996  0.48986999999999997  0.34552  1.0000
  W   W13       1.0  0.19926000000000008  0.75281  0.98375  1.0000
  W   W14       1.0  0.9375300000000002  0.85192  0.97659  1.0000
  W   W15       1.0  0.9716400000000001  0.84674  0.15174  1.0000
  W   W16       1.0  0.20865999999999998  0.95418  0.84512  1.0000
  W   W17       1.0  0.06185999999999995  0.19754000000000002  0.98357  1.0000
  W   W18       1.0  0.2356000000000001  0.9356300000000001  0.97542  1.0000
  W   W19       1.0  0.02902000000000001  0.97033  0.15142  1.0000
  W   W20       1.0  0.98905  0.20948  0.84571  1.0000
  W   W21       1.0  0.7521300000000001  0.06658000000000001  0.98509  1.0000
  W   W22       1.0  0.8475400000000001  0.23750000000000002  0.97618  1.0000
  W   W23       1.0  0.8458  0.030329999999999992  0.15174  1.0000
  W   W24       1.0  0.9541399999999995  0.99281  0.84605  1.0000
  C   C1        1.0  0.40945  0.08958999999999999  0.72274  1.0000
  C   C2        1.0  0.39174999999999993  0.12379000000000001  0.84102  1.0000
  C   C3        1.0  0.4622299999999998  0.03008000000000001  0.66263  1.0000
  C   C4        1.0  0.42507999999999996  0.09784000000000002  0.91214  1.0000
  C   C5        1.0  0.30380999999999986  0.21407  0.82421  1.0000
  C   C6        1.0  0.31977  0.18085  0.71245  1.0000
  C   C7        1.0  0.44635999999999976  0.06029  0.78853  1.0000
  C   C8        1.0  0.08744999999999996  0.78016  0.72119  1.0000
  C   C9        1.0  0.12597999999999995  0.64327  0.83914  1.0000
  C   C10       1.0  0.026579999999999982  0.84733  0.66178  1.0000
  C   C11       1.0  0.10342999999999992  0.56247  0.91025  1.0000
  C   C12       1.0  0.2137799999999998  0.66008  0.82185  1.0000
  C   C13       1.0  0.17664000000000013  0.79092  0.71005  1.0000
  C   C14       1.0  0.061429999999999964  0.7046200000000001  0.78725  1.0000
  C   C15       1.0  0.7811  0.41142  0.71913  1.0000
  C   C16       1.0  0.64565  0.39022  0.83768  1.0000
  C   C17       1.0  0.8465299999999997  0.46590000000000004  0.66031  1.0000
  C   C18       1.0  0.56679  0.4208700000000001  0.91025  1.0000
  C   C19       1.0  0.66295  0.30359  0.81929  1.0000
  C   C20       1.0  0.79212  0.32347  0.70667  1.0000
  C   C21       1.0  0.70625  0.44563  0.7862  1.0000
  C   C22       1.0  0.2802899999999999  0.58996  0.22105  1.0000
  C   C23       1.0  0.14365000000000003  0.62764  0.33937  1.0000
  C   C24       1.0  0.3473699999999998  0.52973  0.16126  1.0000
  C   C25       1.0  0.06319  0.60493  0.41081  1.0000
  C   C26       1.0  0.16006000000000004  0.71553  0.32209  1.0000
  C   C27       1.0  0.29080999999999996  0.67911  0.21012  1.0000
  C   C28       1.0  0.20505999999999996  0.56345  0.28732  1.0000
  C   C29       1.0  0.9117699999999995  0.2795  0.21942999999999996  1.0000
  C   C30       1.0  0.8889499999999997  0.14522  0.33811  1.0000
  C   C31       1.0  0.9668899999999997  0.34415  0.15999  1.0000
  C   C32       1.0  0.9184399999999997  0.06663000000000001  0.41099  1.0000
  C   C33       1.0  0.80209  0.16309  0.31944  1.0000
  C   C34       1.0  0.82329  0.29145  0.20681  1.0000
  C   C35       1.0  0.94545  0.20474  0.28668  1.0000
  C   C36       1.0  0.58877  0.90825  0.22415  1.0000
  C   C37       1.0  0.6247900000000001  0.8904  0.34176  1.0000
  C   C38       1.0  0.52897  0.96084  0.16407  1.0000
  C   C39       1.0  0.6002700000000002  0.92387  0.41238  1.0000
  C   C40       1.0  0.7147699999999999  0.8023000000000001  0.32492  1.0000
  C   C41       1.0  0.6801900000000001  0.8188600000000001  0.21352  1.0000
  C   C42       1.0  0.56037  0.94488  0.28985  1.0000
  N   N1        1.0  0.2675799999999998  0.24253999999999998  0.76166  1.0000
  N   N2        1.0  0.23896999999999996  0.7326099999999999  0.75907  1.0000
  N   N3        1.0  0.7349399999999997  0.26986  0.7555  1.0000
  N   N4        1.0  0.23238999999999996  0.74112  0.25926  1.0000
  N   N5        1.0  0.7688899999999997  0.23509  0.25545  1.0000
  N   N6        1.0  0.7423899999999996  0.7664400000000001  0.26246  1.0000
  O   O1        1.0  0.6861100000000001  0.27227  0.45738  1.0000
  O   O2        1.0  0.6116199999999998  0.11768  0.49247  1.0000
  O   O3        1.0  0.41817999999999994  0.29448999999999986  0.50019  1.0000
  O   O4        1.0  0.62773  0.48465999999999987  0.45713  1.0000
  O   O5        1.0  0.5361699999999997  0.26046  0.58576  1.0000
  O   O6        1.0  0.50447  0.013900000000000013  0.92882  1.0000
  O   O7        1.0  0.41629999999999995  0.05237  0.60999  1.0000
  O   O8        1.0  0.8297  0.36342  0.36478  1.0000
  O   O9        1.0  0.6757799999999999  0.30317  0.58784  1.0000
  O   O10       1.0  0.4541100000000001  0.5924699999999999  0.31374  1.0000
  O   O11       1.0  0.40035999999999977  0.33663  0.72243  1.0000
  O   O12       1.0  0.37661  0.15956  0.95885  1.0000
  O   O13       1.0  0.5564799999999996  0.9616  0.65602  1.0000
  O   O14       1.0  0.57003  0.30803  0.37031  1.0000
  O   O15       1.0  0.27344000000000007  0.58763  0.45719  1.0000
  O   O16       1.0  0.11663999999999992  0.7836200000000001  0.49127  1.0000
  O   O17       1.0  0.29200000000000004  0.79168  0.49854  1.0000
  O   O18       1.0  0.48753999999999986  0.4298  0.45724  1.0000
  O   O19       1.0  0.2604199999999999  0.62045  0.58497  1.0000
  O   O20       1.0  0.018849999999999797  0.55217  0.92956  1.0000
  O   O21       1.0  0.04609000000000001  0.92514  0.60827  1.0000
  O   O22       1.0  0.36771999999999977  0.44408  0.36486  1.0000
  O   O23       1.0  0.30616  0.43370000000000003  0.58798  1.0000
  O   O24       1.0  0.5926099999999999  0.64045  0.31367  1.0000
  O   O25       1.0  0.33588999999999997  0.54102  0.72167  1.0000
  O   O26       1.0  0.1685299999999999  0.4987699999999999  0.95423  1.0000
  O   O27       1.0  0.9592699999999997  0.82692  0.65684  1.0000
  O   O28       1.0  0.30754999999999993  0.75619  0.36903  1.0000
  O   O29       1.0  0.5849499999999999  0.68225  0.45607  1.0000
  O   O30       1.0  0.7812199999999999  0.60656  0.49015  1.0000
  O   O31       1.0  0.79185  0.4134600000000001  0.49953  1.0000
  O   O32       1.0  0.43034999999999995  0.62654  0.45615  1.0000
  O   O33       1.0  0.6190599999999996  0.53279  0.58465  1.0000
  O   O34       1.0  0.55845  0.49444  0.93069  1.0000
  O   O35       1.0  0.9261100000000001  0.42225  0.60699  1.0000
  O   O36       1.0  0.4409299999999996  0.82714  0.36353  1.0000
  O   O37       1.0  0.4310899999999999  0.67328  0.5863  1.0000
  O   O38       1.0  0.6433799999999998  0.45189  0.31427  1.0000
  O   O39       1.0  0.5410199999999995  0.3983  0.72179  1.0000
  O   O40       1.0  0.50339  0.37632999999999994  0.95458  1.0000
  O   O41       1.0  0.8226399999999999  0.56026  0.65524  1.0000
  O   O42       1.0  0.75563  0.56488  0.36925  1.0000
  O   O43       1.0  0.08585000000000005  0.77357  0.95692  1.0000
  O   O44       1.0  0.28218000000000004  0.61747  0.9899500000000001  1.0000
  O   O45       1.0  0.29192999999999975  0.79066  0.9988500000000001  1.0000
  O   O46       1.0  0.9281699999999999  0.9879999999999999  0.95759  1.0000
  O   O47       1.0  0.12028999999999994  0.76047  0.08471  1.0000
  O   O48       1.0  0.052429999999999866  0.5207200000000002  0.43033  1.0000
  O   O49       1.0  0.4247899999999998  0.55001  0.10748999999999999  1.0000
  O   O50       1.0  0.9434099999999996  0.86788  0.86466  1.0000
  O   O51       1.0  0.9336499999999999  0.80607  0.08794  1.0000
  O   O52       1.0  0.14015000000000005  0.09202999999999997  0.81401  1.0000
  O   O53       1.0  0.04119000000000001  0.83548  0.22176  1.0000
  O   O54       1.0  0.000249999999999916  0.66974  0.45509  1.0000
  O   O55       1.0  0.3274499999999998  0.46225  0.15626  1.0000
  O   O56       1.0  0.2558899999999999  0.80784  0.86877  1.0000
  O   O57       1.0  0.18363999999999997  0.08289  0.9561  1.0000
  O   O58       1.0  0.10873000000000002  0.27813  0.98936  1.0000
  O   O59       1.0  0.9139999999999998  0.2908899999999999  0.9994000000000001  1.0000
  O   O60       1.0  0.12653  0.9289700000000001  0.95682  1.0000
  O   O61       1.0  0.03293999999999996  0.118  0.08445  1.0000
  O   O62       1.0  0.9908999999999999  0.05850999999999999  0.43281  1.0000
  O   O63       1.0  0.9221799999999999  0.42416000000000004  0.10731  1.0000
  O   O64       1.0  0.32757  0.94058  0.86371  1.0000
  O   O65       1.0  0.17415999999999995  0.93077  0.08695  1.0000
  O   O66       1.0  0.95149  0.14285999999999996  0.81441  1.0000
  O   O67       1.0  0.89827  0.04045  0.22191  1.0000
  O   O68       1.0  0.8738700000000001  0.0030899999999999764  0.45427  1.0000
  O   O69       1.0  0.06193000000000002  0.31946  0.15365  1.0000
  O   O70       1.0  0.06520999999999995  0.25469  0.86872  1.0000
  O   O71       1.0  0.7705000000000001  0.18743000000000004  0.95742  1.0000
  O   O72       1.0  0.61683  0.11147000000000007  0.9925699999999998  1.0000
  O   O73       1.0  0.7925299999999995  0.91853  0.00011  1.0000
  O   O74       1.0  0.9847399999999998  0.12737999999999997  0.95725  1.0000
  O   O75       1.0  0.7607899999999997  0.03543  0.08548  1.0000
  O   O76       1.0  0.51614  0.0026899999999999923  0.42966  1.0000
  O   O77       1.0  0.55073  0.91417  0.11207  1.0000
  O   O78       1.0  0.8627299999999997  0.32924  0.86462  1.0000
  O   O79       1.0  0.8023099999999997  0.17525999999999997  0.08783  1.0000
  O   O80       1.0  0.09190999999999999  0.9536599999999998  0.81451  1.0000
  O   O81       1.0  0.8362399999999999  0.90043  0.22207  1.0000
  O   O82       1.0  0.66335  0.87602  0.45809  1.0000
  O   O83       1.0  0.4614699999999997  0.055220000000000005  0.15647  1.0000
  O   O84       1.0  0.8071799999999999  0.07016000000000003  0.87028  1.0000
  O   O85       1.0  0.47741999999999996  0.47675000000000006  0.56777  1.0000
  O   O86       1.0  0.97699  0.97732  0.06775  1.0000
