data_image0
_chemical_formula_structural       Ho4H48C84O24
_chemical_formula_sum              "Ho4 H48 C84 O24"
_cell_length_a       15.43133
_cell_length_b       15.42922
_cell_length_c       18.37832
_cell_angle_alpha    76.12061
_cell_angle_beta     75.89828999999999
_cell_angle_gamma    69.25965

_space_group_name_H-M_alt    "P 1"
_space_group_IT_number       1

loop_
  _space_group_symop_operation_xyz
  'x, y, z'

loop_
  _atom_site_type_symbol
  _atom_site_label
  _atom_site_symmetry_multiplicity
  _atom_site_fract_x
  _atom_site_fract_y
  _atom_site_fract_z
  _atom_site_occupancy
  Ho  Ho1       1.0  0.9676800000000003  0.032690000000000004  0.89613  1.0000
  Ho  Ho2       1.0  0.9658600000000004  0.03432  0.60529  1.0000
  Ho  Ho3       1.0  0.03231999999999996  0.96731  0.10387  1.0000
  Ho  Ho4       1.0  0.03414999999999997  0.96567  0.39471  1.0000
  H   H1        1.0  0.72229  0.012190000000000001  0.21545  1.0000
  H   H2        1.0  0.55245  0.02510999999999999  0.2527  1.0000
  H   H3        1.0  0.5392600000000002  0.04193  0.01778  1.0000
  H   H4        1.0  0.7067200000000005  0.03448999999999995  0.98128  1.0000
  H   H5        1.0  0.91416  0.34692  0.89901  1.0000
  H   H6        1.0  0.93097  0.4993000000000001  0.8986499999999998  1.0000
  H   H7        1.0  0.05210000000000004  0.3809699999999999  0.10289  1.0000
  H   H8        1.0  0.032950000000000035  0.22964999999999994  0.10234  1.0000
  H   H9        1.0  0.2318100000000001  0.1037  0.08689  1.0000
  H   H10       1.0  0.3917600000000001  0.12055999999999997  0.05538  1.0000
  H   H11       1.0  0.45254  0.94726  0.27027  1.0000
  H   H12       1.0  0.28845999999999994  0.93877  0.30321  1.0000
  H   H13       1.0  0.98873  0.27523  0.28447  1.0000
  H   H14       1.0  0.97565  0.44484  0.24707000000000004  1.0000
  H   H15       1.0  0.9589599999999999  0.45973  0.48178  1.0000
  H   H16       1.0  0.9664700000000004  0.29245999999999994  0.5183  1.0000
  H   H17       1.0  0.65254  0.0857  0.60161  1.0000
  H   H18       1.0  0.5002100000000003  0.06918999999999999  0.60168  1.0000
  H   H19       1.0  0.61987  0.9478099999999999  0.3967899999999999  1.0000
  H   H20       1.0  0.7710900000000005  0.9667699999999999  0.39769  1.0000
  H   H21       1.0  0.89457  0.7668799999999998  0.41383  1.0000
  H   H22       1.0  0.8796700000000004  0.60653  0.44485  1.0000
  H   H23       1.0  0.05368000000000011  0.54631  0.22922999999999996  1.0000
  H   H24       1.0  0.06011000000000008  0.7110099999999998  0.19658  1.0000
  H   H25       1.0  0.2777200000000001  0.9877999999999999  0.78455  1.0000
  H   H26       1.0  0.4475600000000001  0.9748899999999999  0.7472999999999999  1.0000
  H   H27       1.0  0.46075  0.95807  0.9822300000000002  1.0000
  H   H28       1.0  0.29329  0.96551  0.01872  1.0000
  H   H29       1.0  0.0858500000000001  0.6530799999999998  0.10099  1.0000
  H   H30       1.0  0.06904000000000002  0.50069  0.10136  1.0000
  H   H31       1.0  0.9479000000000002  0.6190299999999997  0.89711  1.0000
  H   H32       1.0  0.9670500000000001  0.77034  0.89766  1.0000
  H   H33       1.0  0.7682000000000003  0.89629  0.9131199999999999  1.0000
  H   H34       1.0  0.6082500000000004  0.8794399999999999  0.94462  1.0000
  H   H35       1.0  0.54746  0.05273999999999998  0.72973  1.0000
  H   H36       1.0  0.7115400000000002  0.061229999999999965  0.69679  1.0000
  H   H37       1.0  0.01127999999999998  0.72477  0.71553  1.0000
  H   H38       1.0  0.024360000000000104  0.55516  0.75293  1.0000
  H   H39       1.0  0.04104000000000005  0.5402599999999999  0.51822  1.0000
  H   H40       1.0  0.03353000000000008  0.7075399999999997  0.4817  1.0000
  H   H41       1.0  0.3474700000000001  0.9143  0.39838999999999997  1.0000
  H   H42       1.0  0.49979000000000007  0.93081  0.39832  1.0000
  H   H43       1.0  0.3801300000000001  0.052179999999999976  0.60321  1.0000
  H   H44       1.0  0.2289200000000001  0.03322999999999999  0.60232  1.0000
  H   H45       1.0  0.10544000000000003  0.23312000000000002  0.5861699999999999  1.0000
  H   H46       1.0  0.12034000000000004  0.39347  0.55515  1.0000
  H   H47       1.0  0.94633  0.45369  0.77077  1.0000
  H   H48       1.0  0.9399000000000001  0.28899  0.80342  1.0000
  C   C1        1.0  0.8266500000000002  0.01274  0.07448  1.0000
  C   C2        1.0  0.72487  0.022360000000000005  0.09622999999999998  1.0000
  C   C3        1.0  0.6810100000000002  0.019099999999999995  0.1729  1.0000
  C   C4        1.0  0.5864  0.025199999999999997  0.19339  1.0000
  C   C5        1.0  0.53352  0.03294  0.13813  1.0000
  C   C6        1.0  0.5781800000000002  0.037209999999999986  0.061360000000000005  1.0000
  C   C7        1.0  0.67237  0.03249  0.04053  1.0000
  C   C8        1.0  0.9665400000000002  0.18352999999999997  0.9984399999999999  1.0000
  C   C9        1.0  0.9730600000000004  0.27749  0.00013  1.0000
  C   C10       1.0  0.94466  0.35504  0.9433099999999999  1.0000
  C   C11       1.0  0.95455  0.44115  0.94363  1.0000
  C   C12       1.0  0.9940200000000001  0.4541099999999999  0.00032  1.0000
  C   C13       1.0  0.02146000000000002  0.37549999999999994  0.05754  1.0000
  C   C14       1.0  0.011010000000000015  0.28936  0.05780999999999999  1.0000
  C   C15       1.0  0.15948000000000007  0.0013199999999999985  0.21283  1.0000
  C   C16       1.0  0.25215  0.017719999999999996  0.19615  1.0000
  C   C17       1.0  0.28085  0.07014999999999998  0.12654  1.0000
  C   C18       1.0  0.3707300000000001  0.07856999999999997  0.10901  1.0000
  C   C19       1.0  0.43498000000000014  0.03284999999999998  0.1597  1.0000
  C   C20       1.0  0.40394  0.98341  0.23053  1.0000
  C   C21       1.0  0.3133700000000001  0.97685  0.24888  1.0000
  C   C22       1.0  0.9881800000000001  0.17174  0.42648  1.0000
  C   C23       1.0  0.9786200000000002  0.27338  0.40365  1.0000
  C   C24       1.0  0.9818900000000004  0.31673  0.32698  1.0000
  C   C25       1.0  0.9756600000000001  0.41139  0.30639  1.0000
  C   C26       1.0  0.9678000000000001  0.46487  0.36146  1.0000
  C   C27       1.0  0.96367  0.42059  0.43822  1.0000
  C   C28       1.0  0.9684400000000004  0.3265  0.45909000000000005  1.0000
  C   C29       1.0  0.8168400000000002  0.03302999999999999  0.50242  1.0000
  C   C30       1.0  0.7228200000000002  0.026589999999999996  0.50036  1.0000
  C   C31       1.0  0.64475  0.055169999999999976  0.55713  1.0000
  C   C32       1.0  0.55862  0.04539  0.55662  1.0000
  C   C33       1.0  0.5459600000000001  0.005880000000000006  0.49972999999999995  1.0000
  C   C34       1.0  0.6250300000000004  0.97839  0.44241  1.0000
  C   C35       1.0  0.7112000000000005  0.98875  0.44238  1.0000
  C   C36       1.0  0.9941300000000004  0.8414099999999999  0.28626  1.0000
  C   C37       1.0  0.9802900000000001  0.7474  0.30373  1.0000
  C   C38       1.0  0.9287600000000004  0.71806  0.37375  1.0000
  C   C39       1.0  0.9215099999999999  0.62775  0.39112  1.0000
  C   C40       1.0  0.9675700000000004  0.56354  0.34004  1.0000
  C   C41       1.0  0.01690999999999996  0.59488  0.26919  1.0000
  C   C42       1.0  0.022220000000000083  0.6858799999999999  0.25097  1.0000
  C   C43       1.0  0.17336  0.9872599999999999  0.92552  1.0000
  C   C44       1.0  0.2751400000000001  0.97763  0.90378  1.0000
  C   C45       1.0  0.31900000000000023  0.9808999999999999  0.8271  1.0000
  C   C46       1.0  0.4136100000000002  0.9747999999999996  0.80661  1.0000
  C   C47       1.0  0.46649  0.9670499999999997  0.86187  1.0000
  C   C48       1.0  0.4218300000000001  0.96278  0.9386499999999999  1.0000
  C   C49       1.0  0.32764000000000026  0.9675099999999995  0.9594699999999999  1.0000
  C   C50       1.0  0.033460000000000024  0.81647  0.0015499999999999997  1.0000
  C   C51       1.0  0.026950000000000064  0.7225  0.9998699999999999  1.0000
  C   C52       1.0  0.055350000000000024  0.64496  0.05669  1.0000
  C   C53       1.0  0.04545000000000006  0.5588499999999997  0.05638  1.0000
  C   C54       1.0  0.005990000000000049  0.54589  0.9996799999999999  1.0000
  C   C55       1.0  0.9785499999999999  0.6245  0.9424599999999999  1.0000
  C   C56       1.0  0.9890000000000004  0.7106400000000002  0.94219  1.0000
  C   C57       1.0  0.8405200000000003  0.9986700000000001  0.7871799999999998  1.0000
  C   C58       1.0  0.7478600000000004  0.9822800000000002  0.8038499999999998  1.0000
  C   C59       1.0  0.71916  0.9298500000000001  0.87346  1.0000
  C   C60       1.0  0.6292800000000004  0.92143  0.89099  1.0000
  C   C61       1.0  0.5650200000000001  0.9671400000000001  0.8403  1.0000
  C   C62       1.0  0.59607  0.016580000000000025  0.76947  1.0000
  C   C63       1.0  0.6866300000000002  0.02314  0.75112  1.0000
  C   C64       1.0  0.011830000000000021  0.82826  0.57351  1.0000
  C   C65       1.0  0.021390000000000024  0.72662  0.59635  1.0000
  C   C66       1.0  0.018119999999999994  0.68327  0.67302  1.0000
  C   C67       1.0  0.024349999999999962  0.5886100000000001  0.69362  1.0000
  C   C68       1.0  0.03221000000000009  0.53513  0.63854  1.0000
  C   C69       1.0  0.03632999999999997  0.57941  0.56178  1.0000
  C   C70       1.0  0.031570000000000036  0.6735  0.5409099999999999  1.0000
  C   C71       1.0  0.18316999999999994  0.9669700000000001  0.49757  1.0000
  C   C72       1.0  0.2771800000000003  0.97341  0.49964  1.0000
  C   C73       1.0  0.35526000000000024  0.94483  0.44287  1.0000
  C   C74       1.0  0.4413900000000003  0.9545999999999999  0.44338  1.0000
  C   C75       1.0  0.4540500000000001  0.99411  0.50027  1.0000
  C   C76       1.0  0.37498  0.021609999999999994  0.55759  1.0000
  C   C77       1.0  0.28881000000000007  0.01125000000000002  0.5576199999999999  1.0000
  C   C78       1.0  0.0058700000000000375  0.15859  0.71375  1.0000
  C   C79       1.0  0.01971999999999998  0.25259  0.69627  1.0000
  C   C80       1.0  0.07125000000000004  0.28193  0.62625  1.0000
  C   C81       1.0  0.07849000000000005  0.3722499999999999  0.60888  1.0000
  C   C82       1.0  0.032429999999999994  0.43646000000000007  0.65997  1.0000
  C   C83       1.0  0.9830900000000002  0.40511999999999976  0.73081  1.0000
  C   C84       1.0  0.9777800000000001  0.31410999999999994  0.74903  1.0000
  O   O1        1.0  0.8619800000000002  0.025089999999999998  0.0035799999999999994  1.0000
  O   O2        1.0  0.11718  0.01882  0.15669  1.0000
  O   O3        1.0  0.9521100000000003  0.16923999999999997  0.93738  1.0000
  O   O4        1.0  0.12828000000000006  0.96929  0.28087  1.0000
  O   O5        1.0  0.12527  0.008959999999999994  0.87266  1.0000
  O   O6        1.0  0.97792  0.12154  0.05848  1.0000
  O   O7        1.0  0.9733500000000005  0.13874000000000003  0.49761999999999995  1.0000
  O   O8        1.0  0.978  0.88345  0.34247  1.0000
  O   O9        1.0  0.8303100000000002  0.0478  0.56375  1.0000
  O   O10       1.0  0.022289999999999994  0.87397  0.2176  1.0000
  O   O11       1.0  0.9874400000000003  0.87834  0.62566  1.0000
  O   O12       1.0  0.8793200000000002  0.021429999999999998  0.44245  1.0000
  O   O13       1.0  0.13801999999999995  0.97491  0.99643  1.0000
  O   O14       1.0  0.8828200000000002  0.98118  0.84331  1.0000
  O   O15       1.0  0.04790000000000011  0.8307599999999998  0.06262  1.0000
  O   O16       1.0  0.8717300000000001  0.030709999999999987  0.71912  1.0000
  O   O17       1.0  0.8747400000000004  0.99104  0.12734  1.0000
  O   O18       1.0  0.022079999999999943  0.87846  0.9415300000000001  1.0000
  O   O19       1.0  0.026659999999999965  0.86126  0.50239  1.0000
  O   O20       1.0  0.022009999999999977  0.11654000000000002  0.65752  1.0000
  O   O21       1.0  0.16970000000000007  0.9521899999999999  0.43625  1.0000
  O   O22       1.0  0.9777200000000001  0.12603  0.7824  1.0000
  O   O23       1.0  0.012570000000000007  0.12165999999999999  0.37435  1.0000
  O   O24       1.0  0.12068000000000001  0.97857  0.55756  1.0000
