data_image0
_chemical_formula_structural       Dy8H24C84N12O48
_chemical_formula_sum              "Dy8 H24 C84 N12 O48"
_cell_length_a       12.12014
_cell_length_b       12.841
_cell_length_c       21.65059
_cell_angle_alpha    82.75146000000001
_cell_angle_beta     74.60221
_cell_angle_gamma    61.60255999999999

_symmetry_space_group_name_H-M    'P 1'
_symmetry_Int_Tables_number       1

loop_
  _symmetry_equiv_pos_as_xyz
  'x,y,z'

loop_
  _atom_site_type_symbol
  _atom_site_label
  _atom_site_symmetry_multiplicity
  _atom_site_fract_x
  _atom_site_fract_y
  _atom_site_fract_z
  _atom_site_occupancy
  Dy  Dy1       1.0  0.5230800000000002  0.23642  0.47312  1.0000
  Dy  Dy2       1.0  0.24689  0.2323  0.0248  1.0000
  Dy  Dy3       1.0  0.47563999999999995  0.76734  0.52676  1.0000
  Dy  Dy4       1.0  0.7556699999999997  0.7660399999999999  0.97461  1.0000
  Dy  Dy5       1.0  0.75143  0.49573  0.25002  1.0000
  Dy  Dy6       1.0  0.24909000000000003  0.50272  0.7494  1.0000
  Dy  Dy7       1.0  0.2273900000000001  0.5424  0.24990999999999997  1.0000
  Dy  Dy8       1.0  0.77204  0.45677  0.75097  1.0000
  H   H1        1.0  0.89465  0.12322  0.4162  1.0000
  H   H2        1.0  0.13364  0.3002  0.38148  1.0000
  H   H3        1.0  0.09963999999999994  0.9559500000000001  0.40199  1.0000
  H   H4        1.0  0.16870000000000002  0.21398  0.47724999999999995  1.0000
  H   H5        1.0  0.47906  0.11318  0.34404  1.0000
  H   H6        1.0  0.47031  0.9440600000000001  0.35431  1.0000
  H   H7        1.0  0.9833200000000001  0.12255  0.08367  1.0000
  H   H8        1.0  0.5654900000000002  0.30079  0.11874  1.0000
  H   H9        1.0  0.9451  0.95532  0.09815999999999998  1.0000
  H   H10       1.0  0.6166000000000003  0.21505  0.02267  1.0000
  H   H11       1.0  0.4077  0.11368  0.15630999999999998  1.0000
  H   H12       1.0  0.58568  0.94401  0.14587  1.0000
  H   H13       1.0  0.10523999999999996  0.87686  0.58385  1.0000
  H   H14       1.0  0.86625  0.69988  0.6187  1.0000
  H   H15       1.0  0.90035  0.04398  0.5980499999999999  1.0000
  H   H16       1.0  0.8306300000000002  0.78698  0.52267  1.0000
  H   H17       1.0  0.5209899999999997  0.88683  0.65621  1.0000
  H   H18       1.0  0.53014  0.05511  0.64565  1.0000
  H   H19       1.0  0.016530000000000048  0.8773499999999999  0.91628  1.0000
  H   H20       1.0  0.4344800000000002  0.69897  0.88115  1.0000
  H   H21       1.0  0.054900000000000046  0.04532  0.9020699999999999  1.0000
  H   H22       1.0  0.3834099999999999  0.78542  0.97737  1.0000
  H   H23       1.0  0.59221  0.88662  0.84372  1.0000
  H   H24       1.0  0.41436000000000006  0.05587  0.8540899999999999  1.0000
  C   C1        1.0  0.35602  0.3637  0.35214  1.0000
  C   C2        1.0  0.5861900000000001  0.69563  0.36387  1.0000
  C   C3        1.0  0.72046  0.28884  0.34615  1.0000
  C   C4        1.0  0.84072  0.28147  0.3586  1.0000
  C   C5        1.0  0.91912  0.19305  0.39453  1.0000
  C   C6        1.0  0.02861000000000001  0.19649999999999998  0.4021  1.0000
  C   C7        1.0  0.0512  0.29275  0.37569  1.0000
  C   C8        1.0  0.9685800000000001  0.37698999999999994  0.33981  1.0000
  C   C9        1.0  0.98125  0.48296999999999995  0.30569  1.0000
  C   C10       1.0  0.27668000000000004  0.75915  0.45772999999999997  1.0000
  C   C11       1.0  0.2378700000000001  0.8920799999999999  0.45875999999999995  1.0000
  C   C12       1.0  0.14601000000000008  0.9815299999999999  0.42948  1.0000
  C   C13       1.0  0.12035000000000004  0.09963999999999999  0.43504  1.0000
  C   C14       1.0  0.18749  0.12431  0.46993  1.0000
  C   C15       1.0  0.27779  0.03109  0.49768  1.0000
  C   C16       1.0  0.3620199999999999  0.04238  0.53448  1.0000
  C   C17       1.0  0.3779999999999997  0.28053  0.30082  1.0000
  C   C18       1.0  0.43980000000000014  0.15752  0.30283999999999994  1.0000
  C   C19       1.0  0.57896  0.77624  0.30577  1.0000
  C   C20       1.0  0.5176300000000003  0.89986  0.308  1.0000
  C   C21       1.0  0.28043000000000007  0.3639  0.1476  1.0000
  C   C22       1.0  0.71813  0.69582  0.1365  1.0000
  C   C23       1.0  0.99202  0.28764  0.1535  1.0000
  C   C24       1.0  0.87851  0.28069  0.14119  1.0000
  C   C25       1.0  0.8885300000000002  0.19245  0.10534  1.0000
  C   C26       1.0  0.77506  0.19654  0.09793999999999999  1.0000
  C   C27       1.0  0.65574  0.29292  0.12434999999999999  1.0000
  C   C28       1.0  0.65423  0.37688  0.1602  1.0000
  C   C29       1.0  0.53506  0.48331  0.19421  1.0000
  C   C30       1.0  0.96398  0.7593799999999999  0.04233  1.0000
  C   C31       1.0  0.8698400000000001  0.8924  0.0411  1.0000
  C   C32       1.0  0.8727900000000001  0.9813499999999998  0.07049  1.0000
  C   C33       1.0  0.78014  0.09987  0.06494  1.0000
  C   C34       1.0  0.6879  0.12492  0.029949999999999997  1.0000
  C   C35       1.0  0.69086  0.03184  0.00208  1.0000
  C   C36       1.0  0.59422  0.04352  0.96584  1.0000
  C   C37       1.0  0.3413800000000001  0.28082  0.19932  1.0000
  C   C38       1.0  0.40262  0.15781  0.19749000000000003  1.0000
  C   C39       1.0  0.64443  0.77631  0.19457  1.0000
  C   C40       1.0  0.5823400000000001  0.8999899999999998  0.19224999999999998  1.0000
  C   C41       1.0  0.6442800000000001  0.63589  0.64811  1.0000
  C   C42       1.0  0.41431000000000007  0.30394  0.6360799999999999  1.0000
  C   C43       1.0  0.28003000000000006  0.7110199999999999  0.65334  1.0000
  C   C44       1.0  0.15965000000000001  0.7181299999999999  0.64104  1.0000
  C   C45       1.0  0.08089999999999997  0.80683  0.60532  1.0000
  C   C46       1.0  0.9712100000000001  0.80355  0.59789  1.0000
  C   C47       1.0  0.94881  0.70722  0.6243799999999999  1.0000
  C   C48       1.0  0.03165000000000003  0.62279  0.66018  1.0000
  C   C49       1.0  0.018789999999999887  0.51675  0.69416  1.0000
  C   C50       1.0  0.7239000000000001  0.24109999999999998  0.54228  1.0000
  C   C51       1.0  0.76204  0.10843  0.54117  1.0000
  C   C52       1.0  0.8538099999999998  0.01881  0.57046  1.0000
  C   C53       1.0  0.8793200000000002  0.90071  0.56495  1.0000
  C   C54       1.0  0.8118700000000001  0.87664  0.52996  1.0000
  C   C55       1.0  0.72175  0.9701099999999999  0.50216  1.0000
  C   C56       1.0  0.6373100000000003  0.9589999999999999  0.46546  1.0000
  C   C57       1.0  0.6221100000000002  0.7194799999999999  0.69931  1.0000
  C   C58       1.0  0.56031  0.84242  0.69724  1.0000
  C   C59       1.0  0.4214300000000001  0.22321000000000002  0.69409  1.0000
  C   C60       1.0  0.48257  0.09959  0.69192  1.0000
  C   C61       1.0  0.71913  0.63703  0.85254  1.0000
  C   C62       1.0  0.28213999999999995  0.3046  0.8627299999999999  1.0000
  C   C63       1.0  0.008200000000000119  0.7111999999999999  0.8466399999999998  1.0000
  C   C64       1.0  0.12150999999999995  0.71893  0.8588  1.0000
  C   C65       1.0  0.11139000000000002  0.80746  0.89462  1.0000
  C   C66       1.0  0.22471999999999998  0.80381  0.90206  1.0000
  C   C67       1.0  0.3439200000000002  0.70729  0.87565  1.0000
  C   C68       1.0  0.3455300000000001  0.62314  0.8397999999999999  1.0000
  C   C69       1.0  0.46512  0.51653  0.8063  1.0000
  C   C70       1.0  0.03584000000000007  0.24122  0.9580099999999999  1.0000
  C   C71       1.0  0.13022000000000003  0.10813  0.9588899999999999  1.0000
  C   C72       1.0  0.12734  0.01909  0.92958  1.0000
  C   C73       1.0  0.21980999999999998  0.90049  0.93509  1.0000
  C   C74       1.0  0.3121399999999998  0.8753300000000002  0.97001  1.0000
  C   C75       1.0  0.30922999999999995  0.96819  0.99789  1.0000
  C   C76       1.0  0.40564  0.9566299999999999  0.03425  1.0000
  C   C77       1.0  0.6583999999999999  0.71971  0.80075  1.0000
  C   C78       1.0  0.59739  0.84259  0.8025999999999999  1.0000
  C   C79       1.0  0.35584000000000005  0.22339  0.8051899999999999  1.0000
  C   C80       1.0  0.4177  0.09982  0.8076899999999999  1.0000
  C   C81       1.0  0.45266  0.09470999999999999  0.25017  1.0000
  C   C82       1.0  0.51828  0.96341  0.25014  1.0000
  C   C83       1.0  0.5475700000000001  0.90508  0.74989  1.0000
  C   C84       1.0  0.48181999999999997  0.0362  0.74984  1.0000
  N   N1        1.0  0.8679800000000001  0.36833999999999995  0.33078  1.0000
  N   N2        1.0  0.30019000000000023  0.91939  0.49167  1.0000
  N   N3        1.0  0.7639  0.36784  0.16897  1.0000
  N   N4        1.0  0.77959  0.9197  0.00845  1.0000
  N   N5        1.0  0.13252999999999995  0.63124  0.669  1.0000
  N   N6        1.0  0.69929  0.08177  0.50824  1.0000
  N   N7        1.0  0.23614000000000004  0.63198  0.83087  1.0000
  N   N8        1.0  0.22069000000000003  0.08036  0.9914799999999998  1.0000
  N   N9        1.0  0.3313400000000001  0.33762  0.25003  1.0000
  N   N10       1.0  0.6410000000000001  0.71722  0.25012  1.0000
  N   N11       1.0  0.6687700000000002  0.66246  0.7501399999999999  1.0000
  N   N12       1.0  0.35941999999999996  0.28231  0.74962  1.0000
  O   O1        1.0  0.6792900000000001  0.35375  0.30022  1.0000
  O   O2        1.0  0.66959  0.22885  0.38164  1.0000
  O   O3        1.0  0.8988900000000001  0.54982  0.275  1.0000
  O   O4        1.0  0.07521999999999994  0.50008  0.31028  1.0000
  O   O5        1.0  0.3587000000000002  0.69631  0.4924299999999999  1.0000
  O   O6        1.0  0.22759000000000001  0.72695  0.42558  1.0000
  O   O7        1.0  0.40308  0.9576699999999999  0.57429  1.0000
  O   O8        1.0  0.3864  0.12895  0.52187  1.0000
  O   O9        1.0  0.30673  0.47377  0.33705999999999997  1.0000
  O   O10       1.0  0.38234999999999986  0.32192  0.40515999999999996  1.0000
  O   O11       1.0  0.63193  0.58672  0.35290999999999995  1.0000
  O   O12       1.0  0.54997  0.74376  0.41821  1.0000
  O   O13       1.0  0.9664900000000002  0.35275  0.19976  1.0000
  O   O14       1.0  0.10322  0.22845  0.11794  1.0000
  O   O15       1.0  0.5504299999999999  0.55015  0.22491  1.0000
  O   O16       1.0  0.4236999999999999  0.50115  0.18967  1.0000
  O   O17       1.0  0.9438800000000002  0.69708  0.00796  1.0000
  O   O18       1.0  0.04596  0.72573  0.07432  1.0000
  O   O19       1.0  0.6376699999999998  0.95973  0.9258599999999999  1.0000
  O   O20       1.0  0.48224999999999996  0.13016  0.97935  1.0000
  O   O21       1.0  0.22001999999999997  0.47417  0.16258  1.0000
  O   O22       1.0  0.29552999999999996  0.32204  0.09479  1.0000
  O   O23       1.0  0.78203  0.58667  0.14691  1.0000
  O   O24       1.0  0.70583  0.74449  0.08235  1.0000
  O   O25       1.0  0.32177  0.64555  0.69909  1.0000
  O   O26       1.0  0.3298499999999999  0.7719400000000001  0.61812  1.0000
  O   O27       1.0  0.10178000000000005  0.44902  0.72446  1.0000
  O   O28       1.0  0.92332  0.50149  0.68988  1.0000
  O   O29       1.0  0.6422599999999999  0.30435  0.50738  1.0000
  O   O30       1.0  0.77296  0.2729  0.57463  1.0000
  O   O31       1.0  0.5958600000000003  0.04356  0.42563999999999996  1.0000
  O   O32       1.0  0.6133100000000001  0.8721299999999998  0.47801999999999994  1.0000
  O   O33       1.0  0.69348  0.5258  0.6636  1.0000
  O   O34       1.0  0.6175299999999999  0.67788  0.59507  1.0000
  O   O35       1.0  0.36823000000000006  0.4131099999999999  0.64716  1.0000
  O   O36       1.0  0.4505700000000001  0.25654  0.58168  1.0000
  O   O37       1.0  0.03306999999999994  0.64637  0.80056  1.0000
  O   O38       1.0  0.8970699999999999  0.7700599999999999  0.8827  1.0000
  O   O39       1.0  0.451  0.44901  0.77551  1.0000
  O   O40       1.0  0.57601  0.49915  0.81174  1.0000
  O   O41       1.0  0.055240000000000004  0.30308  0.99301  1.0000
  O   O42       1.0  0.9543299999999999  0.27435  0.9257699999999999  1.0000
  O   O43       1.0  0.36218  0.04092  0.07407  1.0000
  O   O44       1.0  0.5174300000000002  0.87027  0.02094  1.0000
  O   O45       1.0  0.7804500000000001  0.52648  0.83772  1.0000
  O   O46       1.0  0.7028300000000002  0.67923  0.90552  1.0000
  O   O47       1.0  0.2196500000000001  0.41376999999999997  0.85137  1.0000
  O   O48       1.0  0.2923599999999999  0.25756  0.9172  1.0000
