data_image0
_chemical_formula_structural       Cu18H72C36I24N12
_chemical_formula_sum              "Cu18 H72 C36 I24 N12"
_cell_length_a       16.18838
_cell_length_b       16.18008
_cell_length_c       16.18885
_cell_angle_alpha    104.55518999999998
_cell_angle_beta     104.56332999999998
_cell_angle_gamma    104.56211

_symmetry_space_group_name_H-M    'P 1'
_symmetry_Int_Tables_number       1

loop_
  _symmetry_equiv_pos_as_xyz
  'x,y,z'

loop_
  _atom_site_type_symbol
  _atom_site_label
  _atom_site_symmetry_multiplicity
  _atom_site_fract_x
  _atom_site_fract_y
  _atom_site_fract_z
  _atom_site_occupancy
  Cu  Cu1       1.0  0.42896  0.7833000000000002  0.024  1.0000
  Cu  Cu2       1.0  0.3705  0.72541  0.14629  1.0000
  Cu  Cu3       1.0  0.20403000000000002  0.5287  0.8583900000000001  1.0000
  Cu  Cu4       1.0  0.024010000000000028  0.4289100000000001  0.78326  1.0000
  Cu  Cu5       1.0  0.14625000000000002  0.37050000000000005  0.7254600000000001  1.0000
  Cu  Cu6       1.0  0.85834  0.20403  0.52873  1.0000
  Cu  Cu7       1.0  0.78329  0.02398000000000003  0.42899  1.0000
  Cu  Cu8       1.0  0.72544  0.14633  0.37051  1.0000
  Cu  Cu9       1.0  0.52875  0.8583600000000002  0.20405  1.0000
  Cu  Cu10      1.0  0.57103  0.2167  0.976  1.0000
  Cu  Cu11      1.0  0.6295  0.27459  0.85371  1.0000
  Cu  Cu12      1.0  0.7959700000000003  0.4713  0.14161  1.0000
  Cu  Cu13      1.0  0.97599  0.57109  0.21674  1.0000
  Cu  Cu14      1.0  0.85375  0.6295  0.27454  1.0000
  Cu  Cu15      1.0  0.14166000000000004  0.7959700000000001  0.47127  1.0000
  Cu  Cu16      1.0  0.21670000000000011  0.9760200000000002  0.57101  1.0000
  Cu  Cu17      1.0  0.27456  0.8536800000000002  0.62949  1.0000
  Cu  Cu18      1.0  0.47125  0.14164  0.79595  1.0000
  H   H1        1.0  0.17078  0.702  0.06272  1.0000
  H   H2        1.0  0.18758000000000002  0.5966400000000002  0.02934  1.0000
  H   H3        1.0  0.06207000000000002  0.5200300000000002  0.0612  1.0000
  H   H4        1.0  0.029309999999999992  0.61752  0.06506  1.0000
  H   H5        1.0  0.2514599999999999  0.5399500000000003  0.14721  1.0000
  H   H6        1.0  0.30903  0.615  0.26028  1.0000
  H   H7        1.0  0.17543000000000003  0.5820000000000002  0.29856  1.0000
  H   H8        1.0  0.12505000000000005  0.4911200000000001  0.19368  1.0000
  H   H9        1.0  0.28847  0.75906  0.30297  1.0000
  H   H10       1.0  0.24796  0.80576  0.21928000000000003  1.0000
  H   H11       1.0  0.09602000000000002  0.7435400000000001  0.21112  1.0000
  H   H12       1.0  0.14285  0.72238  0.31161  1.0000
  H   H13       1.0  0.06259000000000002  0.1707500000000001  0.70187  1.0000
  H   H14       1.0  0.029349999999999998  0.18778  0.59667  1.0000
  H   H15       1.0  0.061040000000000025  0.06219  0.51999  1.0000
  H   H16       1.0  0.06495000000000001  0.029249999999999984  0.61734  1.0000
  H   H17       1.0  0.14712  0.2517100000000001  0.54016  1.0000
  H   H18       1.0  0.26023  0.3092200000000001  0.61512  1.0000
  H   H19       1.0  0.29846  0.17552000000000006  0.58188  1.0000
  H   H20       1.0  0.19354  0.12529000000000007  0.4911200000000001  1.0000
  H   H21       1.0  0.30298  0.2884100000000001  0.75902  1.0000
  H   H22       1.0  0.21931  0.24779  0.80566  1.0000
  H   H23       1.0  0.21098  0.09577  0.7432  1.0000
  H   H24       1.0  0.31152  0.14266  0.72211  1.0000
  H   H25       1.0  0.7019  0.06258  0.17085  1.0000
  H   H26       1.0  0.59663  0.029290000000000004  0.18777  1.0000
  H   H27       1.0  0.51999  0.061  0.062240000000000004  1.0000
  H   H28       1.0  0.61735  0.06483  0.02937  1.0000
  H   H29       1.0  0.54002  0.14708  0.25151  1.0000
  H   H30       1.0  0.61493  0.26024  0.30901  1.0000
  H   H31       1.0  0.58189  0.2985  0.17538  1.0000
  H   H32       1.0  0.4911  0.19354  0.12513  1.0000
  H   H33       1.0  0.75899  0.30304  0.28834  1.0000
  H   H34       1.0  0.80566  0.21929  0.24785  1.0000
  H   H35       1.0  0.74332  0.21104000000000006  0.09591  1.0000
  H   H36       1.0  0.72214  0.3115900000000001  0.14271  1.0000
  H   H37       1.0  0.82922  0.29801  0.93729  1.0000
  H   H38       1.0  0.81242  0.40337  0.97066  1.0000
  H   H39       1.0  0.93793  0.47998  0.9388  1.0000
  H   H40       1.0  0.9706899999999998  0.38249  0.93494  1.0000
  H   H41       1.0  0.74854  0.4600500000000001  0.85279  1.0000
  H   H42       1.0  0.69097  0.385  0.73972  1.0000
  H   H43       1.0  0.8245699999999996  0.418  0.70144  1.0000
  H   H44       1.0  0.8749499999999998  0.50888  0.80632  1.0000
  H   H45       1.0  0.71152  0.24095000000000005  0.69703  1.0000
  H   H46       1.0  0.75204  0.19424000000000005  0.78072  1.0000
  H   H47       1.0  0.90398  0.25647  0.78888  1.0000
  H   H48       1.0  0.8571499999999997  0.2776300000000001  0.68839  1.0000
  H   H49       1.0  0.93741  0.82925  0.29814  1.0000
  H   H50       1.0  0.97065  0.8122300000000002  0.40333  1.0000
  H   H51       1.0  0.93896  0.93781  0.48001  1.0000
  H   H52       1.0  0.93505  0.97075  0.38266  1.0000
  H   H53       1.0  0.85288  0.74829  0.45984  1.0000
  H   H54       1.0  0.7397700000000001  0.6907800000000004  0.38488  1.0000
  H   H55       1.0  0.7015399999999998  0.82449  0.41812  1.0000
  H   H56       1.0  0.80646  0.8747100000000002  0.50888  1.0000
  H   H57       1.0  0.69702  0.71159  0.24098  1.0000
  H   H58       1.0  0.78069  0.75221  0.19434  1.0000
  H   H59       1.0  0.78902  0.90424  0.2568  1.0000
  H   H60       1.0  0.68848  0.8573500000000002  0.27789  1.0000
  H   H61       1.0  0.2981  0.93742  0.82915  1.0000
  H   H62       1.0  0.40337  0.97072  0.81223  1.0000
  H   H63       1.0  0.48001  0.939  0.93776  1.0000
  H   H64       1.0  0.38265  0.9351800000000001  0.97063  1.0000
  H   H65       1.0  0.45997999999999994  0.8529200000000001  0.7484900000000001  1.0000
  H   H66       1.0  0.3850700000000001  0.7397600000000002  0.69099  1.0000
  H   H67       1.0  0.41811000000000004  0.7015100000000002  0.82462  1.0000
  H   H68       1.0  0.5089  0.80647  0.87487  1.0000
  H   H69       1.0  0.2410000000000001  0.6969700000000002  0.71166  1.0000
  H   H70       1.0  0.19434000000000007  0.7807100000000002  0.75215  1.0000
  H   H71       1.0  0.25668  0.7889600000000002  0.90409  1.0000
  H   H72       1.0  0.27785  0.68841  0.85729  1.0000
  C   C1        1.0  0.17332  0.64232  0.0822  1.0000
  C   C2        1.0  0.08380999999999997  0.59357  0.09383  1.0000
  C   C3        1.0  0.24806  0.5944  0.20112  1.0000
  C   C4        1.0  0.16049  0.56439  0.22514  1.0000
  C   C5        1.0  0.23687000000000005  0.7441100000000003  0.23745000000000005  1.0000
  C   C6        1.0  0.14014  0.70978  0.24112  1.0000
  C   C7        1.0  0.08214999999999999  0.17338  0.64229  1.0000
  C   C8        1.0  0.09371999999999998  0.08383000000000003  0.59348  1.0000
  C   C9        1.0  0.20106999999999997  0.24824  0.59449  1.0000
  C   C10       1.0  0.22503999999999993  0.16062  0.56434  1.0000
  C   C11       1.0  0.23744000000000004  0.23678000000000005  0.74403  1.0000
  C   C12       1.0  0.24104000000000003  0.14000000000000007  0.70957  1.0000
  C   C13       1.0  0.64229  0.08211  0.17342  1.0000
  C   C14       1.0  0.59349  0.09368  0.08388  1.0000
  C   C15       1.0  0.5944  0.20106  0.24809  1.0000
  C   C16       1.0  0.56434  0.22505  0.1605  1.0000
  C   C17       1.0  0.74403  0.23746000000000006  0.23679  1.0000
  C   C18       1.0  0.70961  0.24107999999999996  0.14005  1.0000
  C   C19       1.0  0.82668  0.35768  0.9178  1.0000
  C   C20       1.0  0.9161900000000001  0.4064400000000002  0.9061700000000001  1.0000
  C   C21       1.0  0.7519400000000002  0.4056000000000001  0.7988800000000003  1.0000
  C   C22       1.0  0.83951  0.4356100000000001  0.77486  1.0000
  C   C23       1.0  0.7631300000000001  0.25590000000000007  0.7625500000000002  1.0000
  C   C24       1.0  0.85986  0.2902300000000001  0.75888  1.0000
  C   C25       1.0  0.91785  0.82662  0.35771000000000003  1.0000
  C   C26       1.0  0.90628  0.91617  0.40652  1.0000
  C   C27       1.0  0.79893  0.7517700000000002  0.40551  1.0000
  C   C28       1.0  0.7749600000000002  0.8393800000000002  0.4356600000000001  1.0000
  C   C29       1.0  0.7625600000000001  0.7632200000000002  0.25597  1.0000
  C   C30       1.0  0.75896  0.86  0.29043  1.0000
  C   C31       1.0  0.3577099999999999  0.91789  0.8265800000000001  1.0000
  C   C32       1.0  0.4065  0.9063299999999999  0.91612  1.0000
  C   C33       1.0  0.4056  0.7989500000000003  0.75191  1.0000
  C   C34       1.0  0.43566000000000005  0.7749500000000002  0.8395  1.0000
  C   C35       1.0  0.25597  0.76255  0.76321  1.0000
  C   C36       1.0  0.29039  0.75893  0.85995  1.0000
  I   I1        1.0  0.36121000000000014  0.6052900000000003  0.9940800000000001  1.0000
  I   I2        1.0  0.50658  0.72801  0.2764600000000001  1.0000
  I   I3        1.0  0.07666999999999996  0.60621  0.83874  1.0000
  I   I4        1.0  0.36734  0.88879  0.13311  1.0000
  I   I5        1.0  0.9940199999999999  0.36131  0.6053500000000003  1.0000
  I   I6        1.0  0.27656  0.50669  0.7283  1.0000
  I   I7        1.0  0.83879  0.07660000000000003  0.60632  1.0000
  I   I8        1.0  0.13292000000000007  0.3670700000000001  0.88864  1.0000
  I   I9        1.0  0.60543  0.99403  0.36129  1.0000
  I   I10       1.0  0.7281599999999998  0.2765700000000001  0.50669  1.0000
  I   I11       1.0  0.6062300000000002  0.8388200000000002  0.07669  1.0000
  I   I12       1.0  0.88883  0.13321  0.36743  1.0000
  I   I13       1.0  0.63879  0.39472  0.00592  1.0000
  I   I14       1.0  0.49341  0.272  0.72354  1.0000
  I   I15       1.0  0.9233299999999998  0.3937900000000001  0.16126  1.0000
  I   I16       1.0  0.63266  0.11121  0.8669  1.0000
  I   I17       1.0  0.005980000000000037  0.6387000000000003  0.39465  1.0000
  I   I18       1.0  0.72344  0.49332  0.2717  1.0000
  I   I19       1.0  0.16121000000000005  0.92341  0.39368  1.0000
  I   I20       1.0  0.86707  0.6329400000000004  0.11136  1.0000
  I   I21       1.0  0.39457  0.005979999999999984  0.63871  1.0000
  I   I22       1.0  0.27184  0.72344  0.49331  1.0000
  I   I23       1.0  0.39377  0.16118  0.92331  1.0000
  I   I24       1.0  0.11117000000000005  0.86679  0.63257  1.0000
  N   N1        1.0  0.25019  0.6729  0.16848000000000002  1.0000
  N   N2        1.0  0.09716000000000001  0.61072  0.19173  1.0000
  N   N3        1.0  0.16848  0.25024  0.67295  1.0000
  N   N4        1.0  0.19162  0.09716  0.61055  1.0000
  N   N5        1.0  0.6729  0.16848000000000005  0.25022  1.0000
  N   N6        1.0  0.61059  0.19161000000000003  0.09715  1.0000
  N   N7        1.0  0.74981  0.3271000000000001  0.83152  1.0000
  N   N8        1.0  0.90284  0.38929  0.80827  1.0000
  N   N9        1.0  0.8315200000000001  0.7497600000000002  0.32705  1.0000
  N   N10       1.0  0.80838  0.90284  0.38945  1.0000
  N   N11       1.0  0.3271  0.83153  0.74978  1.0000
  N   N12       1.0  0.38941  0.80839  0.90285  1.0000
