data_image0
_chemical_formula_structural       Cd4H72C80N24
_chemical_formula_sum              "Cd4 H72 C80 N24"
_cell_length_a       14.88254
_cell_length_b       14.927139999999998
_cell_length_c       13.27279
_cell_angle_alpha    108.31366
_cell_angle_beta     122.57178
_cell_angle_gamma    104.01933

_space_group_name_H-M_alt    "P 1"
_space_group_IT_number       1

loop_
  _space_group_symop_operation_xyz
  'x, y, z'

loop_
  _atom_site_type_symbol
  _atom_site_label
  _atom_site_symmetry_multiplicity
  _atom_site_fract_x
  _atom_site_fract_y
  _atom_site_fract_z
  _atom_site_occupancy
  Cd  Cd1       1.0  0.6438699999999998  0.0046299999999999805  0.53032  1.0000
  Cd  Cd2       1.0  0.5392399999999999  0.6259  0.19758  1.0000
  Cd  Cd3       1.0  0.02962000000000001  0.89329  0.03364  1.0000
  Cd  Cd4       1.0  0.07187  0.65881  0.69751  1.0000
  H   H1        1.0  0.42553  0.17514  0.44002  1.0000
  H   H2        1.0  0.47548  0.24802  0.32002  1.0000
  H   H3        1.0  0.3573199999999999  0.91789  0.03371  1.0000
  H   H4        1.0  0.32198  0.86156  0.17281  1.0000
  H   H5        1.0  0.30247  0.36267  0.05588  1.0000
  H   H6        1.0  0.29707  0.20518  0.08397  1.0000
  H   H7        1.0  0.5901999999999997  0.24804  0.07405  1.0000
  H   H8        1.0  0.5795399999999998  0.40034000000000003  0.04148999999999999  1.0000
  H   H9        1.0  0.23696999999999993  0.83297  0.31457  1.0000
  H   H10       1.0  0.08367999999999993  0.64437  0.21592999999999998  1.0000
  H   H11       1.0  0.34322999999999987  0.546  0.24702  1.0000
  H   H12       1.0  0.48749999999999993  0.73727  0.3562  1.0000
  H   H13       1.0  0.9421099999999997  0.10307999999999994  0.9775299999999999  1.0000
  H   H14       1.0  0.9251899999999997  0.2655  0.98044  1.0000
  H   H15       1.0  0.31972  0.46845  0.34538  1.0000
  H   H16       1.0  0.31623  0.2974  0.33201  1.0000
  H   H17       1.0  0.30242  0.6018500000000001  0.92151  1.0000
  H   H18       1.0  0.16708999999999988  0.64166  0.95713  1.0000
  H   H19       1.0  0.9548599999999998  0.29549999999999993  0.7839699999999998  1.0000
  H   H20       1.0  0.09608999999999987  0.2710299999999999  0.7508699999999998  1.0000
  H   H21       1.0  0.7338499999999998  0.48644  0.00744  1.0000
  H   H22       1.0  0.89946  0.58733  0.017589999999999998  1.0000
  H   H23       1.0  0.7955699999999998  0.27166  0.71031  1.0000
  H   H24       1.0  0.6376799999999998  0.18563  0.7162299999999999  1.0000
  H   H25       1.0  0.57642  0.8468  0.25555  1.0000
  H   H26       1.0  0.7091999999999998  0.03010000000000001  0.32506  1.0000
  H   H27       1.0  0.47594999999999993  0.9082  0.8758099999999999  1.0000
  H   H28       1.0  0.35622999999999994  0.72811  0.82567  1.0000
  H   H29       1.0  0.82216  0.36174  0.55764  1.0000
  H   H30       1.0  0.6908599999999998  0.16501  0.36484  1.0000
  H   H31       1.0  0.81349  0.2563  0.16248999999999997  1.0000
  H   H32       1.0  0.9316300000000001  0.45258  0.36076  1.0000
  H   H33       1.0  0.48739000000000005  0.09149  0.06763  1.0000
  H   H34       1.0  0.022379999999999997  0.45835  0.112  1.0000
  H   H35       1.0  0.00702999999999998  0.58271  0.9451099999999999  1.0000
  H   H36       1.0  0.66612  0.08012  0.04847  1.0000
  H   H37       1.0  0.75967  0.01802999999999999  0.9312  1.0000
  H   H38       1.0  0.5701399999999999  0.8471599999999999  0.8172399999999997  1.0000
  H   H39       1.0  0.6154699999999997  0.67599  0.53408  1.0000
  H   H40       1.0  0.8074199999999999  0.85165  0.66681  1.0000
  H   H41       1.0  0.18856  0.74976  0.55184  1.0000
  H   H42       1.0  0.37652999999999986  0.78563  0.58306  1.0000
  H   H43       1.0  0.3259199999999999  0.48386  0.5737  1.0000
  H   H44       1.0  0.13824  0.45918  0.53731  1.0000
  H   H45       1.0  0.9749099999999996  0.07358999999999996  0.8119799999999999  1.0000
  H   H46       1.0  0.06434000000000001  0.12983  0.71378  1.0000
  H   H47       1.0  0.20061999999999983  0.90635  0.7477099999999999  1.0000
  H   H48       1.0  0.11929999999999996  0.8701100000000002  0.8572299999999999  1.0000
  H   H49       1.0  0.3687699999999998  0.03557999999999999  0.4743299999999999  1.0000
  H   H50       1.0  0.20926999999999993  0.05544999999999996  0.4789999999999999  1.0000
  H   H51       1.0  0.37596999999999986  0.029319999999999905  0.8456299999999999  1.0000
  H   H52       1.0  0.5332399999999998  0.019709999999999932  0.8306499999999998  1.0000
  H   H53       1.0  0.8230999999999999  0.62113  0.4245699999999999  1.0000
  H   H54       1.0  0.81798  0.79139  0.46053  1.0000
  H   H55       1.0  0.9847499999999998  0.82817  0.27997  1.0000
  H   H56       1.0  0.9765199999999996  0.65442  0.24614  1.0000
  H   H57       1.0  0.019050000000000015  0.27232  0.50622  1.0000
  H   H58       1.0  0.9302599999999999  0.11803000000000001  0.51853  1.0000
  H   H59       1.0  0.93372  0.91283  0.20684999999999995  1.0000
  H   H60       1.0  0.024329999999999987  0.07558999999999999  0.21128999999999998  1.0000
  H   H61       1.0  0.9139599999999998  0.68617  0.76393  1.0000
  H   H62       1.0  0.79733  0.62149  0.83006  1.0000
  H   H63       1.0  0.4734  0.40147000000000005  0.37904  1.0000
  H   H64       1.0  0.6061299999999995  0.47277  0.33278  1.0000
  H   H65       1.0  0.69456  0.73554  0.05933  1.0000
  H   H66       1.0  0.69948  0.67695  0.86745  1.0000
  H   H67       1.0  0.40822  0.34929  0.6628  1.0000
  H   H68       1.0  0.40902  0.42672  0.86031  1.0000
  H   H69       1.0  0.4772399999999999  0.5815  0.56951  1.0000
  H   H70       1.0  0.14966  0.09086000000000001  0.61277  1.0000
  H   H71       1.0  0.862  0.93808  0.44598999999999994  1.0000
  H   H72       1.0  0.47073  0.38508  0.54986  1.0000
  C   C1        1.0  0.4099599999999998  0.12004999999999993  0.34799999999999986  1.0000
  C   C2        1.0  0.4363099999999999  0.16097999999999998  0.28062999999999994  1.0000
  C   C3        1.0  0.41686  0.08806999999999998  0.16406999999999997  1.0000
  C   C4        1.0  0.3741199999999999  0.97785  0.12349999999999998  1.0000
  C   C5        1.0  0.35249  0.946  0.19985  1.0000
  C   C6        1.0  0.36588999999999977  0.33543  0.06147999999999999  1.0000
  C   C7        1.0  0.36383  0.24822000000000002  0.07937  1.0000
  C   C8        1.0  0.44575999999999993  0.21412  0.08446  1.0000
  C   C9        1.0  0.5244799999999997  0.27015  0.07016  1.0000
  C   C10       1.0  0.5186399999999998  0.35609  0.052349999999999994  1.0000
  C   C11       1.0  0.25841  0.7675700000000001  0.30131  1.0000
  C   C12       1.0  0.17201999999999998  0.662  0.24418999999999996  1.0000
  C   C13       1.0  0.20018  0.5778  0.22631  1.0000
  C   C14       1.0  0.31596  0.60628  0.2654  1.0000
  C   C15       1.0  0.39708  0.7152500000000002  0.32507  1.0000
  C   C16       1.0  0.023340000000000003  0.18596  0.06118  1.0000
  C   C17       1.0  0.014429999999999991  0.27657  0.06101999999999999  1.0000
  C   C18       1.0  0.12178000000000001  0.38226000000000004  0.16388  1.0000
  C   C19       1.0  0.23383  0.38947  0.26245  1.0000
  C   C20       1.0  0.23099  0.2934  0.25449  1.0000
  C   C21       1.0  0.22240999999999997  0.53443  0.88781  1.0000
  C   C22       1.0  0.1465099999999999  0.5572399999999998  0.9089399999999999  1.0000
  C   C23       1.0  0.043579999999999966  0.47165  0.86733  1.0000
  C   C24       1.0  0.02694999999999992  0.3659899999999999  0.8118999999999998  1.0000
  C   C25       1.0  0.10840999999999985  0.35256999999999994  0.7947299999999998  1.0000
  C   C26       1.0  0.7508099999999998  0.44057  0.94403  1.0000
  C   C27       1.0  0.84516  0.49768  0.9510499999999998  1.0000
  C   C28       1.0  0.8701799999999996  0.43958999999999987  0.87189  1.0000
  C   C29       1.0  0.7902099999999996  0.3243299999999999  0.7824299999999998  1.0000
  C   C30       1.0  0.6982499999999999  0.27532  0.78356  1.0000
  C   C31       1.0  0.5566399999999998  0.86297  0.17309  1.0000
  C   C32       1.0  0.6316099999999999  0.96691  0.21300999999999995  1.0000
  C   C33       1.0  0.60442  0.98585  0.1055  1.0000
  C   C34       1.0  0.50312  0.8974999999999999  0.9634299999999999  1.0000
  C   C35       1.0  0.43508999999999987  0.79665  0.93547  1.0000
  C   C36       1.0  0.8185099999999997  0.3357299999999999  0.46835999999999994  1.0000
  C   C37       1.0  0.7458099999999998  0.22435  0.36086  1.0000
  C   C38       1.0  0.7437699999999998  0.19316  0.24781  1.0000
  C   C39       1.0  0.8129599999999999  0.27676  0.24850999999999998  1.0000
  C   C40       1.0  0.87996  0.38566  0.35935  1.0000
  C   C41       1.0  0.7237599999999998  0.94062  0.8411899999999999  1.0000
  C   C42       1.0  0.6173199999999998  0.8463599999999999  0.7771799999999998  1.0000
  C   C43       1.0  0.57489  0.74815  0.66303  1.0000
  C   C44       1.0  0.6443299999999996  0.74986  0.62196  1.0000
  C   C45       1.0  0.7505499999999998  0.84849  0.69477  1.0000
  C   C46       1.0  0.2223799999999999  0.69271  0.55804  1.0000
  C   C47       1.0  0.32879999999999987  0.71402  0.57781  1.0000
  C   C48       1.0  0.3692  0.63816  0.58396  1.0000
  C   C49       1.0  0.2988  0.54479  0.5689  1.0000
  C   C50       1.0  0.19359999999999994  0.53131  0.54902  1.0000
  C   C51       1.0  0.02912  0.04093000000000002  0.80037  1.0000
  C   C52       1.0  0.07719999999999998  0.07095000000000004  0.74328  1.0000
  C   C53       1.0  0.14547999999999983  0.026979999999999872  0.7265299999999998  1.0000
  C   C54       1.0  0.15779000000000007  0.9509700000000001  0.766  1.0000
  C   C55       1.0  0.10882999999999994  0.92881  0.8257699999999999  1.0000
  C   C56       1.0  0.37032999999999994  0.03893  0.55868  1.0000
  C   C57       1.0  0.27984  0.047729999999999995  0.55967  1.0000
  C   C58       1.0  0.2784799999999999  0.04418999999999995  0.66359  1.0000
  C   C59       1.0  0.3709999999999999  0.031689999999999996  0.76208  1.0000
  C   C60       1.0  0.45882000000000006  0.02659000000000005  0.75308  1.0000
  C   C61       1.0  0.8550000000000001  0.66664  0.38914  1.0000
  C   C62       1.0  0.8527599999999997  0.76329  0.41042999999999996  1.0000
  C   C63       1.0  0.89472  0.82377  0.36693  1.0000
  C   C64       1.0  0.9435999999999998  0.78463  0.30943  1.0000
  C   C65       1.0  0.94028  0.68631  0.29204  1.0000
  C   C66       1.0  0.0011299999999999709  0.19189999999999996  0.4425299999999999  1.0000
  C   C67       1.0  0.95208  0.10514999999999997  0.4507  1.0000
  C   C68       1.0  0.9299699999999995  0.000759999999999983  0.37068  1.0000
  C   C69       1.0  0.9538700000000001  0.99045  0.27948  1.0000
  C   C70       1.0  0.0032799999999999934  0.08308  0.27983  1.0000
  C   C71       1.0  0.8154  0.6223900000000001  0.68037  1.0000
  C   C72       1.0  0.7498099999999998  0.58644  0.71836  1.0000
  C   C73       1.0  0.6235399999999998  0.50451  0.60953  1.0000
  C   C74       1.0  0.5715  0.46322  0.46804  1.0000
  C   C75       1.0  0.64593  0.50434  0.44209  1.0000
  C   C76       1.0  0.63222  0.64996  0.96985  1.0000
  C   C77       1.0  0.6367099999999999  0.6166400000000001  0.86275  1.0000
  C   C78       1.0  0.55623  0.50562  0.74952  1.0000
  C   C79       1.0  0.47322999999999993  0.43579999999999997  0.7491599999999999  1.0000
  C   C80       1.0  0.4745299999999999  0.47819  0.85972  1.0000
  N   N1        1.0  0.4413399999999998  0.39  0.0481  1.0000
  N   N2        1.0  0.44498  0.12383  0.094  1.0000
  N   N3        1.0  0.3681899999999999  0.01465  0.30979  1.0000
  N   N4        1.0  0.37211  0.79658  0.34485  1.0000
  N   N5        1.0  0.11053000000000003  0.47254  0.16633  1.0000
  N   N6        1.0  0.12981  0.19208  0.15695  1.0000
  N   N7        1.0  0.20363  0.43246  0.82798  1.0000
  N   N8        1.0  0.96882  0.49977  0.8871099999999998  1.0000
  N   N9        1.0  0.6775699999999998  0.32997  0.86361  1.0000
  N   N10       1.0  0.45955999999999997  0.77814  0.03797999999999999  1.0000
  N   N11       1.0  0.67076  0.08598  0.12972  1.0000
  N   N12       1.0  0.8856599999999999  0.41627999999999993  0.47067999999999993  1.0000
  N   N13       1.0  0.15429  0.60342  0.54371  1.0000
  N   N14       1.0  0.47047  0.64973  0.59559  1.0000
  N   N15       1.0  0.7903600000000001  0.94381  0.80196  1.0000
  N   N16       1.0  0.045939999999999946  0.97203  0.8450799999999998  1.0000
  N   N17       1.0  0.19078999999999993  0.057640000000000045  0.66717  1.0000
  N   N18       1.0  0.4611499999999999  0.02923000000000001  0.65443  1.0000
  N   N19       1.0  0.8955299999999996  0.62511  0.32713  1.0000
  N   N20       1.0  0.8857699999999997  0.9178199999999999  0.38667  1.0000
  N   N21       1.0  0.029540000000000014  0.18395  0.36039  1.0000
  N   N22       1.0  0.7667799999999998  0.58383  0.5458799999999999  1.0000
  N   N23       1.0  0.5465399999999998  0.46142999999999995  0.6321899999999999  1.0000
  N   N24       1.0  0.5544499999999998  0.58365  0.97156  1.0000
