data_image0
_chemical_formula_structural       Cu6H24C84N24O72
_chemical_formula_sum              "Cu6 H24 C84 N24 O72"
_cell_length_a       10.6313
_cell_length_b       27.12747
_cell_length_c       27.126949999999997
_cell_angle_alpha    118.12976
_cell_angle_beta     97.56866
_cell_angle_gamma    97.52161

_symmetry_space_group_name_H-M    'P 1'
_symmetry_Int_Tables_number       1

loop_
  _symmetry_equiv_pos_as_xyz
  'x,y,z'

loop_
  _atom_site_type_symbol
  _atom_site_label
  _atom_site_symmetry_multiplicity
  _atom_site_fract_x
  _atom_site_fract_y
  _atom_site_fract_z
  _atom_site_occupancy
  Cu  Cu1       1.0  0.57442  9.999999999963043e-06  0.46879999999999994  1.0000
  Cu  Cu2       1.0  0.10576  0.53109  0.5311  1.0000
  Cu  Cu3       1.0  0.57407  0.46861  0.00014  1.0000
  Cu  Cu4       1.0  0.42557  0.99999  0.5312  1.0000
  Cu  Cu5       1.0  0.89424  0.46891  0.46889999999999993  1.0000
  Cu  Cu6       1.0  0.42592  0.53139  0.99986  1.0000
  H   H1        1.0  0.08805999999999992  0.87054  0.40892  1.0000
  H   H2        1.0  0.35003999999999996  0.8719199999999999  0.30041  1.0000
  H   H3        1.0  0.9123399999999999  0.59126  0.1296  1.0000
  H   H4        1.0  0.6500799999999999  0.6995600000000001  0.12752  1.0000
  H   H5        1.0  0.67835  0.59032  0.46191999999999994  1.0000
  H   H6        1.0  0.04842999999999997  0.69961  0.57157  1.0000
  H   H7        1.0  0.78402  0.87016  0.46112  1.0000
  H   H8        1.0  0.52328  0.8728100000000001  0.57136  1.0000
  H   H9        1.0  0.21631999999999998  0.53895  0.12973  1.0000
  H   H10       1.0  0.47798999999999997  0.42921  0.12791  1.0000
  H   H11       1.0  0.32174  0.53802  0.40965  1.0000
  H   H12       1.0  0.95144  0.42853  0.30034  1.0000
  H   H13       1.0  0.91194  0.12946  0.59108  1.0000
  H   H14       1.0  0.64995  0.12808000000000005  0.6996  1.0000
  H   H15       1.0  0.08765  0.40874000000000016  0.87041  1.0000
  H   H16       1.0  0.34992  0.30044  0.87249  1.0000
  H   H17       1.0  0.32165  0.40968  0.53808  1.0000
  H   H18       1.0  0.95156  0.30038999999999993  0.4284299999999999  1.0000
  H   H19       1.0  0.21597999999999998  0.12984  0.53888  1.0000
  H   H20       1.0  0.47672  0.12720000000000006  0.42864  1.0000
  H   H21       1.0  0.78367  0.46105  0.87027  1.0000
  H   H22       1.0  0.522  0.57079  0.8721  1.0000
  H   H23       1.0  0.67825  0.4619800000000001  0.59035  1.0000
  H   H24       1.0  0.04854999999999998  0.57147  0.69966  1.0000
  C   C1        1.0  0.33035999999999993  0.9223899999999999  0.41218  1.0000
  C   C2        1.0  0.23136999999999988  0.87632  0.36084  1.0000
  C   C3        1.0  0.95252  0.73696  0.21335  1.0000
  C   C4        1.0  0.0238800000000001  0.8096400000000002  0.3189  1.0000
  C   C5        1.0  0.04690000000000005  0.7866700000000002  0.26323  1.0000
  C   C6        1.0  0.11173999999999999  0.85414  0.367  1.0000
  C   C7        1.0  0.25818  0.85502  0.30624  1.0000
  C   C8        1.0  0.16604  0.81192  0.25877  1.0000
  C   C9        1.0  0.88821  0.6331000000000001  0.1458  1.0000
  C   C10       1.0  0.7685199999999999  0.63916  0.12356  1.0000
  C   C11       1.0  0.97582  0.68131  0.19027999999999998  1.0000
  C   C12       1.0  0.74171  0.69375  0.1447  1.0000
  C   C13       1.0  0.8334099999999999  0.7413500000000001  0.1879  1.0000
  C   C14       1.0  0.6696799999999999  0.58785  0.07741  1.0000
  C   C15       1.0  0.9170999999999999  0.58747  0.5101  1.0000
  C   C16       1.0  0.8694299999999999  0.63884  0.51556  1.0000
  C   C17       1.0  0.7376599999999999  0.7859900000000001  0.52291  1.0000
  C   C18       1.0  0.7027499999999999  0.68044  0.49106999999999995  1.0000
  C   C19       1.0  0.7813399999999999  0.73614  0.52328  1.0000
  C   C20       1.0  0.7432499999999997  0.63243  0.48740999999999995  1.0000
  C   C21       1.0  0.9505299999999999  0.6935  0.5488  1.0000
  C   C22       1.0  0.905  0.7408  0.553  1.0000
  C   C23       1.0  0.74323  0.85388  0.48671  1.0000
  C   C24       1.0  0.64611  0.87631  0.51496  1.0000
  C   C25       1.0  0.78514  0.8091100000000001  0.49047  1.0000
  C   C26       1.0  0.59714  0.85517  0.54835  1.0000
  C   C27       1.0  0.64438  0.8116  0.55258  1.0000
  C   C28       1.0  0.59446  0.9226700000000001  0.50973  1.0000
  C   C29       1.0  0.40742  0.49047  0.07773  1.0000
  C   C30       1.0  0.35489000000000004  0.48540000000000005  0.124  1.0000
  C   C31       1.0  0.21838999999999997  0.47684  0.26384  1.0000
  C   C32       1.0  0.21472  0.50954  0.19074  1.0000
  C   C33       1.0  0.26212  0.47715  0.21397  1.0000
  C   C34       1.0  0.25719  0.51344  0.14612  1.0000
  C   C35       1.0  0.40365  0.45203  0.14526  1.0000
  C   C36       1.0  0.35573999999999995  0.44759  0.18858  1.0000
  C   C37       1.0  0.25670999999999994  0.51258  0.36755  1.0000
  C   C38       1.0  0.13054  0.48448  0.36116  1.0000
  C   C39       1.0  0.29704  0.50897  0.31953  1.0000
  C   C40       1.0  0.04938  0.45126  0.30647  1.0000
  C   C41       1.0  0.09482000000000004  0.4471100000000001  0.25918  1.0000
  C   C42       1.0  0.08296999999999995  0.48993999999999993  0.4125499999999999  1.0000
  C   C43       1.0  0.66963  0.07761000000000001  0.58782  1.0000
  C   C44       1.0  0.7686199999999999  0.12368  0.63916  1.0000
  C   C45       1.0  0.047479999999999946  0.2630399999999999  0.78666  1.0000
  C   C46       1.0  0.9761099999999999  0.19036  0.6811  1.0000
  C   C47       1.0  0.9530899999999998  0.21332999999999985  0.7367699999999999  1.0000
  C   C48       1.0  0.88825  0.14585999999999993  0.63301  1.0000
  C   C49       1.0  0.74181  0.14497999999999994  0.69376  1.0000
  C   C50       1.0  0.8339499999999999  0.18808  0.74124  1.0000
  C   C51       1.0  0.11178999999999997  0.3669  0.8542  1.0000
  C   C52       1.0  0.23146999999999993  0.36083999999999994  0.8764399999999999  1.0000
  C   C53       1.0  0.02416999999999992  0.31869  0.80973  1.0000
  C   C54       1.0  0.25829000000000013  0.3062500000000001  0.85531  1.0000
  C   C55       1.0  0.16659  0.25865  0.81211  1.0000
  C   C56       1.0  0.3303199999999999  0.41214999999999996  0.9225899999999999  1.0000
  C   C57       1.0  0.08289000000000006  0.41254000000000013  0.4899  1.0000
  C   C58       1.0  0.13057  0.36116  0.48445  1.0000
  C   C59       1.0  0.26232999999999995  0.21400999999999998  0.47709999999999997  1.0000
  C   C60       1.0  0.29725  0.31956  0.50893  1.0000
  C   C61       1.0  0.21865999999999997  0.26385999999999993  0.4767199999999999  1.0000
  C   C62       1.0  0.25674  0.36757  0.51259  1.0000
  C   C63       1.0  0.04946  0.3065  0.4512  1.0000
  C   C64       1.0  0.09499999999999999  0.25921  0.447  1.0000
  C   C65       1.0  0.25676  0.14612  0.51329  1.0000
  C   C66       1.0  0.3538899999999999  0.12369  0.48503999999999997  1.0000
  C   C67       1.0  0.21485999999999997  0.19089  0.50954  1.0000
  C   C68       1.0  0.40286  0.14483  0.45165  1.0000
  C   C69       1.0  0.35562  0.1884  0.44743  1.0000
  C   C70       1.0  0.40554  0.07732999999999998  0.49028  1.0000
  C   C71       1.0  0.59258  0.50953  0.92227  1.0000
  C   C72       1.0  0.6451  0.51461  0.876  1.0000
  C   C73       1.0  0.7816099999999999  0.5231599999999998  0.7361699999999999  1.0000
  C   C74       1.0  0.78527  0.49046  0.80927  1.0000
  C   C75       1.0  0.7378699999999999  0.52285  0.78603  1.0000
  C   C76       1.0  0.74281  0.48657000000000006  0.85389  1.0000
  C   C77       1.0  0.5963500000000002  0.5479700000000002  0.85475  1.0000
  C   C78       1.0  0.64426  0.55241  0.81142  1.0000
  C   C79       1.0  0.74329  0.48742  0.63245  1.0000
  C   C80       1.0  0.86945  0.51552  0.63885  1.0000
  C   C81       1.0  0.7029499999999999  0.49103  0.68047  1.0000
  C   C82       1.0  0.95061  0.54874  0.69354  1.0000
  C   C83       1.0  0.9051699999999998  0.5528899999999999  0.74083  1.0000
  C   C84       1.0  0.9170199999999998  0.51007  0.58745  1.0000
  N   N1        1.0  0.90003  0.7870900000000001  0.3278  1.0000
  N   N2        1.0  0.80232  0.7983  0.20604999999999998  1.0000
  N   N3        1.0  0.09967000000000001  0.6723600000000001  0.21289  1.0000
  N   N4        1.0  0.19724999999999984  0.79292  0.2018  1.0000
  N   N5        1.0  0.56996  0.67155  0.45983  1.0000
  N   N6        1.0  0.5953299999999998  0.79323  0.59124  1.0000
  N   N7        1.0  0.88657  0.78636  0.45947  1.0000
  N   N8        1.0  0.99135  0.79799  0.5914  1.0000
  N   N9        1.0  0.11308  0.54049  0.21341  1.0000
  N   N10       1.0  0.00835000000000002  0.40888  0.20197  1.0000
  N   N11       1.0  0.42983999999999994  0.54003  0.32836  1.0000
  N   N12       1.0  0.40485  0.40892999999999996  0.20698999999999998  1.0000
  N   N13       1.0  0.09995999999999998  0.21292000000000003  0.6722  1.0000
  N   N14       1.0  0.19768  0.20170000000000007  0.79395  1.0000
  N   N15       1.0  0.9003199999999999  0.32764  0.78712  1.0000
  N   N16       1.0  0.80275  0.20709  0.7982  1.0000
  N   N17       1.0  0.4300399999999999  0.32845  0.54017  1.0000
  N   N18       1.0  0.40466  0.20677000000000006  0.40876  1.0000
  N   N19       1.0  0.11342  0.21363999999999997  0.54054  1.0000
  N   N20       1.0  0.008650000000000007  0.20202  0.40861  1.0000
  N   N21       1.0  0.88691  0.45951  0.78659  1.0000
  N   N22       1.0  0.9916499999999999  0.59112  0.7980299999999999  1.0000
  N   N23       1.0  0.57015  0.45997  0.67164  1.0000
  N   N24       1.0  0.5951499999999997  0.5910699999999999  0.79301  1.0000
  O   O1        1.0  0.43753  0.94005  0.40295999999999993  1.0000
  O   O2        1.0  0.8494600000000002  0.8228700000000001  0.36293  1.0000
  O   O3        1.0  0.8556699999999999  0.73465  0.29984  1.0000
  O   O4        1.0  0.29963  0.93993  0.4608  1.0000
  O   O5        1.0  0.56255  0.59718  0.05984999999999999  1.0000
  O   O6        1.0  0.70053  0.53924  0.05973  1.0000
  O   O7        1.0  0.89428  0.84087  0.23332  1.0000
  O   O8        1.0  0.6876299999999999  0.79963  0.19233  1.0000
  O   O9        1.0  0.15024999999999994  0.63722  0.17712  1.0000
  O   O10       1.0  0.14414999999999994  0.70027  0.26532  1.0000
  O   O11       1.0  0.10460000000000001  0.76744  0.1594  1.0000
  O   O12       1.0  0.3128799999999999  0.80393  0.20031  1.0000
  O   O13       1.0  0.03337000000000004  0.5966100000000001  0.53702  1.0000
  O   O14       1.0  0.48322  0.63767  0.46198999999999996  1.0000
  O   O15       1.0  0.55498  0.69864  0.43417  1.0000
  O   O16       1.0  0.83769  0.53887  0.47886999999999996  1.0000
  O   O17       1.0  0.50548  0.9405700000000001  0.53675  1.0000
  O   O18       1.0  0.64316  0.94028  0.47867999999999994  1.0000
  O   O19       1.0  0.66198  0.76718  0.60767  1.0000
  O   O20       1.0  0.49268999999999996  0.80556  0.60515  1.0000
  O   O21       1.0  0.97619  0.8222500000000001  0.46190999999999993  1.0000
  O   O22       1.0  0.87526  0.73372  0.43368  1.0000
  O   O23       1.0  0.9394799999999998  0.8399  0.60797  1.0000
  O   O24       1.0  0.10853000000000007  0.8001200000000002  0.60486  1.0000
  O   O25       1.0  0.49524  0.46273  0.059619999999999986  1.0000
  O   O26       1.0  0.023180000000000013  0.53787  0.17749  1.0000
  O   O27       1.0  0.12461000000000004  0.56642  0.26606  1.0000
  O   O28       1.0  0.36058  0.52206  0.06036999999999999  1.0000
  O   O29       1.0  0.96673  0.46301  0.40338999999999997  1.0000
  O   O30       1.0  0.1623699999999999  0.5211599999999998  0.46115999999999996  1.0000
  O   O31       1.0  0.060399999999999975  0.39178  0.16011  1.0000
  O   O32       1.0  0.89091  0.39613  0.19977  1.0000
  O   O33       1.0  0.5163399999999999  0.53802  0.36247  1.0000
  O   O34       1.0  0.4451899999999999  0.56539  0.30103  1.0000
  O   O35       1.0  0.33797999999999995  0.39237  0.23287  1.0000
  O   O36       1.0  0.50767  0.39514  0.19481  1.0000
  O   O37       1.0  0.56246  0.05995000000000001  0.59704  1.0000
  O   O38       1.0  0.15053000000000005  0.17714  0.63708  1.0000
  O   O39       1.0  0.14432  0.26536  0.70016  1.0000
  O   O40       1.0  0.70036  0.06007  0.53921  1.0000
  O   O41       1.0  0.43745  0.40282  0.94016  1.0000
  O   O42       1.0  0.29945999999999995  0.46076999999999996  0.9402699999999999  1.0000
  O   O43       1.0  0.10572  0.15913  0.76669  1.0000
  O   O44       1.0  0.31237  0.20037  0.80767  1.0000
  O   O45       1.0  0.84975  0.36278  0.82288  1.0000
  O   O46       1.0  0.85584  0.2997299999999999  0.7346799999999999  1.0000
  O   O47       1.0  0.8954  0.23256  0.84061  1.0000
  O   O48       1.0  0.6871099999999999  0.19607  0.7997  1.0000
  O   O49       1.0  0.9666199999999999  0.40338999999999997  0.46297999999999995  1.0000
  O   O50       1.0  0.5167799999999999  0.36233  0.53802  1.0000
  O   O51       1.0  0.44501  0.30136  0.56583  1.0000
  O   O52       1.0  0.16231  0.46113  0.52113  1.0000
  O   O53       1.0  0.49452  0.05942999999999999  0.46326  1.0000
  O   O54       1.0  0.35684  0.05972  0.52133  1.0000
  O   O55       1.0  0.33801  0.23282000000000003  0.39233  1.0000
  O   O56       1.0  0.50731  0.19444000000000006  0.39486  1.0000
  O   O57       1.0  0.023810000000000036  0.17775000000000005  0.53809  1.0000
  O   O58       1.0  0.12474  0.26628  0.56632  1.0000
  O   O59       1.0  0.06052000000000001  0.16010000000000002  0.39203  1.0000
  O   O60       1.0  0.89146  0.19988  0.39515  1.0000
  O   O61       1.0  0.50476  0.53727  0.94038  1.0000
  O   O62       1.0  0.9768099999999998  0.46212999999999993  0.8225199999999999  1.0000
  O   O63       1.0  0.87539  0.43358  0.73394  1.0000
  O   O64       1.0  0.63941  0.47795  0.93963  1.0000
  O   O65       1.0  0.03326999999999999  0.537  0.59661  1.0000
  O   O66       1.0  0.8376199999999998  0.47884  0.53885  1.0000
  O   O67       1.0  0.9395899999999998  0.6082199999999998  0.8398899999999999  1.0000
  O   O68       1.0  0.10908  0.60387  0.80023  1.0000
  O   O69       1.0  0.4836600000000001  0.46199000000000007  0.63753  1.0000
  O   O70       1.0  0.5548100000000001  0.43461  0.69898  1.0000
  O   O71       1.0  0.66202  0.60764  0.76713  1.0000
  O   O72       1.0  0.49232999999999993  0.60486  0.8052  1.0000
