data_image0
_chemical_formula_structural       La4H48C96N24O24
_chemical_formula_sum              "La4 H48 C96 N24 O24"
_cell_length_a       4.47217
_cell_length_b       19.28234
_cell_length_c       30.461019999999998
_cell_angle_alpha    89.92464
_cell_angle_beta     81.23563
_cell_angle_gamma    89.96105

_symmetry_space_group_name_H-M    'P 1'
_symmetry_Int_Tables_number       1

loop_
  _symmetry_equiv_pos_as_xyz
  'x,y,z'

loop_
  _atom_site_type_symbol
  _atom_site_label
  _atom_site_symmetry_multiplicity
  _atom_site_fract_x
  _atom_site_fract_y
  _atom_site_fract_z
  _atom_site_occupancy
  La  La1       1.0  0.7976700000000002  0.89955  0.52154  1.0000
  La  La2       1.0  0.2041200000000001  0.39871  0.97844  1.0000
  La  La3       1.0  0.2023300000000002  0.10046  0.4784599999999999  1.0000
  La  La4       1.0  0.79588  0.60129  0.02156  1.0000
  H   H1        1.0  0.7304499999999999  0.6780600000000001  0.50687  1.0000
  H   H2        1.0  0.47750000000000004  0.51998  0.41999  1.0000
  H   H3        1.0  0.08763999999999998  0.5993  0.39818  1.0000
  H   H4        1.0  0.014940000000000054  0.7165200000000002  0.43065  1.0000
  H   H5        1.0  0.8504299999999999  0.81577  0.6691  1.0000
  H   H6        1.0  0.38225000000000003  0.88762  0.76616  1.0000
  H   H7        1.0  0.7079  0.9556300000000002  0.70685  1.0000
  H   H8        1.0  0.58917  0.95465  0.62972  1.0000
  H   H9        1.0  0.62936  0.6759  0.88696  1.0000
  H   H10       1.0  0.08307000000000009  0.65485  0.7833  1.0000
  H   H11       1.0  0.7900400000000001  0.55954  0.82565  1.0000
  H   H12       1.0  0.9299400000000003  0.52285  0.8990299999999998  1.0000
  H   H13       1.0  0.2739899999999999  0.17743  0.99333  1.0000
  H   H14       1.0  0.5207700000000001  0.018790000000000005  0.0807  1.0000
  H   H15       1.0  0.9129600000000001  0.09731  0.10222  1.0000
  H   H16       1.0  0.9884200000000001  0.21454000000000004  0.0699  1.0000
  H   H17       1.0  0.15275000000000005  0.31478  0.8307299999999999  1.0000
  H   H18       1.0  0.6173000000000001  0.38784  0.73426  1.0000
  H   H19       1.0  0.29276000000000024  0.45513  0.7939499999999998  1.0000
  H   H20       1.0  0.41442000000000007  0.45345000000000013  0.8708899999999999  1.0000
  H   H21       1.0  0.3707  0.17565  0.61309  1.0000
  H   H22       1.0  0.9155600000000003  0.15408  0.7169199999999999  1.0000
  H   H23       1.0  0.21154999999999988  0.05947000000000001  0.67438  1.0000
  H   H24       1.0  0.07615000000000008  0.02378  0.60068  1.0000
  H   H25       1.0  0.26955  0.32194000000000006  0.49313  1.0000
  H   H26       1.0  0.5224899999999999  0.48003000000000007  0.58002  1.0000
  H   H27       1.0  0.9123600000000001  0.4007  0.60182  1.0000
  H   H28       1.0  0.9850600000000002  0.28349  0.56935  1.0000
  H   H29       1.0  0.14956000000000003  0.18423000000000006  0.3309  1.0000
  H   H30       1.0  0.61775  0.11239000000000002  0.23384  1.0000
  H   H31       1.0  0.29209999999999997  0.04438  0.29315  1.0000
  H   H32       1.0  0.41083000000000014  0.04536  0.37027999999999994  1.0000
  H   H33       1.0  0.37064  0.32410000000000005  0.11304  1.0000
  H   H34       1.0  0.9169300000000001  0.34515  0.21671  1.0000
  H   H35       1.0  0.20996000000000006  0.44046  0.17434999999999995  1.0000
  H   H36       1.0  0.07006  0.47715  0.10097  1.0000
  H   H37       1.0  0.72601  0.8225800000000002  0.00667  1.0000
  H   H38       1.0  0.47922999999999993  0.9812200000000001  0.9193  1.0000
  H   H39       1.0  0.08704000000000008  0.9027  0.89778  1.0000
  H   H40       1.0  0.011570000000000118  0.78547  0.9300999999999999  1.0000
  H   H41       1.0  0.8472499999999998  0.68523  0.16928  1.0000
  H   H42       1.0  0.38270000000000015  0.6121700000000001  0.26574  1.0000
  H   H43       1.0  0.70724  0.54488  0.20605  1.0000
  H   H44       1.0  0.5855800000000001  0.54655  0.12911  1.0000
  H   H45       1.0  0.6293  0.82435  0.38691  1.0000
  H   H46       1.0  0.08444  0.84593  0.28308  1.0000
  H   H47       1.0  0.7884400000000001  0.9405400000000003  0.3256199999999999  1.0000
  H   H48       1.0  0.9238400000000001  0.97622  0.39932  1.0000
  C   C1        1.0  0.33148  0.7746  0.49126  1.0000
  C   C2        1.0  0.37543999999999994  0.7056700000000001  0.46998  1.0000
  C   C3        1.0  0.58986  0.66089  0.4829  1.0000
  C   C4        1.0  0.6263099999999999  0.59314  0.46563  1.0000
  C   C5        1.0  0.4517100000000001  0.57217  0.43337  1.0000
  C   C6        1.0  0.23847000000000004  0.61716  0.42061  1.0000
  C   C7        1.0  0.19437  0.6833600000000002  0.43916  1.0000
  C   C8        1.0  0.82565  0.54436  0.48395  1.0000
  C   C9        1.0  0.12663000000000005  0.88595  0.60004  1.0000
  C   C10       1.0  0.2129  0.88609  0.64482  1.0000
  C   C11       1.0  0.025150000000000068  0.8493500000000002  0.67809  1.0000
  C   C12       1.0  0.09696999999999999  0.8473300000000001  0.72177  1.0000
  C   C13       1.0  0.34764  0.8836500000000002  0.73173  1.0000
  C   C14       1.0  0.53682  0.9205600000000002  0.69806  1.0000
  C   C15       1.0  0.45939  0.923  0.6552  1.0000
  C   C16       1.0  0.8968  0.80783  0.7543499999999999  1.0000
  C   C17       1.0  0.5494299999999999  0.7240300000000001  0.80553  1.0000
  C   C18       1.0  0.37967999999999996  0.57057  0.93801  1.0000
  C   C19       1.0  0.29571000000000003  0.59378  0.89545  1.0000
  C   C20       1.0  0.46675000000000005  0.6467  0.8715  1.0000
  C   C21       1.0  0.37665000000000004  0.67016  0.83157  1.0000
  C   C22       1.0  0.13178000000000004  0.63966  0.81573  1.0000
  C   C23       1.0  0.9556200000000001  0.58864  0.8406  1.0000
  C   C24       1.0  0.04884000000000011  0.5645300000000002  0.87993  1.0000
  C   C25       1.0  0.66956  0.27379000000000003  0.0094  1.0000
  C   C26       1.0  0.62769  0.20451000000000003  0.03045  1.0000
  C   C27       1.0  0.41324  0.15996  0.01744  1.0000
  C   C28       1.0  0.37467000000000006  0.09223  0.03477  1.0000
  C   C29       1.0  0.5480300000000001  0.07092000000000002  0.06716  1.0000
  C   C30       1.0  0.76232  0.11556000000000001  0.07984  1.0000
  C   C31       1.0  0.8082600000000002  0.1818  0.06128  1.0000
  C   C32       1.0  0.17492  0.04392  0.01623  1.0000
  C   C33       1.0  0.87926  0.38331  0.90005  1.0000
  C   C34       1.0  0.7907400000000001  0.38471000000000005  0.85542  1.0000
  C   C35       1.0  0.9773900000000002  0.3484  0.8219099999999999  1.0000
  C   C36       1.0  0.9046500000000001  0.34699  0.7782799999999999  1.0000
  C   C37       1.0  0.6529699999999999  0.38341  0.76863  1.0000
  C   C38       1.0  0.46452000000000004  0.41995000000000005  0.80256  1.0000
  C   C39       1.0  0.54351  0.42185  0.84535  1.0000
  C   C40       1.0  0.10453000000000003  0.30771  0.74557  1.0000
  C   C41       1.0  0.45084999999999986  0.22371000000000002  0.69445  1.0000
  C   C42       1.0  0.62219  0.07057000000000001  0.56182  1.0000
  C   C43       1.0  0.7063900000000001  0.09376000000000001  0.60438  1.0000
  C   C44       1.0  0.5341500000000001  0.14646  0.62844  1.0000
  C   C45       1.0  0.6235700000000001  0.16984000000000002  0.6684099999999998  1.0000
  C   C46       1.0  0.8682799999999999  0.13930000000000003  0.68435  1.0000
  C   C47       1.0  0.046089999999999985  0.08869000000000002  0.6594  1.0000
  C   C48       1.0  0.95435  0.06488  0.61991  1.0000
  C   C49       1.0  0.66852  0.22541  0.50874  1.0000
  C   C50       1.0  0.62456  0.29434  0.53002  1.0000
  C   C51       1.0  0.41014000000000006  0.33912000000000003  0.5171  1.0000
  C   C52       1.0  0.37369  0.40687  0.53437  1.0000
  C   C53       1.0  0.54829  0.42784000000000005  0.56663  1.0000
  C   C54       1.0  0.7615299999999999  0.38285  0.57939  1.0000
  C   C55       1.0  0.8056199999999999  0.31664000000000003  0.56084  1.0000
  C   C56       1.0  0.1743500000000001  0.45564  0.51605  1.0000
  C   C57       1.0  0.8733700000000001  0.11406  0.39996  1.0000
  C   C58       1.0  0.7871  0.11392  0.35518  1.0000
  C   C59       1.0  0.9748500000000001  0.15065  0.32191  1.0000
  C   C60       1.0  0.9030300000000001  0.15268000000000004  0.27823  1.0000
  C   C61       1.0  0.65236  0.11635  0.26827  1.0000
  C   C62       1.0  0.4631800000000001  0.07945  0.30194  1.0000
  C   C63       1.0  0.5405999999999999  0.07701000000000001  0.3448  1.0000
  C   C64       1.0  0.1032  0.19218  0.24565  1.0000
  C   C65       1.0  0.4505700000000001  0.27598  0.19447  1.0000
  C   C66       1.0  0.6203200000000001  0.42944  0.062  1.0000
  C   C67       1.0  0.70429  0.4062300000000001  0.10456  1.0000
  C   C68       1.0  0.53325  0.3533100000000001  0.1285  1.0000
  C   C69       1.0  0.6233500000000001  0.3298500000000001  0.16843  1.0000
  C   C70       1.0  0.86822  0.3603500000000001  0.18427  1.0000
  C   C71       1.0  0.04438  0.41136000000000006  0.1594  1.0000
  C   C72       1.0  0.95115  0.43548  0.12007  1.0000
  C   C73       1.0  0.33043999999999996  0.72622  0.9906  1.0000
  C   C74       1.0  0.3723100000000001  0.7955  0.96955  1.0000
  C   C75       1.0  0.58676  0.8400500000000001  0.98256  1.0000
  C   C76       1.0  0.62533  0.9077800000000001  0.96523  1.0000
  C   C77       1.0  0.45196000000000003  0.9290900000000001  0.93284  1.0000
  C   C78       1.0  0.23767000000000005  0.8844500000000001  0.92016  1.0000
  C   C79       1.0  0.19174000000000027  0.81821  0.9387199999999998  1.0000
  C   C80       1.0  0.8250800000000001  0.95608  0.98377  1.0000
  C   C81       1.0  0.12074  0.6167  0.09996  1.0000
  C   C82       1.0  0.20926000000000008  0.6153  0.14458  1.0000
  C   C83       1.0  0.022609999999999998  0.6516  0.17809  1.0000
  C   C84       1.0  0.09535000000000007  0.65302  0.22172  1.0000
  C   C85       1.0  0.34703  0.6166000000000001  0.23137  1.0000
  C   C86       1.0  0.53548  0.5800600000000001  0.19744  1.0000
  C   C87       1.0  0.45648999999999995  0.57816  0.15464999999999998  1.0000
  C   C88       1.0  0.89547  0.69229  0.25443  1.0000
  C   C89       1.0  0.5491500000000001  0.7763  0.30555  1.0000
  C   C90       1.0  0.37781  0.92944  0.43818  1.0000
  C   C91       1.0  0.29361000000000004  0.90625  0.39563  1.0000
  C   C92       1.0  0.46585000000000004  0.8535500000000001  0.37156  1.0000
  C   C93       1.0  0.37642999999999993  0.83017  0.33159  1.0000
  C   C94       1.0  0.13171999999999995  0.86071  0.31565  1.0000
  C   C95       1.0  0.95391  0.9113200000000001  0.34061  1.0000
  C   C96       1.0  0.04565000000000003  0.93513  0.38009  1.0000
  N   N1        1.0  0.82563  0.47737  0.46972  1.0000
  N   N2        1.0  0.9969999999999999  0.5674700000000001  0.51403  1.0000
  N   N3        1.0  0.6562  0.7788900000000001  0.73908  1.0000
  N   N4        1.0  0.46326  0.74045  0.76574  1.0000
  N   N5        1.0  0.7743799999999998  0.7571200000000001  0.82239  1.0000
  N   N6        1.0  0.9372099999999999  0.8047  0.79768  1.0000
  N   N7        1.0  0.17261999999999997  0.9768400000000002  0.03041  1.0000
  N   N8        1.0  0.005319999999999895  0.06754  0.98601  1.0000
  N   N9        1.0  0.34618000000000004  0.27888  0.76071  1.0000
  N   N10       1.0  0.5388400000000003  0.24039000000000002  0.7340899999999999  1.0000
  N   N11       1.0  0.22551999999999991  0.25688  0.67766  1.0000
  N   N12       1.0  0.06353000000000011  0.30466  0.7022799999999999  1.0000
  N   N13       1.0  0.17437000000000002  0.52264  0.53028  1.0000
  N   N14       1.0  0.002990000000000021  0.43253  0.48596999999999996  1.0000
  N   N15       1.0  0.3438  0.22111000000000006  0.26092  1.0000
  N   N16       1.0  0.53674  0.25956  0.23425999999999997  1.0000
  N   N17       1.0  0.22562  0.24289000000000002  0.17761  1.0000
  N   N18       1.0  0.06279000000000003  0.1953  0.20232  1.0000
  N   N19       1.0  0.82738  0.02317  0.9695899999999998  1.0000
  N   N20       1.0  0.9946700000000002  0.93246  0.01399  1.0000
  N   N21       1.0  0.65382  0.7211300000000002  0.23929  1.0000
  N   N22       1.0  0.46116000000000007  0.7596200000000001  0.26591  1.0000
  N   N23       1.0  0.7744800000000002  0.74313  0.32233999999999996  1.0000
  N   N24       1.0  0.9364700000000001  0.69535  0.29773  1.0000
  O   O1        1.0  0.50238  0.79208  0.51947  1.0000
  O   O2        1.0  0.12033999999999995  0.81328  0.48033  1.0000
  O   O3        1.0  0.2839400000000001  0.9201300000000001  0.56716  1.0000
  O   O4        1.0  0.8843200000000002  0.8542500000000001  0.5953199999999998  1.0000
  O   O5        1.0  0.6210800000000001  0.59404  0.9491  1.0000
  O   O6        1.0  0.20126000000000016  0.5278800000000001  0.96286  1.0000
  O   O7        1.0  0.49540000000000006  0.29158  0.98172  1.0000
  O   O8        1.0  0.8801900000000004  0.31278000000000006  0.02002  1.0000
  O   O9        1.0  0.7246199999999999  0.41736  0.93317  1.0000
  O   O10       1.0  0.12069999999999997  0.35109  0.90456  1.0000
  O   O11       1.0  0.37961  0.09378  0.55091  1.0000
  O   O12       1.0  0.8010600000000001  0.02816  0.53675  1.0000
  O   O13       1.0  0.49762  0.20792  0.48052999999999996  1.0000
  O   O14       1.0  0.87966  0.18672  0.51967  1.0000
  O   O15       1.0  0.71606  0.07987  0.43284  1.0000
  O   O16       1.0  0.11567999999999999  0.14575  0.40468  1.0000
  O   O17       1.0  0.37892  0.40597  0.0509  1.0000
  O   O18       1.0  0.79874  0.47213000000000005  0.03714  1.0000
  O   O19       1.0  0.5046  0.7084300000000001  0.01829  1.0000
  O   O20       1.0  0.11980999999999996  0.68723  0.97998  1.0000
  O   O21       1.0  0.27538  0.58265  0.06683  1.0000
  O   O22       1.0  0.8793  0.64892  0.09544  1.0000
  O   O23       1.0  0.6203799999999999  0.90623  0.44909  1.0000
  O   O24       1.0  0.19894000000000003  0.9718500000000002  0.46325  1.0000
