data_image0
_chemical_formula_structural       Mn6H56C96N12O24F16
_chemical_formula_sum              "Mn6 H56 C96 N12 O24 F16"
_cell_length_a       10.97444
_cell_length_b       15.004360000000002
_cell_length_c       18.2583
_cell_angle_alpha    90.02276999999998
_cell_angle_beta     89.83635
_cell_angle_gamma    111.90286

_space_group_name_H-M_alt    "P 1"
_space_group_IT_number       1

loop_
  _space_group_symop_operation_xyz
  'x, y, z'

loop_
  _atom_site_type_symbol
  _atom_site_label
  _atom_site_symmetry_multiplicity
  _atom_site_fract_x
  _atom_site_fract_y
  _atom_site_fract_z
  _atom_site_occupancy
  Mn  Mn1       1.0  0.00394999999999997  0.83259  0.01001  1.0000
  Mn  Mn2       1.0  0.49704999999999977  0.6689299999999999  0.51059  1.0000
  Mn  Mn3       1.0  0.9960599999999998  0.16740999999999995  0.98999  1.0000
  Mn  Mn4       1.0  0.5029499999999998  0.33106999999999986  0.48941999999999997  1.0000
  Mn  Mn5       1.0  0.4999999999999999  0.0  0.5  1.0000
  Mn  Mn6       1.0  0.9999999999999999  0.4999999999999999  0.0  1.0000
  H   H1        1.0  0.75471  0.72066  0.89518  1.0000
  H   H2        1.0  0.65641  0.54914  0.57733  1.0000
  H   H3        1.0  0.77363  0.54014  0.82392  1.0000
  H   H4        1.0  0.19870999999999997  0.06455  0.29207  1.0000
  H   H5        1.0  0.54389  0.66381  0.33584  1.0000
  H   H6        1.0  0.16091999999999987  0.7666799999999998  0.20898  1.0000
  H   H7        1.0  0.4435699999999999  0.6849499999999997  0.21704  1.0000
  H   H8        1.0  0.25085999999999986  0.6212799999999998  0.12824  1.0000
  H   H9        1.0  0.5397899999999999  0.7573899999999998  0.67314  1.0000
  H   H10       1.0  0.19794999999999996  0.10266  0.17752  1.0000
  H   H11       1.0  0.5136299999999999  0.91043  0.33992  1.0000
  H   H12       1.0  0.26012999999999986  0.9274299999999998  0.12926  1.0000
  H   H13       1.0  0.30222999999999994  0.07127  0.41396  1.0000
  H   H14       1.0  0.23865999999999996  0.69155  0.45566999999999996  1.0000
  H   H15       1.0  0.7454099999999999  0.7813499999999998  0.39476999999999995  1.0000
  H   H16       1.0  0.83928  0.9512499999999998  0.07638  1.0000
  H   H17       1.0  0.7266199999999997  0.9620899999999998  0.32346  1.0000
  H   H18       1.0  0.3031699999999999  0.43506  0.79207  1.0000
  H   H19       1.0  0.95524  0.83563  0.83679  1.0000
  H   H20       1.0  0.3364099999999998  0.7333099999999998  0.70625  1.0000
  H   H21       1.0  0.053009999999999856  0.8134099999999997  0.71697  1.0000
  H   H22       1.0  0.24801999999999985  0.8795899999999998  0.62582  1.0000
  H   H23       1.0  0.9614999999999999  0.74599  0.17175999999999997  1.0000
  H   H24       1.0  0.30069999999999997  0.3949799999999999  0.6759199999999997  1.0000
  H   H25       1.0  0.9860499999999999  0.5873499999999999  0.84061  1.0000
  H   H26       1.0  0.23924999999999996  0.5709  0.62921  1.0000
  H   H27       1.0  0.2022999999999999  0.43031999999999987  0.91474  1.0000
  H   H28       1.0  0.26307  0.8091  0.95379  1.0000
  H   H29       1.0  0.24529999999999993  0.27934  0.10482  1.0000
  H   H30       1.0  0.3435999999999999  0.45085999999999987  0.42267  1.0000
  H   H31       1.0  0.22636999999999993  0.45985999999999994  0.17608  1.0000
  H   H32       1.0  0.8012899999999998  0.9354599999999997  0.7079299999999998  1.0000
  H   H33       1.0  0.4561099999999999  0.33619  0.66416  1.0000
  H   H34       1.0  0.8390899999999998  0.2333199999999999  0.79103  1.0000
  H   H35       1.0  0.5564299999999999  0.31504999999999994  0.78297  1.0000
  H   H36       1.0  0.74914  0.37873  0.87177  1.0000
  H   H37       1.0  0.46022  0.24260999999999994  0.32685999999999993  1.0000
  H   H38       1.0  0.80205  0.89734  0.82249  1.0000
  H   H39       1.0  0.48636999999999997  0.08956999999999996  0.6600799999999999  1.0000
  H   H40       1.0  0.7398799999999999  0.07257  0.87074  1.0000
  H   H41       1.0  0.6977699999999998  0.9287299999999998  0.58604  1.0000
  H   H42       1.0  0.76135  0.30845  0.54434  1.0000
  H   H43       1.0  0.2545899999999999  0.21864999999999996  0.6052299999999999  1.0000
  H   H44       1.0  0.16071999999999997  0.048749999999999995  0.9236199999999999  1.0000
  H   H45       1.0  0.27338  0.03791  0.67655  1.0000
  H   H46       1.0  0.6968299999999998  0.5649399999999999  0.20793  1.0000
  H   H47       1.0  0.04476  0.16437  0.16321  1.0000
  H   H48       1.0  0.66359  0.2667  0.29375999999999997  1.0000
  H   H49       1.0  0.94699  0.18659  0.28303  1.0000
  H   H50       1.0  0.75198  0.12041  0.37418  1.0000
  H   H51       1.0  0.03849999999999999  0.25401  0.82825  1.0000
  H   H52       1.0  0.6992999999999998  0.6050199999999999  0.32409  1.0000
  H   H53       1.0  0.013949999999999957  0.41265999999999997  0.15939  1.0000
  H   H54       1.0  0.7607499999999998  0.42909999999999987  0.37079  1.0000
  H   H55       1.0  0.7977099999999999  0.56968  0.08525999999999999  1.0000
  H   H56       1.0  0.7369399999999999  0.19089999999999993  0.04621  1.0000
  C   C1        1.0  0.8375899999999997  0.6280099999999997  0.95165  1.0000
  C   C2        1.0  0.15043  0.04593999999999999  0.06724  1.0000
  C   C3        1.0  0.14787  0.70176  0.07208  1.0000
  C   C4        1.0  0.2752399999999999  0.7002099999999998  0.26911999999999997  1.0000
  C   C5        1.0  0.69562  0.62499  0.7574699999999998  1.0000
  C   C6        1.0  0.77348  0.6549799999999998  0.8881499999999999  1.0000
  C   C7        1.0  0.65165  0.59001  0.62611  1.0000
  C   C8        1.0  0.6352899999999997  0.6918299999999997  0.74664  1.0000
  C   C9        1.0  0.74821  0.60372  0.8253099999999999  1.0000
  C   C10       1.0  0.3064700000000001  0.98644  0.24009  1.0000
  C   C11       1.0  0.27063999999999994  0.0314  0.29966  1.0000
  C   C12       1.0  0.3976799999999999  0.9444399999999998  0.25727  1.0000
  C   C13       1.0  0.4513699999999999  0.67456  0.33452  1.0000
  C   C14       1.0  0.21156999999999987  0.71687  0.20332  1.0000
  C   C15       1.0  0.39481999999999995  0.6857499999999997  0.26889  1.0000
  C   C16       1.0  0.21026999999999996  0.67656  0.13719  1.0000
  C   C17       1.0  0.5860499999999998  0.7051899999999999  0.67941  1.0000
  C   C18       1.0  0.7026400000000002  0.57614  0.69266  1.0000
  C   C19       1.0  0.19986  0.04451999999999999  0.14249  1.0000
  C   C20       1.0  0.44557  0.94557  0.32774999999999993  1.0000
  C   C21       1.0  0.25392999999999977  0.9825699999999998  0.16633  1.0000
  C   C22       1.0  0.32476  0.033159999999999995  0.3684799999999999  1.0000
  C   C23       1.0  0.28246  0.68998  0.40251  1.0000
  C   C24       1.0  0.2227599999999998  0.7031799999999998  0.33874  1.0000
  C   C25       1.0  0.6639499999999999  0.87409  0.45189  1.0000
  C   C26       1.0  0.3491  0.45249  0.56572  1.0000
  C   C27       1.0  0.35052999999999995  0.7978299999999999  0.57032  1.0000
  C   C28       1.0  0.22343999999999983  0.8001399999999997  0.76743  1.0000
  C   C29       1.0  0.8037899999999998  0.8768699999999998  0.25692  1.0000
  C   C30       1.0  0.7270299999999997  0.8471799999999998  0.38783999999999996  1.0000
  C   C31       1.0  0.84528  0.91092  0.12519  1.0000
  C   C32       1.0  0.8656599999999998  0.8109999999999998  0.24606  1.0000
  C   C33       1.0  0.75171  0.89837  0.32494999999999996  1.0000
  C   C34       1.0  0.19340999999999992  0.5114099999999999  0.74007  1.0000
  C   C35       1.0  0.23069999999999993  0.46776  0.79984  1.0000
  C   C36       1.0  0.10147999999999995  0.55279  0.7575299999999998  1.0000
  C   C37       1.0  0.04787999999999989  0.8250599999999998  0.8344399999999998  1.0000
  C   C38       1.0  0.2863499999999998  0.7835599999999998  0.70112  1.0000
  C   C39       1.0  0.10324  0.81359  0.76831  1.0000
  C   C40       1.0  0.2878599999999999  0.8239799999999998  0.63506  1.0000
  C   C41       1.0  0.9140699999999999  0.7974199999999998  0.17845  1.0000
  C   C42       1.0  0.79474  0.9246899999999999  0.19208  1.0000
  C   C43       1.0  0.29930999999999996  0.45348999999999995  0.64124  1.0000
  C   C44       1.0  0.054839999999999986  0.55277  0.82835  1.0000
  C   C45       1.0  0.24540999999999993  0.5153299999999998  0.66586  1.0000
  C   C46       1.0  0.17771999999999993  0.4669899999999999  0.8690999999999998  1.0000
  C   C47       1.0  0.21862999999999985  0.8106799999999997  0.9009299999999999  1.0000
  C   C48       1.0  0.27803999999999995  0.79852  0.8365  1.0000
  C   C49       1.0  0.16241999999999998  0.37199  0.04836  1.0000
  C   C50       1.0  0.8495699999999998  0.9540599999999999  0.93277  1.0000
  C   C51       1.0  0.8521299999999998  0.29825  0.92793  1.0000
  C   C52       1.0  0.72476  0.29979  0.73088  1.0000
  C   C53       1.0  0.3043799999999999  0.3750099999999999  0.24254  1.0000
  C   C54       1.0  0.22651999999999992  0.3450199999999999  0.11186  1.0000
  C   C55       1.0  0.34834999999999994  0.4099899999999999  0.37389  1.0000
  C   C56       1.0  0.36471999999999993  0.30817  0.25336  1.0000
  C   C57       1.0  0.25178999999999996  0.3962899999999999  0.17469  1.0000
  C   C58       1.0  0.69354  0.01356  0.75991  1.0000
  C   C59       1.0  0.72936  0.9685999999999998  0.7003399999999997  1.0000
  C   C60       1.0  0.60232  0.05557  0.74273  1.0000
  C   C61       1.0  0.54864  0.32544  0.66549  1.0000
  C   C62       1.0  0.7884299999999997  0.28313999999999995  0.79669  1.0000
  C   C63       1.0  0.60518  0.31425  0.73111  1.0000
  C   C64       1.0  0.7897299999999998  0.3234399999999999  0.86281  1.0000
  C   C65       1.0  0.41396  0.2948099999999999  0.32059  1.0000
  C   C66       1.0  0.29736999999999997  0.42386  0.30733999999999995  1.0000
  C   C67       1.0  0.8001499999999999  0.9554799999999998  0.85751  1.0000
  C   C68       1.0  0.5544299999999999  0.05443  0.67225  1.0000
  C   C69       1.0  0.7460699999999998  0.01743  0.83367  1.0000
  C   C70       1.0  0.6752499999999998  0.9668399999999999  0.63152  1.0000
  C   C71       1.0  0.7175499999999999  0.3100199999999999  0.59749  1.0000
  C   C72       1.0  0.7772399999999998  0.29682  0.66126  1.0000
  C   C73       1.0  0.33605  0.12591  0.54811  1.0000
  C   C74       1.0  0.6508999999999999  0.54752  0.43428  1.0000
  C   C75       1.0  0.6494699999999999  0.20216999999999993  0.42967999999999995  1.0000
  C   C76       1.0  0.77656  0.19987  0.23257  1.0000
  C   C77       1.0  0.19621  0.12313  0.74308  1.0000
  C   C78       1.0  0.27297999999999994  0.15282  0.61216  1.0000
  C   C79       1.0  0.15471999999999994  0.08907999999999998  0.87481  1.0000
  C   C80       1.0  0.13434  0.18899999999999997  0.75394  1.0000
  C   C81       1.0  0.24828999999999998  0.10162999999999997  0.67506  1.0000
  C   C82       1.0  0.8065899999999998  0.48859999999999987  0.25994  1.0000
  C   C83       1.0  0.7692999999999999  0.53224  0.20016  1.0000
  C   C84       1.0  0.89852  0.4472099999999999  0.24247  1.0000
  C   C85       1.0  0.95212  0.17494  0.16555999999999998  1.0000
  C   C86       1.0  0.7136599999999999  0.21645  0.29888  1.0000
  C   C87       1.0  0.89676  0.18642  0.2317  1.0000
  C   C88       1.0  0.71215  0.17602  0.36494999999999994  1.0000
  C   C89       1.0  0.08593999999999995  0.20257999999999998  0.82156  1.0000
  C   C90       1.0  0.20525999999999994  0.07530999999999997  0.8079199999999999  1.0000
  C   C91       1.0  0.7006899999999999  0.5465099999999999  0.35877  1.0000
  C   C92       1.0  0.94516  0.4472299999999999  0.17166  1.0000
  C   C93       1.0  0.75459  0.48467  0.33413999999999994  1.0000
  C   C94       1.0  0.8222799999999998  0.53302  0.13091  1.0000
  C   C95       1.0  0.78138  0.18931999999999996  0.09907  1.0000
  C   C96       1.0  0.72196  0.20147999999999996  0.1635  1.0000
  N   N1        1.0  0.3969099999999997  0.6762899999999997  0.40073  1.0000
  N   N2        1.0  0.5933299999999998  0.6543699999999998  0.61989  1.0000
  N   N3        1.0  0.4108199999999998  0.9904299999999998  0.3831699999999999  1.0000
  N   N4        1.0  0.10374999999999987  0.8238199999999998  0.90012  1.0000
  N   N5        1.0  0.9047999999999998  0.8472999999999998  0.11878999999999999  1.0000
  N   N6        1.0  0.09127999999999996  0.50945  0.8840299999999999  1.0000
  N   N7        1.0  0.6031  0.32371  0.59928  1.0000
  N   N8        1.0  0.4066799999999999  0.34563  0.38012  1.0000
  N   N9        1.0  0.5891799999999999  0.009570000000000002  0.6168399999999998  1.0000
  N   N10       1.0  0.89626  0.17619  0.09989  1.0000
  N   N11       1.0  0.09519999999999999  0.1527  0.8812099999999999  1.0000
  N   N12       1.0  0.9087199999999999  0.4905499999999999  0.11596999999999999  1.0000
  O   O1        1.0  0.1378999999999998  0.9773699999999997  0.02265  1.0000
  O   O2        1.0  0.12189999999999993  0.6447299999999999  0.01758  1.0000
  O   O3        1.0  0.8719999999999998  0.6884799999999999  0.00434  1.0000
  O   O4        1.0  0.12694999999999998  0.12124999999999997  0.05161999999999999  1.0000
  O   O5        1.0  0.12819999999999987  0.7807999999999998  0.07405  1.0000
  O   O6        1.0  0.8536  0.54792  0.9508  1.0000
  O   O7        1.0  0.36502  0.52262  0.52221  1.0000
  O   O8        1.0  0.3775399999999999  0.8536299999999998  0.515  1.0000
  O   O9        1.0  0.6299899999999998  0.8132099999999998  0.50444  1.0000
  O   O10       1.0  0.3689899999999998  0.3760499999999999  0.54867  1.0000
  O   O11       1.0  0.3696899999999999  0.71863  0.57361  1.0000
  O   O12       1.0  0.6483399999999999  0.9544199999999999  0.45150999999999997  1.0000
  O   O13       1.0  0.8621099999999999  0.02263  0.9773499999999999  1.0000
  O   O14       1.0  0.8781099999999998  0.35527  0.98242  1.0000
  O   O15       1.0  0.12800999999999993  0.3115199999999999  0.9956599999999999  1.0000
  O   O16       1.0  0.8730499999999995  0.8787499999999998  0.94838  1.0000
  O   O17       1.0  0.8717999999999999  0.21919999999999995  0.9259599999999999  1.0000
  O   O18       1.0  0.14639999999999992  0.45207999999999987  0.0492  1.0000
  O   O19       1.0  0.6349799999999999  0.4773799999999999  0.47779  1.0000
  O   O20       1.0  0.62246  0.14637  0.485  1.0000
  O   O21       1.0  0.37001  0.18679  0.49556999999999995  1.0000
  O   O22       1.0  0.63101  0.62395  0.45133999999999996  1.0000
  O   O23       1.0  0.63031  0.28137  0.42639  1.0000
  O   O24       1.0  0.3516599999999999  0.04558  0.5485  1.0000
  F   F1        1.0  0.4425699999999998  0.9017099999999998  0.20359  1.0000
  F   F2        1.0  0.6239199999999999  0.7458099999999998  0.80394  1.0000
  F   F3        1.0  0.10882999999999984  0.7187199999999998  0.34446  1.0000
  F   F4        1.0  0.7643899999999997  0.5131699999999999  0.69606  1.0000
  F   F5        1.0  0.054609999999999985  0.59382  0.70365  1.0000
  F   F6        1.0  0.87908  0.75865  0.30383  1.0000
  F   F7        1.0  0.39401999999999976  0.7856699999999998  0.84078  1.0000
  F   F8        1.0  0.7321099999999999  0.9869899999999998  0.19604  1.0000
  F   F9        1.0  0.5574299999999999  0.09828999999999997  0.79641  1.0000
  F   F10       1.0  0.37608  0.25419  0.19606  1.0000
  F   F11       1.0  0.8911699999999999  0.28128  0.65555  1.0000
  F   F12       1.0  0.23560999999999988  0.4868399999999999  0.30395  1.0000
  F   F13       1.0  0.9453899999999998  0.4061799999999999  0.29635  1.0000
  F   F14       1.0  0.12092999999999994  0.24134999999999998  0.6961699999999998  1.0000
  F   F15       1.0  0.6059899999999999  0.21432999999999994  0.15922  1.0000
  F   F16       1.0  0.26789999999999997  0.013009999999999997  0.80397  1.0000
