data_image0
_chemical_formula_structural       Ag6H80C104S8N24
_chemical_formula_sum              "Ag6 H80 C104 S8 N24"
_cell_length_a       7.07736
_cell_length_b       16.84231
_cell_length_c       23.314120000000003
_cell_angle_alpha    90.0
_cell_angle_beta     89.9959
_cell_angle_gamma    90.0

_symmetry_space_group_name_H-M    'P 1'
_symmetry_Int_Tables_number       1

loop_
  _symmetry_equiv_pos_as_xyz
  'x,y,z'

loop_
  _atom_site_type_symbol
  _atom_site_label
  _atom_site_symmetry_multiplicity
  _atom_site_fract_x
  _atom_site_fract_y
  _atom_site_fract_z
  _atom_site_occupancy
  Ag  Ag1       1.0  0.11048999999999998  0.55962  0.1622  1.0000
  Ag  Ag2       1.0  0.8895199999999998  0.55962  0.83779  1.0000
  Ag  Ag3       1.0  0.3905899999999999  0.05972  0.66218  1.0000
  Ag  Ag4       1.0  0.60941  0.05972  0.33782  1.0000
  Ag  Ag5       1.0  0.0  0.9126400000000002  0.5  1.0000
  Ag  Ag6       1.0  0.5  0.41278000000000004  0.0  1.0000
  H   H1        1.0  0.8215599999999998  0.23313  0.34987  1.0000
  H   H2        1.0  0.90966  0.33709  0.2805  1.0000
  H   H3        1.0  0.8146799999999998  0.23803  0.09070000000000002  1.0000
  H   H4        1.0  0.8533599999999998  0.34447  0.01581  1.0000
  H   H5        1.0  0.96684  0.47932  0.04537000000000001  1.0000
  H   H6        1.0  0.00598  0.4097  0.21533  1.0000
  H   H7        1.0  0.5783499999999999  0.0831  0.12037  1.0000
  H   H8        1.0  0.8251699999999998  0.06258  0.12061000000000002  1.0000
  H   H9        1.0  0.9032199999999998  0.90912  0.14758  1.0000
  H   H10       1.0  0.53695  0.7407700000000002  0.06518  1.0000
  H   H11       1.0  0.30942999999999987  0.84922  0.043220000000000015  1.0000
  H   H12       1.0  0.37665  0.9873500000000001  0.07459  1.0000
  H   H13       1.0  0.9864199999999997  0.77538  0.15035  1.0000
  H   H14       1.0  0.9596299999999999  0.7387  0.07926000000000001  1.0000
  H   H15       1.0  0.67975  0.56339  0.32945  1.0000
  H   H16       1.0  0.7687999999999998  0.68722  0.38108  1.0000
  H   H17       1.0  0.9606499999999998  0.88083  0.24548  1.0000
  H   H18       1.0  0.07945  0.0077800000000000005  0.29082  1.0000
  H   H19       1.0  0.06942  0.02001  0.39751  1.0000
  H   H20       1.0  0.83267  0.7963  0.41571  1.0000
  H   H21       1.0  0.17845  0.23313  0.6501300000000001  1.0000
  H   H22       1.0  0.09035  0.33709  0.7195  1.0000
  H   H23       1.0  0.18531999999999998  0.23803  0.9093  1.0000
  H   H24       1.0  0.14665  0.34447  0.98419  1.0000
  H   H25       1.0  0.03317  0.47932  0.9546300000000002  1.0000
  H   H26       1.0  0.9940299999999997  0.4097  0.78466  1.0000
  H   H27       1.0  0.42166  0.0831  0.87963  1.0000
  H   H28       1.0  0.17483999999999994  0.06258  0.87939  1.0000
  H   H29       1.0  0.09678999999999997  0.90912  0.8524200000000001  1.0000
  H   H30       1.0  0.46306  0.7407700000000002  0.93481  1.0000
  H   H31       1.0  0.6905699999999998  0.84922  0.9567800000000001  1.0000
  H   H32       1.0  0.6233599999999999  0.9873500000000001  0.92541  1.0000
  H   H33       1.0  0.01359  0.77538  0.84964  1.0000
  H   H34       1.0  0.04038  0.7387  0.92074  1.0000
  H   H35       1.0  0.32026  0.56339  0.67055  1.0000
  H   H36       1.0  0.23121  0.68722  0.61892  1.0000
  H   H37       1.0  0.03936  0.88083  0.7545200000000001  1.0000
  H   H38       1.0  0.92056  0.0077800000000000005  0.70917  1.0000
  H   H39       1.0  0.9305899999999999  0.02001  0.60249  1.0000
  H   H40       1.0  0.16734  0.7963  0.58429  1.0000
  H   H41       1.0  0.6775199999999999  0.73308  0.8498400000000002  1.0000
  H   H42       1.0  0.59013  0.83712  0.78045  1.0000
  H   H43       1.0  0.68538  0.73791  0.59067  1.0000
  H   H44       1.0  0.6469599999999999  0.84434  0.51573  1.0000
  H   H45       1.0  0.53428  0.9793  0.54525  1.0000
  H   H46       1.0  0.49497  0.9097900000000001  0.71526  1.0000
  H   H47       1.0  0.9212999999999998  0.5831  0.6206000000000002  1.0000
  H   H48       1.0  0.6744999999999998  0.56251  0.62048  1.0000
  H   H49       1.0  0.59673  0.40901  0.6476  1.0000
  H   H50       1.0  0.96338  0.24082  0.5652100000000001  1.0000
  H   H51       1.0  0.19075  0.34935  0.54326  1.0000
  H   H52       1.0  0.12321  0.48746000000000006  0.57464  1.0000
  H   H53       1.0  0.51386  0.27525  0.65033  1.0000
  H   H54       1.0  0.54086  0.23854000000000003  0.57925  1.0000
  H   H55       1.0  0.82125  0.06365  0.8295700000000001  1.0000
  H   H56       1.0  0.73114  0.18738  0.88112  1.0000
  H   H57       1.0  0.5383  0.38072  0.7455  1.0000
  H   H58       1.0  0.42004  0.5077900000000001  0.79083  1.0000
  H   H59       1.0  0.43074  0.52016  0.8974900000000001  1.0000
  H   H60       1.0  0.66653  0.29632  0.91576  1.0000
  H   H61       1.0  0.32249  0.73308  0.15015  1.0000
  H   H62       1.0  0.40987  0.83712  0.21954  1.0000
  H   H63       1.0  0.31463  0.73791  0.40933  1.0000
  H   H64       1.0  0.35305  0.84434  0.48427000000000003  1.0000
  H   H65       1.0  0.46573  0.9793  0.45475000000000004  1.0000
  H   H66       1.0  0.50504  0.9097900000000001  0.28474  1.0000
  H   H67       1.0  0.0787  0.5831  0.3794  1.0000
  H   H68       1.0  0.3255099999999999  0.56251  0.37952  1.0000
  H   H69       1.0  0.40327999999999997  0.40901  0.3524  1.0000
  H   H70       1.0  0.03661999999999999  0.24082  0.43479  1.0000
  H   H71       1.0  0.8092599999999999  0.34935  0.45674  1.0000
  H   H72       1.0  0.87679  0.48746000000000006  0.42536  1.0000
  H   H73       1.0  0.48614  0.27525  0.34966  1.0000
  H   H74       1.0  0.45915  0.23854000000000003  0.42075  1.0000
  H   H75       1.0  0.17876  0.06365  0.17043  1.0000
  H   H76       1.0  0.26887  0.18738  0.11888  1.0000
  H   H77       1.0  0.46171  0.38072  0.25449  1.0000
  H   H78       1.0  0.57997  0.5077900000000001  0.20917  1.0000
  H   H79       1.0  0.56927  0.52016  0.1025  1.0000
  H   H80       1.0  0.33348  0.29632  0.08424  1.0000
  C   C1        1.0  0.7593799999999999  0.13423  0.22983  1.0000
  C   C2        1.0  0.8168699999999999  0.22148  0.3041  1.0000
  C   C3        1.0  0.8657399999999997  0.27911  0.265  1.0000
  C   C4        1.0  0.85615  0.26065  0.20561000000000004  1.0000
  C   C5        1.0  0.89529  0.31608  0.16054  1.0000
  C   C6        1.0  0.86153  0.29746  0.10175  1.0000
  C   C7        1.0  0.8838999999999998  0.35643  0.06075  1.0000
  C   C8        1.0  0.9454299999999998  0.43212  0.07638000000000002  1.0000
  C   C9        1.0  0.9655999999999998  0.39297000000000004  0.17197000000000004  1.0000
  C   C10       1.0  0.6862099999999998  0.04041  0.13401  1.0000
  C   C11       1.0  0.64565  0.95782  0.11276  1.0000
  C   C12       1.0  0.77389  0.89618  0.12405  1.0000
  C   C13       1.0  0.73719  0.8181  0.10687  1.0000
  C   C14       1.0  0.56746  0.80156  0.07816  1.0000
  C   C15       1.0  0.43876  0.86228  0.0666  1.0000
  C   C16       1.0  0.4772599999999999  0.9402  0.08386  1.0000
  C   C17       1.0  0.88292  0.75473  0.11862  1.0000
  C   C18       1.0  0.78121  0.67642  0.22086  1.0000
  C   C19       1.0  0.7239499999999999  0.61635  0.30605  1.0000
  C   C20       1.0  0.7749099999999998  0.68503  0.33454  1.0000
  C   C21       1.0  0.8283399999999997  0.75183  0.3014200000000001  1.0000
  C   C22       1.0  0.89215  0.82628  0.32623  1.0000
  C   C23       1.0  0.9592  0.88904  0.29171  1.0000
  C   C24       1.0  0.02366  0.9588300000000001  0.31648  1.0000
  C   C25       1.0  0.0192  0.9666  0.3763500000000001  1.0000
  C   C26       1.0  0.88922  0.84011  0.38613  1.0000
  C   C27       1.0  0.24063  0.13423  0.77017  1.0000
  C   C28       1.0  0.18313999999999994  0.22148  0.6959  1.0000
  C   C29       1.0  0.13427  0.27911  0.735  1.0000
  C   C30       1.0  0.14385  0.26065  0.79439  1.0000
  C   C31       1.0  0.10472  0.31608  0.83946  1.0000
  C   C32       1.0  0.13847  0.29746  0.8982500000000002  1.0000
  C   C33       1.0  0.11611  0.35643  0.93925  1.0000
  C   C34       1.0  0.05457  0.43212  0.92362  1.0000
  C   C35       1.0  0.03441  0.39297000000000004  0.82803  1.0000
  C   C36       1.0  0.31378999999999996  0.04041  0.86598  1.0000
  C   C37       1.0  0.35435  0.95782  0.8872400000000001  1.0000
  C   C38       1.0  0.22611999999999993  0.89618  0.8759400000000002  1.0000
  C   C39       1.0  0.26282  0.8181  0.89312  1.0000
  C   C40       1.0  0.43255  0.80156  0.92184  1.0000
  C   C41       1.0  0.56124  0.86228  0.9334000000000001  1.0000
  C   C42       1.0  0.52275  0.9402  0.91614  1.0000
  C   C43       1.0  0.11708999999999997  0.75473  0.88137  1.0000
  C   C44       1.0  0.2188  0.67642  0.77914  1.0000
  C   C45       1.0  0.27605  0.61635  0.69395  1.0000
  C   C46       1.0  0.22509999999999994  0.68503  0.66546  1.0000
  C   C47       1.0  0.17167  0.75183  0.69858  1.0000
  C   C48       1.0  0.10785999999999997  0.82628  0.6737700000000001  1.0000
  C   C49       1.0  0.04081  0.88904  0.70828  1.0000
  C   C50       1.0  0.9763499999999999  0.9588300000000001  0.68352  1.0000
  C   C51       1.0  0.98081  0.9666  0.62365  1.0000
  C   C52       1.0  0.11079  0.84011  0.61387  1.0000
  C   C53       1.0  0.73983  0.63416  0.72983  1.0000
  C   C54       1.0  0.6827399999999998  0.7215  0.80407  1.0000
  C   C55       1.0  0.63423  0.77915  0.76496  1.0000
  C   C56       1.0  0.6438  0.76065  0.7055700000000001  1.0000
  C   C57       1.0  0.60504  0.81607  0.66047  1.0000
  C   C58       1.0  0.63869  0.79738  0.60169  1.0000
  C   C59       1.0  0.61654  0.85634  0.56067  1.0000
  C   C60       1.0  0.55531  0.9320800000000002  0.57628  1.0000
  C   C61       1.0  0.53508  0.89301  0.67188  1.0000
  C   C62       1.0  0.81329  0.54037  0.63405  1.0000
  C   C63       1.0  0.8541899999999998  0.45782  0.61278  1.0000
  C   C64       1.0  0.72607  0.39613  0.62406  1.0000
  C   C65       1.0  0.76298  0.31807  0.60687  1.0000
  C   C66       1.0  0.9327799999999999  0.30161  0.57817  1.0000
  C   C67       1.0  0.06136  0.36238  0.56663  1.0000
  C   C68       1.0  0.02266  0.44028  0.58389  1.0000
  C   C69       1.0  0.61745  0.25463  0.61862  1.0000
  C   C70       1.0  0.71927  0.17649  0.72092  1.0000
  C   C71       1.0  0.77672  0.11653  0.8061300000000001  1.0000
  C   C72       1.0  0.72542  0.18519  0.8345800000000001  1.0000
  C   C73       1.0  0.67169  0.25192  0.8014300000000001  1.0000
  C   C74       1.0  0.60749  0.32632  0.8262300000000001  1.0000
  C   C75       1.0  0.54014  0.38902  0.79173  1.0000
  C   C76       1.0  0.4758499999999999  0.45885  0.81648  1.0000
  C   C77       1.0  0.48062  0.46669  0.87634  1.0000
  C   C78       1.0  0.61027  0.34013  0.88614  1.0000
  C   C79       1.0  0.26018  0.63416  0.27017  1.0000
  C   C80       1.0  0.31727  0.7215  0.19593  1.0000
  C   C81       1.0  0.36577999999999994  0.77915  0.23503  1.0000
  C   C82       1.0  0.35621  0.76065  0.29443  1.0000
  C   C83       1.0  0.39496  0.81607  0.33953  1.0000
  C   C84       1.0  0.36132  0.79738  0.39831  1.0000
  C   C85       1.0  0.38346  0.85634  0.43932  1.0000
  C   C86       1.0  0.4446999999999999  0.9320800000000002  0.42372  1.0000
  C   C87       1.0  0.46492999999999995  0.89301  0.32812  1.0000
  C   C88       1.0  0.18672  0.54037  0.36594  1.0000
  C   C89       1.0  0.14582  0.45782  0.38721  1.0000
  C   C90       1.0  0.27393  0.39613  0.37594  1.0000
  C   C91       1.0  0.23703  0.31807  0.39313000000000003  1.0000
  C   C92       1.0  0.06723  0.30161  0.42183  1.0000
  C   C93       1.0  0.9386499999999998  0.36238  0.43337  1.0000
  C   C94       1.0  0.9773499999999998  0.44028  0.41611  1.0000
  C   C95       1.0  0.38256  0.25463  0.38138  1.0000
  C   C96       1.0  0.28074  0.17649  0.27908  1.0000
  C   C97       1.0  0.22329  0.11653  0.19387000000000001  1.0000
  C   C98       1.0  0.27459  0.18519  0.16542  1.0000
  C   C99       1.0  0.32830999999999994  0.25192  0.19856  1.0000
  C   C100      1.0  0.39252  0.32632  0.17376  1.0000
  C   C101      1.0  0.4598699999999999  0.38902  0.20827  1.0000
  C   C102      1.0  0.52415  0.45885  0.18352  1.0000
  C   C103      1.0  0.51939  0.46669  0.12366  1.0000
  C   C104      1.0  0.38974  0.34013  0.11385  1.0000
  S   S1        1.0  0.68703  0.03668  0.21257000000000006  1.0000
  S   S2        1.0  0.78953  0.66078  0.14501  1.0000
  S   S3        1.0  0.31297999999999987  0.03668  0.78743  1.0000
  S   S4        1.0  0.21047  0.66078  0.8549900000000001  1.0000
  S   S5        1.0  0.81152  0.53652  0.7126  1.0000
  S   S6        1.0  0.71114  0.16077  0.64506  1.0000
  S   S7        1.0  0.18848  0.53652  0.2874  1.0000
  S   S8        1.0  0.28886  0.16077  0.35494  1.0000
  N   N1        1.0  0.76305  0.14677  0.28778  1.0000
  N   N2        1.0  0.80309  0.18498  0.18921  1.0000
  N   N3        1.0  0.9954299999999999  0.44821  0.13186  1.0000
  N   N4        1.0  0.72674  0.6098  0.24806  1.0000
  N   N5        1.0  0.83096  0.74575  0.2426  1.0000
  N   N6        1.0  0.95163  0.90804  0.41025  1.0000
  N   N7        1.0  0.23695999999999995  0.14677  0.71222  1.0000
  N   N8        1.0  0.19692  0.18498  0.81079  1.0000
  N   N9        1.0  0.00458  0.44821  0.86814  1.0000
  N   N10       1.0  0.27326  0.6098  0.7519400000000002  1.0000
  N   N11       1.0  0.16905  0.74575  0.7574000000000002  1.0000
  N   N12       1.0  0.04838  0.90804  0.58974  1.0000
  N   N13       1.0  0.73638  0.64676  0.7877700000000001  1.0000
  N   N14       1.0  0.6961499999999998  0.68488  0.6892  1.0000
  N   N15       1.0  0.5054  0.94825  0.63175  1.0000
  N   N16       1.0  0.77386  0.10992  0.7481400000000001  1.0000
  N   N17       1.0  0.66915  0.24581  0.7426100000000001  1.0000
  N   N18       1.0  0.54802  0.40811  0.9102500000000001  1.0000
  N   N19       1.0  0.26363  0.64676  0.21223000000000003  1.0000
  N   N20       1.0  0.30386  0.68488  0.3108  1.0000
  N   N21       1.0  0.4946099999999999  0.94825  0.36824  1.0000
  N   N22       1.0  0.22614999999999993  0.10992  0.25186  1.0000
  N   N23       1.0  0.33086  0.24581  0.25738  1.0000
  N   N24       1.0  0.45199  0.40811  0.08975  1.0000
