data_image0
_chemical_formula_structural       Ni4Mo2H104C72N32
_chemical_formula_sum              "Ni4 Mo2 H104 C72 N32"
_cell_length_a       18.73196
_cell_length_b       16.85184
_cell_length_c       14.85521
_cell_angle_alpha    70.18901
_cell_angle_beta     51.59039
_cell_angle_gamma    57.25711999999999

_symmetry_space_group_name_H-M    'P 1'
_symmetry_Int_Tables_number       1

loop_
  _symmetry_equiv_pos_as_xyz
  'x,y,z'

loop_
  _atom_site_type_symbol
  _atom_site_label
  _atom_site_symmetry_multiplicity
  _atom_site_fract_x
  _atom_site_fract_y
  _atom_site_fract_z
  _atom_site_occupancy
  Ni  Ni1       1.0  0.4854  0.00549  0.0143  1.0000
  Ni  Ni2       1.0  0.51293  0.4944300000000001  0.49546000000000007  1.0000
  Ni  Ni3       1.0  0.4781099999999999  0.00142  0.52446  1.0000
  Ni  Ni4       1.0  0.0018699999999999928  0.52472  0.97961  1.0000
  Mo  Mo1       1.0  0.36625999999999975  0.2579800000000001  0.75968  1.0000
  Mo  Mo2       1.0  0.6229700000000001  0.7537  0.25314  1.0000
  H   H1        1.0  0.57535  0.07903  0.07797  1.0000
  H   H2        1.0  0.5590899999999999  0.19164000000000003  0.00927  1.0000
  H   H3        1.0  0.6091  0.12043000000000001  0.78488  1.0000
  H   H4        1.0  0.35792  0.24774  0.14164  1.0000
  H   H5        1.0  0.39652  0.13369  0.20449  1.0000
  H   H6        1.0  0.46471999999999986  0.17878000000000005  0.9640699999999999  1.0000
  H   H7        1.0  0.7339999999999998  0.4248000000000001  0.4373  1.0000
  H   H8        1.0  0.75352  0.31987000000000004  0.52078  1.0000
  H   H9        1.0  0.5002199999999999  0.4258000000000001  0.76275  1.0000
  H   H10       1.0  0.74206  0.24557000000000007  0.39887  1.0000
  H   H11       1.0  0.7408100000000002  0.3537200000000001  0.32217  1.0000
  H   H12       1.0  0.6025199999999998  0.32956000000000013  0.56682  1.0000
  H   H13       1.0  0.62787  0.08684000000000001  0.45846  1.0000
  H   H14       1.0  0.7205599999999999  0.058450000000000016  0.30959  1.0000
  H   H15       1.0  0.73808  0.8682300000000002  0.30088  1.0000
  H   H16       1.0  0.5640499999999999  0.17760000000000006  0.28216  1.0000
  H   H17       1.0  0.4954799999999999  0.19344  0.43213999999999997  1.0000
  H   H18       1.0  0.61662  0.01182  0.31712  1.0000
  H   H19       1.0  0.17278999999999997  0.44038  0.03641  1.0000
  H   H20       1.0  0.09781999999999995  0.4589800000000001  0.18631999999999999  1.0000
  H   H21       1.0  0.9476199999999999  0.62028  0.27483  1.0000
  H   H22       1.0  0.01964999999999994  0.3472500000000001  0.22167  1.0000
  H   H23       1.0  0.11680000000000001  0.32934  0.07257  1.0000
  H   H24       1.0  0.9493599999999999  0.51284  0.18406  1.0000
  H   H25       1.0  0.4232099999999999  0.4048500000000001  0.44727  1.0000
  H   H26       1.0  0.4933199999999999  0.40442  0.29555  1.0000
  H   H27       1.0  0.47204999999999997  0.55747  0.18430000000000002  1.0000
  H   H28       1.0  0.66375  0.28779  0.29222  1.0000
  H   H29       1.0  0.5731099999999999  0.292  0.44288999999999995  1.0000
  H   H30       1.0  0.5930899999999999  0.4565700000000001  0.29369  1.0000
  H   H31       1.0  0.2658  0.0783  0.0645  1.0000
  H   H32       1.0  0.18645  0.07192  0.21552  1.0000
  H   H33       1.0  0.22452  0.91339  0.31824  1.0000
  H   H34       1.0  0.22544999999999996  0.19494000000000006  0.23529000000000003  1.0000
  H   H35       1.0  0.2865999999999999  0.19867000000000007  0.08396  1.0000
  H   H36       1.0  0.33175  0.0279  0.22047  1.0000
  H   H37       1.0  0.3219  0.06816  0.45374999999999993  1.0000
  H   H38       1.0  0.22907  0.18203000000000005  0.51728  1.0000
  H   H39       1.0  0.24026000000000003  0.10955000000000002  0.75563  1.0000
  H   H40       1.0  0.38049000000000005  0.23171000000000003  0.37377  1.0000
  H   H41       1.0  0.4504999999999999  0.11299000000000002  0.32544  1.0000
  H   H42       1.0  0.33475999999999995  0.17511000000000004  0.55954  1.0000
  H   H43       1.0  0.84327  0.45545000000000013  0.04729  1.0000
  H   H44       1.0  0.92569  0.34269  0.98037  1.0000
  H   H45       1.0  0.09876999999999989  0.4174400000000001  0.74557  1.0000
  H   H46       1.0  0.9834299999999999  0.29162000000000005  0.12539  1.0000
  H   H47       1.0  0.8887099999999999  0.4099100000000001  0.17565000000000003  1.0000
  H   H48       1.0  0.0645200000000001  0.35037  0.9412599999999999  1.0000
  H   H49       1.0  0.3970099999999997  0.9325600000000002  0.9489000000000001  1.0000
  H   H50       1.0  0.41346999999999984  0.8190500000000002  0.01537  1.0000
  H   H51       1.0  0.34814  0.89568  0.2552  1.0000
  H   H52       1.0  0.6127299999999998  0.76313  0.88546  1.0000
  H   H53       1.0  0.57306  0.87791  0.8242899999999999  1.0000
  H   H54       1.0  0.5062  0.8318  0.06419  1.0000
  H   H55       1.0  0.29439  0.5568600000000002  0.55382  1.0000
  H   H56       1.0  0.2680500000000001  0.6662  0.47833  1.0000
  H   H57       1.0  0.5148799999999999  0.5852100000000002  0.24093  1.0000
  H   H58       1.0  0.2744500000000001  0.73641  0.60593  1.0000
  H   H59       1.0  0.28743999999999975  0.62336  0.67473  1.0000
  H   H60       1.0  0.41585999999999995  0.66146  0.4323  1.0000
  H   H61       1.0  0.3352099999999999  0.9241100000000002  0.57064  1.0000
  H   H62       1.0  0.24699999999999994  0.93049  0.72202  1.0000
  H   H63       1.0  0.13496999999999998  0.08791  0.8231  1.0000
  H   H64       1.0  0.39978  0.81283  0.75091  1.0000
  H   H65       1.0  0.47179999999999983  0.8065400000000003  0.59849  1.0000
  H   H66       1.0  0.34372999999999976  0.98062  0.7298600000000001  1.0000
  H   H67       1.0  0.8284499999999999  0.6015400000000002  0.9325999999999999  1.0000
  H   H68       1.0  0.89711  0.5969000000000002  0.78105  1.0000
  H   H69       1.0  0.03827999999999999  0.44215000000000004  0.67761  1.0000
  H   H70       1.0  0.9521699999999998  0.72046  0.76435  1.0000
  H   H71       1.0  0.86902  0.71992  0.91661  1.0000
  H   H72       1.0  0.04746999999999999  0.5526800000000002  0.7744799999999998  1.0000
  H   H73       1.0  0.6054899999999999  0.5839600000000001  0.53185  1.0000
  H   H74       1.0  0.53877  0.59113  0.68265  1.0000
  H   H75       1.0  0.5619000000000001  0.4414800000000001  0.8037999999999998  1.0000
  H   H76       1.0  0.3566700000000001  0.69704  0.7072  1.0000
  H   H77       1.0  0.44286  0.70042  0.55617  1.0000
  H   H78       1.0  0.4384599999999999  0.5296000000000001  0.69648  1.0000
  H   H79       1.0  0.7053199999999993  0.9309100000000002  0.96412  1.0000
  H   H80       1.0  0.78457  0.9369300000000003  0.81239  1.0000
  H   H81       1.0  0.7405299999999999  0.08265000000000003  0.70806  1.0000
  H   H82       1.0  0.7450699999999999  0.8174800000000002  0.7892899999999999  1.0000
  H   H83       1.0  0.6867799999999998  0.8102  0.94045  1.0000
  H   H84       1.0  0.6375499999999997  0.9836700000000003  0.80946  1.0000
  H   H85       1.0  0.6151299999999998  0.95252  0.60497  1.0000
  H   H86       1.0  0.714  0.83548  0.55783  1.0000
  H   H87       1.0  0.80995  0.7927900000000002  0.35806  1.0000
  H   H88       1.0  0.57954  0.76633  0.67118  1.0000
  H   H89       1.0  0.5016499999999999  0.8828700000000003  0.72754  1.0000
  H   H90       1.0  0.6306299999999999  0.8284300000000002  0.48747  1.0000
  H   H91       1.0  0.16380999999999993  0.5865900000000002  0.90264  1.0000
  H   H92       1.0  0.0918499999999999  0.6999100000000003  0.96502  1.0000
  H   H93       1.0  0.9476899999999999  0.7256400000000002  0.18206  1.0000
  H   H94       1.0  0.9977799999999999  0.7701000000000002  0.85478  1.0000
  H   H95       1.0  0.09769999999999993  0.6591300000000001  0.78606  1.0000
  H   H96       1.0  0.94018  0.69374  0.03155  1.0000
  H   H97       1.0  0.7269399999999999  0.07803  0.88804  1.0000
  H   H98       1.0  0.6952499999999999  0.4499000000000001  0.61565  1.0000
  H   H99       1.0  0.77823  0.94107  0.42327  1.0000
  H   H100      1.0  0.14517999999999986  0.6540100000000002  0.11517  1.0000
  H   H101      1.0  0.3329099999999999  0.54186  0.36986  1.0000
  H   H102      1.0  0.24580999999999986  0.9318300000000003  0.13531  1.0000
  H   H103      1.0  0.16950999999999997  0.07093000000000003  0.64243  1.0000
  H   H104      1.0  0.87879  0.4561800000000001  0.85885  1.0000
  C   C1        1.0  0.5686  0.12177000000000003  0.006709999999999999  1.0000
  C   C2        1.0  0.38197999999999993  0.17263  0.13705  1.0000
  C   C3        1.0  0.6950900000000001  0.38785  0.51484  1.0000
  C   C4        1.0  0.6927800000000001  0.32018  0.3930199999999999  1.0000
  C   C5        1.0  0.6642100000000001  0.03885  0.39186  1.0000
  C   C6        1.0  0.5205300000000002  0.15035000000000007  0.36782  1.0000
  C   C7        1.0  0.09729999999999991  0.4841100000000001  0.10778  1.0000
  C   C8        1.0  0.03615999999999994  0.3733300000000001  0.13498  1.0000
  C   C9        1.0  0.4647799999999999  0.43981  0.36952000000000007  1.0000
  C   C10       1.0  0.62011  0.3260600000000001  0.37137000000000003  1.0000
  C   C11       1.0  0.26602999999999993  0.04167000000000001  0.14116  1.0000
  C   C12       1.0  0.29806999999999995  0.16211000000000006  0.1539  1.0000
  C   C13       1.0  0.28653000000000006  0.11301000000000003  0.52298  1.0000
  C   C14       1.0  0.42684999999999995  0.15815000000000004  0.38667  1.0000
  C   C15       1.0  0.9201300000000002  0.4119500000000001  0.9772099999999999  1.0000
  C   C16       1.0  0.9696499999999999  0.36550000000000005  0.11432  1.0000
  C   C17       1.0  0.4035500000000001  0.88862  0.01979  1.0000
  C   C18       1.0  0.5889599999999993  0.8380200000000002  0.8905  1.0000
  C   C19       1.0  0.3290899999999999  0.59846  0.47972999999999993  1.0000
  C   C20       1.0  0.3290899999999998  0.6629900000000002  0.60619  1.0000
  C   C21       1.0  0.29728999999999994  0.9611400000000002  0.64801  1.0000
  C   C22       1.0  0.44237  0.8452  0.66983  1.0000
  C   C23       1.0  0.90374  0.56585  0.85541  1.0000
  C   C24       1.0  0.9481799999999999  0.6854700000000002  0.8439300000000001  1.0000
  C   C25       1.0  0.56413  0.55222  0.61372  1.0000
  C   C26       1.0  0.40086  0.66164  0.62576  1.0000
  C   C27       1.0  0.7052399999999998  0.9672700000000002  0.8873599999999999  1.0000
  C   C28       1.0  0.6733899999999998  0.8483500000000003  0.87221  1.0000
  C   C29       1.0  0.6604099999999999  0.8996100000000002  0.53946  1.0000
  C   C30       1.0  0.5311099999999997  0.8397200000000002  0.66018  1.0000
  C   C31       1.0  0.09093999999999998  0.63288  0.97396  1.0000
  C   C32       1.0  0.017939999999999956  0.6951700000000002  0.85701  1.0000
  C   C33       1.0  0.24367999999999998  0.21964000000000006  0.87859  1.0000
  C   C34       1.0  0.41793  0.13785000000000006  0.85071  1.0000
  C   C35       1.0  0.6682999999999999  0.07330000000000003  0.89274  1.0000
  C   C36       1.0  0.6668799999999998  0.12281000000000003  0.78468  1.0000
  C   C37       1.0  0.6457699999999998  0.22132000000000004  0.76887  1.0000
  C   C38       1.0  0.32749  0.29939  0.63664  1.0000
  C   C39       1.0  0.40223999999999993  0.37183  0.66816  1.0000
  C   C40       1.0  0.6353700000000001  0.4481500000000001  0.61954  1.0000
  C   C41       1.0  0.5762300000000001  0.40699  0.73928  1.0000
  C   C42       1.0  0.6220900000000003  0.3051200000000001  0.7527999999999999  1.0000
  C   C43       1.0  0.4627200000000001  0.7922900000000002  0.36317000000000005  1.0000
  C   C44       1.0  0.5487899999999999  0.8686100000000001  0.35511  1.0000
  C   C45       1.0  0.7225599999999996  0.93742  0.42054  1.0000
  C   C46       1.0  0.7856299999999999  0.86595  0.325  1.0000
  C   C47       1.0  0.85972  0.8813900000000002  0.20908  1.0000
  C   C48       1.0  0.6206899999999999  0.7055600000000001  0.13854  1.0000
  C   C49       1.0  0.77078  0.64678  0.15124  1.0000
  C   C50       1.0  0.07745999999999999  0.5868900000000001  0.08784  1.0000
  C   C51       1.0  0.9919399999999998  0.6512100000000002  0.19481  1.0000
  C   C52       1.0  0.09996000000000005  0.61865  0.14495  1.0000
  C   C53       1.0  0.6772699999999999  0.7114700000000003  0.36168  1.0000
  C   C54       1.0  0.6116099999999999  0.62627  0.33247  1.0000
  C   C55       1.0  0.39080999999999994  0.5441300000000001  0.36958  1.0000
  C   C56       1.0  0.44539  0.59379  0.25626  1.0000
  C   C57       1.0  0.3858799999999998  0.6949300000000002  0.24963  1.0000
  C   C58       1.0  0.7303299999999998  0.8110300000000003  0.14943  1.0000
  C   C59       1.0  0.56199  0.87378  0.1704  1.0000
  C   C60       1.0  0.3034799999999999  0.9355700000000002  0.13387  1.0000
  C   C61       1.0  0.3032099999999999  0.88284  0.24229000000000003  1.0000
  C   C62       1.0  0.34408999999999984  0.7804800000000002  0.24407000000000004  1.0000
  C   C63       1.0  0.52861  0.20512  0.64985  1.0000
  C   C64       1.0  0.41930999999999996  0.13834000000000002  0.68003  1.0000
  C   C65       1.0  0.23190999999999995  0.06702  0.6389  1.0000
  C   C66       1.0  0.18189000000000002  0.11986000000000002  0.74602  1.0000
  C   C67       1.0  0.12155  0.22153000000000006  0.74737  1.0000
  C   C68       1.0  0.36787999999999993  0.30394000000000004  0.87633  1.0000
  C   C69       1.0  0.22813999999999998  0.3845400000000001  0.83042  1.0000
  C   C70       1.0  0.93408  0.45985000000000004  0.86223  1.0000
  C   C71       1.0  0.04074000000000012  0.40832  0.7541199999999999  1.0000
  C   C72       1.0  0.07969999999999995  0.30707000000000007  0.7505  1.0000
  N   N1        1.0  0.47714999999999996  0.13192000000000004  0.02439  1.0000
  N   N2        1.0  0.63296  0.3712900000000001  0.50024  1.0000
  N   N3        1.0  0.58385  0.05108  0.38404  1.0000
  N   N4        1.0  0.020079999999999973  0.47210000000000013  0.11765000000000002  1.0000
  N   N5        1.0  0.55128  0.42626000000000003  0.3664200000000001  1.0000
  N   N6        1.0  0.33028  0.060800000000000014  0.14927  1.0000
  N   N7        1.0  0.3676099999999999  0.12476000000000002  0.50387  1.0000
  N   N8        1.0  0.99336  0.40024  0.99723  1.0000
  N   N9        1.0  0.49439  0.8782900000000002  0.0034399999999999995  1.0000
  N   N10       1.0  0.38965999999999973  0.6160800000000002  0.49585  1.0000
  N   N11       1.0  0.3769599999999997  0.9450200000000002  0.65972  1.0000
  N   N12       1.0  0.9766699999999997  0.5842700000000002  0.84663  1.0000
  N   N13       1.0  0.47561999999999993  0.56313  0.62385  1.0000
  N   N14       1.0  0.6404400000000001  0.94914  0.87943  1.0000
  N   N15       1.0  0.5895399999999998  0.8787800000000002  0.54772  1.0000
  N   N16       1.0  0.00903999999999995  0.64979  0.96563  1.0000
  N   N17       1.0  0.17883  0.19531  0.94551  1.0000
  N   N18       1.0  0.4486199999999999  0.0698  0.89812  1.0000
  N   N19       1.0  0.3090399999999999  0.32273000000000013  0.56614  1.0000
  N   N20       1.0  0.42043999999999987  0.43625  0.61886  1.0000
  N   N21       1.0  0.3736399999999999  0.8193500000000002  0.42438  1.0000
  N   N22       1.0  0.5079199999999998  0.9334400000000003  0.41064  1.0000
  N   N23       1.0  0.6236399999999998  0.6771300000000002  0.0733  1.0000
  N   N24       1.0  0.8531599999999998  0.5871300000000002  0.09507  1.0000
  N   N25       1.0  0.7051699999999997  0.69206  0.42241  1.0000
  N   N26       1.0  0.6051199999999998  0.5552400000000001  0.37272  1.0000
  N   N27       1.0  0.7908399999999997  0.84107  0.09113  1.0000
  N   N28       1.0  0.52318  0.9417400000000002  0.12958  1.0000
  N   N29       1.0  0.61823  0.17403000000000005  0.58895  1.0000
  N   N30       1.0  0.44811999999999996  0.07069000000000003  0.63781  1.0000
  N   N31       1.0  0.36867  0.3296000000000001  0.9402899999999998  1.0000
  N   N32       1.0  0.1524999999999999  0.4556600000000001  0.86545  1.0000
