data_image0
_chemical_formula_structural       Zn8H40C72O40
_chemical_formula_sum              "Zn8 H40 C72 O40"
_cell_length_a       10.974
_cell_length_b       14.39912
_cell_length_c       23.11339
_cell_angle_alpha    90.0
_cell_angle_beta     89.89532
_cell_angle_gamma    90.0

_symmetry_space_group_name_H-M    'P 1'
_symmetry_Int_Tables_number       1

loop_
  _symmetry_equiv_pos_as_xyz
  'x,y,z'

loop_
  _atom_site_type_symbol
  _atom_site_label
  _atom_site_symmetry_multiplicity
  _atom_site_fract_x
  _atom_site_fract_y
  _atom_site_fract_z
  _atom_site_occupancy
  Zn  Zn1       1.0  0.61447  0.13673  0.65246  1.0000
  Zn  Zn2       1.0  0.8087499999999997  0.05192  0.58413  1.0000
  Zn  Zn3       1.0  0.88671  0.86384  0.15214  1.0000
  Zn  Zn4       1.0  0.69334  0.9506999999999998  0.08398  1.0000
  Zn  Zn5       1.0  0.38552  0.63673  0.8475400000000001  1.0000
  Zn  Zn6       1.0  0.19124  0.55192  0.9158700000000002  1.0000
  Zn  Zn7       1.0  0.11329  0.36384  0.34786  1.0000
  Zn  Zn8       1.0  0.30666  0.4507  0.41602  1.0000
  H   H1        1.0  0.1301  0.53415  0.57211  1.0000
  H   H2        1.0  0.90164  0.3685  0.68465  1.0000
  H   H3        1.0  0.9588699999999999  0.28565  0.50758  1.0000
  H   H4        1.0  0.8819299999999999  0.52974  0.71829  1.0000
  H   H5        1.0  0.99792  0.46228  0.75281  1.0000
  H   H6        1.0  0.12444999999999998  0.60801  0.7641400000000003  1.0000
  H   H7        1.0  0.98724  0.60927  0.8050700000000002  1.0000
  H   H8        1.0  0.9443599999999999  0.84627  0.6838  1.0000
  H   H9        1.0  0.57277  0.86372  0.7455  1.0000
  H   H10       1.0  0.79307  0.6283  0.79  1.0000
  H   H11       1.0  0.36950999999999995  0.46808  0.07206000000000001  1.0000
  H   H12       1.0  0.60025  0.63239  0.18398  1.0000
  H   H13       1.0  0.54245  0.7158  0.007130000000000002  1.0000
  H   H14       1.0  0.6172099999999999  0.47132  0.21739  1.0000
  H   H15       1.0  0.50204  0.53906  0.25256  1.0000
  H   H16       1.0  0.37555999999999995  0.39256  0.26415000000000005  1.0000
  H   H17       1.0  0.51279  0.39237  0.3048  1.0000
  H   H18       1.0  0.55534  0.15506  0.18431000000000003  1.0000
  H   H19       1.0  0.9266899999999998  0.13608  0.24529000000000004  1.0000
  H   H20       1.0  0.7077999999999999  0.37228  0.29041  1.0000
  H   H21       1.0  0.8698899999999998  0.03415  0.92789  1.0000
  H   H22       1.0  0.09834999999999999  0.8685  0.8153500000000002  1.0000
  H   H23       1.0  0.04112  0.78565  0.9924200000000001  1.0000
  H   H24       1.0  0.11805  0.02974  0.7817100000000001  1.0000
  H   H25       1.0  0.002069999999999999  0.96228  0.7471900000000002  1.0000
  H   H26       1.0  0.87554  0.10800999999999997  0.7358700000000001  1.0000
  H   H27       1.0  0.01275  0.10927  0.69494  1.0000
  H   H28       1.0  0.05563  0.34627  0.8162  1.0000
  H   H29       1.0  0.42722  0.36371999999999993  0.7545  1.0000
  H   H30       1.0  0.20692  0.1283  0.7100000000000002  1.0000
  H   H31       1.0  0.6304799999999999  0.96808  0.4279400000000001  1.0000
  H   H32       1.0  0.39975  0.13239  0.31602  1.0000
  H   H33       1.0  0.45754  0.21579999999999996  0.49287  1.0000
  H   H34       1.0  0.38278999999999996  0.97132  0.28261  1.0000
  H   H35       1.0  0.49795  0.03906  0.24744000000000005  1.0000
  H   H36       1.0  0.62444  0.8925599999999998  0.23585  1.0000
  H   H37       1.0  0.4872099999999999  0.89237  0.19520000000000007  1.0000
  H   H38       1.0  0.44464999999999993  0.65506  0.31569  1.0000
  H   H39       1.0  0.07331  0.6360799999999999  0.25471  1.0000
  H   H40       1.0  0.29219  0.87228  0.20960000000000004  1.0000
  C   C1        1.0  0.10812999999999999  0.4248799999999999  0.47628  1.0000
  C   C2        1.0  0.04685  0.41312  0.53314  1.0000
  C   C3        1.0  0.07009  0.47496  0.57846  1.0000
  C   C4        1.0  0.017169999999999998  0.46017  0.63302  1.0000
  C   C5        1.0  0.9420799999999998  0.3828  0.6426100000000001  1.0000
  C   C6        1.0  0.9235999999999999  0.3195499999999999  0.59717  1.0000
  C   C7        1.0  0.9739499999999999  0.33484  0.54241  1.0000
  C   C8        1.0  0.85668  0.23085  0.60634  1.0000
  C   C9        1.0  0.98012  0.52556  0.72744  1.0000
  C   C10       1.0  0.024919999999999998  0.6094999999999999  0.7609600000000001  1.0000
  C   C11       1.0  0.88533  0.7333899999999999  0.7374100000000002  1.0000
  C   C12       1.0  0.8694199999999999  0.81833  0.70906  1.0000
  C   C13       1.0  0.7586299999999998  0.86646  0.71271  1.0000
  C   C14       1.0  0.66008  0.82827  0.7433600000000001  1.0000
  C   C15       1.0  0.67531  0.74174  0.7699600000000001  1.0000
  C   C16       1.0  0.7875199999999998  0.69472  0.7678800000000001  1.0000
  C   C17       1.0  0.57181  0.6954299999999998  0.8005200000000001  1.0000
  C   C18       1.0  0.7492899999999999  0.95609  0.68105  1.0000
  C   C19       1.0  0.39149999999999996  0.5779999999999998  0.9761100000000001  1.0000
  C   C20       1.0  0.4528599999999999  0.58917  0.03297  1.0000
  C   C21       1.0  0.4294699999999999  0.52728  0.07831  1.0000
  C   C22       1.0  0.48278  0.54158  0.13278  1.0000
  C   C23       1.0  0.5591299999999999  0.61842  0.1421  1.0000
  C   C24       1.0  0.57861  0.6815  0.09649000000000002  1.0000
  C   C25       1.0  0.52716  0.66668  0.042  1.0000
  C   C26       1.0  0.64779  0.76955  0.10519  1.0000
  C   C27       1.0  0.5192599999999999  0.47575  0.22706000000000004  1.0000
  C   C28       1.0  0.47511  0.39168999999999987  0.26076  1.0000
  C   C29       1.0  0.61526  0.2677  0.23764000000000002  1.0000
  C   C30       1.0  0.6304799999999999  0.18266  0.20944000000000002  1.0000
  C   C31       1.0  0.74075  0.13411  0.21295000000000003  1.0000
  C   C32       1.0  0.83961  0.17186  0.24345  1.0000
  C   C33       1.0  0.82479  0.25831  0.27024  1.0000
  C   C34       1.0  0.71291  0.30585  0.26825  1.0000
  C   C35       1.0  0.9280599999999999  0.30487  0.30072000000000004  1.0000
  C   C36       1.0  0.74898  0.04497999999999999  0.18086000000000002  1.0000
  C   C37       1.0  0.89187  0.92488  0.02372  1.0000
  C   C38       1.0  0.95314  0.91312  0.9668700000000001  1.0000
  C   C39       1.0  0.9299  0.97496  0.92155  1.0000
  C   C40       1.0  0.98282  0.96017  0.86698  1.0000
  C   C41       1.0  0.057909999999999996  0.8827999999999999  0.8573900000000001  1.0000
  C   C42       1.0  0.07639  0.81955  0.9028300000000001  1.0000
  C   C43       1.0  0.02604  0.8348399999999999  0.95759  1.0000
  C   C44       1.0  0.14331  0.73085  0.89366  1.0000
  C   C45       1.0  0.019869999999999995  0.02556  0.7725600000000002  1.0000
  C   C46       1.0  0.9750699999999998  0.1095  0.73904  1.0000
  C   C47       1.0  0.11466  0.23338  0.76259  1.0000
  C   C48       1.0  0.13057  0.31833  0.79094  1.0000
  C   C49       1.0  0.24135999999999994  0.36646  0.7872900000000002  1.0000
  C   C50       1.0  0.33990999999999993  0.32827  0.75664  1.0000
  C   C51       1.0  0.32468  0.24174  0.73004  1.0000
  C   C52       1.0  0.21247  0.19472  0.73212  1.0000
  C   C53       1.0  0.42818  0.19542  0.69948  1.0000
  C   C54       1.0  0.2507  0.45607999999999993  0.81895  1.0000
  C   C55       1.0  0.60849  0.07799999999999997  0.52389  1.0000
  C   C56       1.0  0.54713  0.08917  0.46703  1.0000
  C   C57       1.0  0.57052  0.027279999999999992  0.42169000000000006  1.0000
  C   C58       1.0  0.51721  0.04158  0.36722000000000005  1.0000
  C   C59       1.0  0.44087  0.11842  0.3579  1.0000
  C   C60       1.0  0.42139  0.18148999999999998  0.40351  1.0000
  C   C61       1.0  0.4728399999999999  0.16668  0.458  1.0000
  C   C62       1.0  0.35221  0.26955  0.39481  1.0000
  C   C63       1.0  0.48073999999999995  0.97575  0.27294  1.0000
  C   C64       1.0  0.5248899999999999  0.89169  0.23925  1.0000
  C   C65       1.0  0.38474  0.7676999999999999  0.26236000000000004  1.0000
  C   C66       1.0  0.36950999999999995  0.68266  0.29056  1.0000
  C   C67       1.0  0.25924  0.63411  0.28705  1.0000
  C   C68       1.0  0.16038  0.67186  0.25655  1.0000
  C   C69       1.0  0.17521  0.7583099999999998  0.22976  1.0000
  C   C70       1.0  0.28708999999999996  0.8058499999999997  0.23175  1.0000
  C   C71       1.0  0.07193  0.80487  0.19928  1.0000
  C   C72       1.0  0.25102  0.54498  0.31914000000000003  1.0000
  O   O1        1.0  0.18784  0.49093  0.4718200000000001  1.0000
  O   O2        1.0  0.08511  0.36738  0.4358400000000001  1.0000
  O   O3        1.0  0.7767499999999999  0.22162999999999994  0.6455100000000001  1.0000
  O   O4        1.0  0.89046  0.16541  0.57102  1.0000
  O   O5        1.0  0.04823  0.52402  0.67416  1.0000
  O   O6        1.0  0.9994099999999999  0.69568  0.7319600000000003  1.0000
  O   O7        1.0  0.46633  0.73592  0.8001300000000001  1.0000
  O   O8        1.0  0.58692  0.6183  0.82579  1.0000
  O   O9        1.0  0.65614  0.00812  0.68583  1.0000
  O   O10       1.0  0.84271  0.97573  0.64857  1.0000
  O   O11       1.0  0.30889  0.51396  0.97237  1.0000
  O   O12       1.0  0.41767999999999994  0.63376  0.93513  1.0000
  O   O13       1.0  0.72506  0.77862  0.14538  1.0000
  O   O14       1.0  0.61862  0.83455  0.06863  1.0000
  O   O15       1.0  0.45092  0.47752  0.17393  1.0000
  O   O16       1.0  0.50162  0.30561  0.23182  1.0000
  O   O17       1.0  0.03568  0.26814  0.29724  1.0000
  O   O18       1.0  0.9104899999999999  0.37909  0.32892  1.0000
  O   O19       1.0  0.84129  0.9921  0.18556  1.0000
  O   O20       1.0  0.6556  0.02714  0.14804  1.0000
  O   O21       1.0  0.8121499999999999  0.9909299999999998  0.02818  1.0000
  O   O22       1.0  0.9148899999999999  0.86738  0.06417  1.0000
  O   O23       1.0  0.22324  0.72163  0.8544900000000001  1.0000
  O   O24       1.0  0.10953  0.6654099999999997  0.9289900000000001  1.0000
  O   O25       1.0  0.9517599999999999  0.024019999999999993  0.82584  1.0000
  O   O26       1.0  0.0005799999999999996  0.19568  0.7680500000000001  1.0000
  O   O27       1.0  0.53366  0.23592  0.69987  1.0000
  O   O28       1.0  0.4130699999999999  0.1183  0.67421  1.0000
  O   O29       1.0  0.34385  0.50813  0.81417  1.0000
  O   O30       1.0  0.15727999999999998  0.47573  0.85143  1.0000
  O   O31       1.0  0.6910999999999999  0.01396  0.52764  1.0000
  O   O32       1.0  0.58231  0.13376  0.5648700000000001  1.0000
  O   O33       1.0  0.27494  0.27862  0.35462  1.0000
  O   O34       1.0  0.38137  0.33455  0.43137  1.0000
  O   O35       1.0  0.54908  0.9775199999999997  0.32607  1.0000
  O   O36       1.0  0.49838  0.80561  0.26818  1.0000
  O   O37       1.0  0.9643199999999997  0.76814  0.20276  1.0000
  O   O38       1.0  0.08950999999999999  0.8790899999999998  0.17108000000000004  1.0000
  O   O39       1.0  0.15871  0.4921  0.31444  1.0000
  O   O40       1.0  0.34439  0.52714  0.35196  1.0000
