data_image0
_chemical_formula_structural       Ni4H64C96N8O20
_chemical_formula_sum              "Ni4 H64 C96 N8 O20"
_cell_length_a       11.2875
_cell_length_b       11.2878
_cell_length_c       19.491110000000003
_cell_angle_alpha    84.26789000000001
_cell_angle_beta     84.29378000000001
_cell_angle_gamma    67.03131

_symmetry_space_group_name_H-M    'P 1'
_symmetry_Int_Tables_number       1

loop_
  _symmetry_equiv_pos_as_xyz
  'x,y,z'

loop_
  _atom_site_type_symbol
  _atom_site_label
  _atom_site_symmetry_multiplicity
  _atom_site_fract_x
  _atom_site_fract_y
  _atom_site_fract_z
  _atom_site_occupancy
  Ni  Ni1       1.0  0.13971000000000003  0.98033  0.07517  1.0000
  Ni  Ni2       1.0  0.019350000000000048  0.8602899999999999  0.42454000000000003  1.0000
  Ni  Ni3       1.0  0.86029  0.019660000000000018  0.9248299999999999  1.0000
  Ni  Ni4       1.0  0.98065  0.1397  0.57546  1.0000
  H   H1        1.0  0.026530000000000022  0.81953  0.1686  1.0000
  H   H2        1.0  0.01584000000000003  0.60342  0.17425  1.0000
  H   H3        1.0  0.26615000000000005  0.53062  0.98652  1.0000
  H   H4        1.0  0.2624  0.75171  0.98832  1.0000
  H   H5        1.0  0.17548  0.40143  0.9684999999999999  1.0000
  H   H6        1.0  0.17768  0.17843  0.97324  1.0000
  H   H7        1.0  0.10429999999999999  0.16836  0.18465  1.0000
  H   H8        1.0  0.09926000000000004  0.3896099999999999  0.19071  1.0000
  H   H9        1.0  0.9408900000000002  0.36599  0.45508  1.0000
  H   H10       1.0  0.88398  0.57886  0.38604  1.0000
  H   H11       1.0  0.82066  0.40900999999999993  0.21234  1.0000
  H   H12       1.0  0.8838700000000003  0.19479999999999997  0.28075  1.0000
  H   H13       1.0  0.79745  0.7365899999999999  0.13556  1.0000
  H   H14       1.0  0.58664  0.84517  0.07893  1.0000
  H   H15       1.0  0.38748  0.74497  0.25989  1.0000
  H   H16       1.0  0.5985400000000002  0.62473  0.31365  1.0000
  H   H17       1.0  0.18041000000000004  0.9730499999999999  0.33133  1.0000
  H   H18       1.0  0.39656  0.98385  0.32568  1.0000
  H   H19       1.0  0.46952  0.73361  0.51341  1.0000
  H   H20       1.0  0.24819999999999998  0.73768  0.51179  1.0000
  H   H21       1.0  0.59861  0.82416  0.53146  1.0000
  H   H22       1.0  0.8215400000000003  0.8221099999999999  0.52677  1.0000
  H   H23       1.0  0.83158  0.89554  0.31532  1.0000
  H   H24       1.0  0.6102700000000001  0.9004299999999997  0.3093  1.0000
  H   H25       1.0  0.6335400000000002  0.059669999999999994  0.04485  1.0000
  H   H26       1.0  0.42100000000000004  0.11609  0.11383  1.0000
  H   H27       1.0  0.59097  0.17898  0.28774  1.0000
  H   H28       1.0  0.80505  0.11656999999999998  0.21907  1.0000
  H   H29       1.0  0.2622200000000002  0.20299999999999996  0.364  1.0000
  H   H30       1.0  0.15413000000000013  0.41363  0.42066  1.0000
  H   H31       1.0  0.25481000000000004  0.6125899999999999  0.23977  1.0000
  H   H32       1.0  0.37425  0.40176999999999996  0.18583  1.0000
  H   H33       1.0  0.97347  0.18045999999999998  0.8314  1.0000
  H   H34       1.0  0.9841600000000005  0.39656999999999987  0.82575  1.0000
  H   H35       1.0  0.73385  0.46936999999999995  0.01349  1.0000
  H   H36       1.0  0.7376000000000001  0.24828  0.01169  1.0000
  H   H37       1.0  0.82452  0.5985599999999999  0.03151  1.0000
  H   H38       1.0  0.8223200000000005  0.8215699999999998  0.02676  1.0000
  H   H39       1.0  0.8957000000000002  0.8316299999999998  0.81535  1.0000
  H   H40       1.0  0.9007400000000002  0.61038  0.80929  1.0000
  H   H41       1.0  0.05911000000000001  0.634  0.54492  1.0000
  H   H42       1.0  0.11602000000000003  0.42113  0.61396  1.0000
  H   H43       1.0  0.17934000000000003  0.59099  0.78766  1.0000
  H   H44       1.0  0.11613000000000005  0.8051899999999997  0.71926  1.0000
  H   H45       1.0  0.20255000000000015  0.2634  0.86444  1.0000
  H   H46       1.0  0.4133600000000001  0.15481999999999999  0.92107  1.0000
  H   H47       1.0  0.61252  0.25502  0.74011  1.0000
  H   H48       1.0  0.40146000000000004  0.37527  0.68635  1.0000
  H   H49       1.0  0.81959  0.026940000000000002  0.66867  1.0000
  H   H50       1.0  0.60343  0.016150000000000008  0.67432  1.0000
  H   H51       1.0  0.53048  0.26638  0.48659  1.0000
  H   H52       1.0  0.7517999999999999  0.26230999999999993  0.48821000000000003  1.0000
  H   H53       1.0  0.40139  0.17583  0.46854  1.0000
  H   H54       1.0  0.17844999999999994  0.17787999999999998  0.47323000000000004  1.0000
  H   H55       1.0  0.16841999999999996  0.10445  0.68468  1.0000
  H   H56       1.0  0.38973  0.09955999999999998  0.6907  1.0000
  H   H57       1.0  0.3664600000000001  0.9403199999999999  0.9551499999999999  1.0000
  H   H58       1.0  0.579  0.8839  0.8861700000000001  1.0000
  H   H59       1.0  0.4090300000000001  0.8210099999999998  0.71226  1.0000
  H   H60       1.0  0.19495000000000004  0.88342  0.78093  1.0000
  H   H61       1.0  0.73778  0.7969899999999998  0.636  1.0000
  H   H62       1.0  0.84587  0.58636  0.57934  1.0000
  H   H63       1.0  0.7451900000000001  0.3874  0.76023  1.0000
  H   H64       1.0  0.6257500000000001  0.5982200000000001  0.81417  1.0000
  C   C1        1.0  0.07542  0.75324  0.12846  1.0000
  C   C2        1.0  0.07147000000000002  0.63112  0.13146  1.0000
  C   C3        1.0  0.13844000000000006  0.54716  0.07955  1.0000
  C   C4        1.0  0.20871000000000006  0.59181  0.02717  1.0000
  C   C5        1.0  0.20750999999999997  0.71535  0.02771  1.0000
  C   C6        1.0  0.13755000000000006  0.41635  0.07975  1.0000
  C   C7        1.0  0.16017  0.35416  0.01802  1.0000
  C   C8        1.0  0.16196  0.23026  0.019610000000000002  1.0000
  C   C9        1.0  0.11931999999999998  0.22407999999999995  0.13817  1.0000
  C   C10       1.0  0.11584  0.34834  0.14086  1.0000
  C   C11       1.0  0.91754  0.26722  0.37155  1.0000
  C   C12       1.0  0.9167399999999999  0.37545  0.4016  1.0000
  C   C13       1.0  0.88344  0.49435999999999997  0.36386  1.0000
  C   C14       1.0  0.85056  0.5036899999999999  0.29592  1.0000
  C   C15       1.0  0.84798  0.39783999999999997  0.26529  1.0000
  C   C16       1.0  0.8820199999999999  0.27973  0.3033600000000001  1.0000
  C   C17       1.0  0.9606500000000001  0.13826  0.41115  1.0000
  C   C18       1.0  0.7086400000000003  0.67527  0.22715  1.0000
  C   C19       1.0  0.7072500000000002  0.7373899999999999  0.16139  1.0000
  C   C20       1.0  0.5904700000000003  0.7985999999999998  0.13069  1.0000
  C   C21       1.0  0.4747700000000001  0.80278  0.16628  1.0000
  C   C22       1.0  0.47778000000000004  0.7407299999999999  0.23252  1.0000
  C   C23       1.0  0.59475  0.67476  0.26277  1.0000
  C   C24       1.0  0.35070000000000007  0.87328  0.13331  1.0000
  C   C25       1.0  0.24672  0.92425  0.37149  1.0000
  C   C26       1.0  0.36884000000000006  0.9282299999999998  0.36846  1.0000
  C   C27       1.0  0.45286  0.86125  0.42038000000000003  1.0000
  C   C28       1.0  0.40819000000000005  0.79106  0.47279  1.0000
  C   C29       1.0  0.28458  0.79238  0.4723  1.0000
  C   C30       1.0  0.5837  0.8621399999999999  0.42021  1.0000
  C   C31       1.0  0.6459  0.83951  0.48195  1.0000
  C   C32       1.0  0.76977  0.83785  0.48037  1.0000
  C   C33       1.0  0.7758800000000002  0.8805299999999999  0.3618  1.0000
  C   C34       1.0  0.6516699999999999  0.88388  0.35912  1.0000
  C   C35       1.0  0.73245  0.08282  0.12843  1.0000
  C   C36       1.0  0.62427  0.08354  0.09834  1.0000
  C   C37       1.0  0.5054400000000002  0.11664999999999998  0.13609  1.0000
  C   C38       1.0  0.4961  0.14929999999999996  0.20406  1.0000
  C   C39       1.0  0.60198  0.15195  0.23475  1.0000
  C   C40       1.0  0.72001  0.11824  0.19661  1.0000
  C   C41       1.0  0.86143  0.03957  0.08889  1.0000
  C   C42       1.0  0.3243000000000001  0.29145999999999994  0.27256  1.0000
  C   C43       1.0  0.26197000000000004  0.29312  0.33829  1.0000
  C   C44       1.0  0.20078999999999997  0.40996  0.36893  1.0000
  C   C45       1.0  0.1968500000000001  0.5255399999999999  0.3332  1.0000
  C   C46       1.0  0.25906  0.52223  0.26706  1.0000
  C   C47       1.0  0.32487  0.40529  0.23686  1.0000
  C   C48       1.0  0.12639  0.65007  0.3656  1.0000
  C   C49       1.0  0.92458  0.24675  0.8715500000000002  1.0000
  C   C50       1.0  0.92853  0.3688699999999999  0.86854  1.0000
  C   C51       1.0  0.8615600000000002  0.45283  0.9204500000000001  1.0000
  C   C52       1.0  0.79129  0.4081799999999999  0.97284  1.0000
  C   C53       1.0  0.79249  0.28464000000000006  0.97229  1.0000
  C   C54       1.0  0.8624500000000002  0.58364  0.9202500000000001  1.0000
  C   C55       1.0  0.83983  0.64583  0.98198  1.0000
  C   C56       1.0  0.8380400000000001  0.7697399999999999  0.98039  1.0000
  C   C57       1.0  0.8806800000000001  0.7759099999999999  0.8618300000000001  1.0000
  C   C58       1.0  0.8841600000000002  0.6516599999999998  0.85914  1.0000
  C   C59       1.0  0.08246000000000002  0.73277  0.62846  1.0000
  C   C60       1.0  0.08326000000000003  0.62455  0.5984  1.0000
  C   C61       1.0  0.11656000000000001  0.50563  0.63614  1.0000
  C   C62       1.0  0.14944000000000002  0.4963  0.70408  1.0000
  C   C63       1.0  0.15202000000000004  0.6021599999999999  0.73471  1.0000
  C   C64       1.0  0.11798000000000003  0.72026  0.69665  1.0000
  C   C65       1.0  0.03934999999999998  0.86174  0.58886  1.0000
  C   C66       1.0  0.29136000000000006  0.32472  0.77285  1.0000
  C   C67       1.0  0.29275  0.2626  0.8386199999999999  1.0000
  C   C68       1.0  0.40953  0.20138999999999999  0.86931  1.0000
  C   C69       1.0  0.5252300000000002  0.19720999999999997  0.83372  1.0000
  C   C70       1.0  0.52222  0.25926  0.76748  1.0000
  C   C71       1.0  0.40525000000000017  0.3252299999999999  0.73723  1.0000
  C   C72       1.0  0.6492999999999999  0.12671  0.86669  1.0000
  C   C73       1.0  0.75328  0.07574  0.62851  1.0000
  C   C74       1.0  0.6311500000000001  0.07175999999999999  0.63154  1.0000
  C   C75       1.0  0.54713  0.13874  0.57962  1.0000
  C   C76       1.0  0.59181  0.20892999999999995  0.52721  1.0000
  C   C77       1.0  0.7154100000000001  0.20761  0.5277  1.0000
  C   C78       1.0  0.4163000000000001  0.13785999999999995  0.57979  1.0000
  C   C79       1.0  0.35409999999999997  0.16048000000000004  0.51805  1.0000
  C   C80       1.0  0.23023000000000005  0.16213999999999995  0.51963  1.0000
  C   C81       1.0  0.22412000000000018  0.11946  0.6382  1.0000
  C   C82       1.0  0.3483300000000001  0.11611  0.64088  1.0000
  C   C83       1.0  0.26754  0.91717  0.87158  1.0000
  C   C84       1.0  0.37572999999999995  0.91645  0.9016599999999999  1.0000
  C   C85       1.0  0.49456000000000006  0.88334  0.8639100000000001  1.0000
  C   C86       1.0  0.5038999999999999  0.85069  0.79594  1.0000
  C   C87       1.0  0.39802  0.84804  0.7652500000000001  1.0000
  C   C88       1.0  0.27999  0.8817499999999999  0.8033900000000002  1.0000
  C   C89       1.0  0.13857000000000005  0.9604199999999999  0.9111099999999999  1.0000
  C   C90       1.0  0.6757000000000002  0.7085299999999998  0.72744  1.0000
  C   C91       1.0  0.7380299999999999  0.7068700000000001  0.66171  1.0000
  C   C92       1.0  0.79921  0.59003  0.63107  1.0000
  C   C93       1.0  0.80315  0.47445  0.6668  1.0000
  C   C94       1.0  0.74094  0.47775999999999996  0.73294  1.0000
  C   C95       1.0  0.6751399999999999  0.5947  0.76314  1.0000
  C   C96       1.0  0.8736100000000001  0.34992  0.6344  1.0000
  N   N1        1.0  0.1407  0.79596  0.07692  1.0000
  N   N2        1.0  0.14251000000000003  0.16522  0.07857  1.0000
  N   N3        1.0  0.20394000000000007  0.85908  0.42305  1.0000
  N   N4        1.0  0.83474  0.8574199999999998  0.42140999999999995  1.0000
  N   N5        1.0  0.8593  0.20402999999999996  0.9230900000000001  1.0000
  N   N6        1.0  0.85749  0.83477  0.92143  1.0000
  N   N7        1.0  0.79605  0.14090999999999998  0.57695  1.0000
  N   N8        1.0  0.16525999999999993  0.14257  0.57859  1.0000
  O   O1        1.0  0.35283000000000003  0.8942999999999999  0.0674  1.0000
  O   O2        1.0  0.24436999999999995  0.91097  0.1706  1.0000
  O   O3        1.0  0.8266800000000002  0.62024  0.25682  1.0000
  O   O4        1.0  0.018339999999999988  0.12533  0.46576000000000006  1.0000
  O   O5        1.0  0.9408500000000002  0.04837000000000001  0.38506  1.0000
  O   O6        1.0  0.10531000000000004  0.64832  0.43146000000000007  1.0000
  O   O7        1.0  0.08882000000000008  0.7561399999999998  0.32805  1.0000
  O   O8        1.0  0.37941  0.17324999999999996  0.24306000000000003  1.0000
  O   O9        1.0  0.8745700000000003  0.9817399999999998  0.03433  1.0000
  O   O10       1.0  0.9514  0.05927  0.11496999999999999  1.0000
  O   O11       1.0  0.6471699999999999  0.10569  0.9326  1.0000
  O   O12       1.0  0.75562  0.08902999999999998  0.8294  1.0000
  O   O13       1.0  0.17332  0.3797599999999999  0.7431800000000001  1.0000
  O   O14       1.0  0.98166  0.87466  0.53424  1.0000
  O   O15       1.0  0.059150000000000015  0.95162  0.61494  1.0000
  O   O16       1.0  0.89468  0.35167999999999994  0.56853  1.0000
  O   O17       1.0  0.91118  0.24385  0.67194  1.0000
  O   O18       1.0  0.62059  0.82674  0.75694  1.0000
  O   O19       1.0  0.12542000000000003  0.018259999999999967  0.96567  1.0000
  O   O20       1.0  0.04860999999999991  0.94072  0.88503  1.0000
