data_image0
_chemical_formula_structural       Cu12H48C72N60O24
_chemical_formula_sum              "Cu12 H48 C72 N60 O24"
_cell_length_a       12.4169
_cell_length_b       17.9304
_cell_length_c       17.91453
_cell_angle_alpha    114.87045
_cell_angle_beta     103.35418
_cell_angle_gamma    103.38445999999999

_symmetry_space_group_name_H-M    'P 1'
_symmetry_Int_Tables_number       1

loop_
  _symmetry_equiv_pos_as_xyz
  'x,y,z'

loop_
  _atom_site_type_symbol
  _atom_site_label
  _atom_site_symmetry_multiplicity
  _atom_site_fract_x
  _atom_site_fract_y
  _atom_site_fract_z
  _atom_site_occupancy
  Cu  Cu1       1.0  0.40257999999999994  0.46176000000000006  0.02232  1.0000
  Cu  Cu2       1.0  0.85618  0.88133  0.31503000000000003  1.0000
  Cu  Cu3       1.0  0.94112  0.56068  0.53809  1.0000
  Cu  Cu4       1.0  0.97377  0.43311  0.11836  1.0000
  Cu  Cu5       1.0  0.38069  0.97748  0.43932  1.0000
  Cu  Cu6       1.0  0.5399700000000002  0.68489  0.56592  1.0000
  Cu  Cu7       1.0  0.5974200000000001  0.53823  0.9776700000000002  1.0000
  Cu  Cu8       1.0  0.14381  0.11866000000000004  0.68496  1.0000
  Cu  Cu9       1.0  0.05888000000000003  0.4393100000000001  0.4619  1.0000
  Cu  Cu10      1.0  0.026230000000000024  0.56688  0.88164  1.0000
  Cu  Cu11      1.0  0.61931  0.022509999999999995  0.56068  1.0000
  Cu  Cu12      1.0  0.46002  0.3151  0.43407  1.0000
  H   H1        1.0  0.38364  0.52719  0.20589  1.0000
  H   H2        1.0  0.80749  0.72732  0.12553  1.0000
  H   H3        1.0  0.7867100000000001  0.8027900000000002  0.42626  1.0000
  H   H4        1.0  0.67895  0.75043  0.45202  1.0000
  H   H5        1.0  0.39683  0.34358  0.11204  1.0000
  H   H6        1.0  0.83185  0.4864200000000001  0.00708  1.0000
  H   H7        1.0  0.72069  0.30566  0.22975  1.0000
  H   H8        1.0  0.83752  0.35183  0.20564  1.0000
  H   H9        1.0  0.8567700000000001  0.67863  0.4725900000000001  1.0000
  H   H10       1.0  0.08  0.39776  0.2726  1.0000
  H   H11       1.0  0.9837100000000001  0.62298  0.19689  1.0000
  H   H12       1.0  0.92844  0.70093  0.2496  1.0000
  H   H13       1.0  0.053319999999999985  0.76872  0.65594  1.0000
  H   H14       1.0  0.34523  0.5207300000000002  0.51413  1.0000
  H   H15       1.0  0.4157400000000001  0.9242400000000001  0.69418  1.0000
  H   H16       1.0  0.4862700000000001  0.8538200000000002  0.6481500000000001  1.0000
  H   H17       1.0  0.17768  0.79391  0.32072  1.0000
  H   H18       1.0  0.68185  0.87477  0.60192  1.0000
  H   H19       1.0  0.35834  0.57323  0.3767300000000001  1.0000
  H   H20       1.0  0.22571  0.54845  0.29818  1.0000
  H   H21       1.0  0.28508  0.88744  0.23160000000000006  1.0000
  H   H22       1.0  0.82531  0.9930200000000001  0.47972  1.0000
  H   H23       1.0  0.491  0.76971  0.07574  1.0000
  H   H24       1.0  0.63212  0.7941  0.14615  1.0000
  H   H25       1.0  0.61635  0.47280000000000005  0.7941  1.0000
  H   H26       1.0  0.19250000000000003  0.27267  0.87446  1.0000
  H   H27       1.0  0.21327999999999994  0.19719999999999993  0.57373  1.0000
  H   H28       1.0  0.32104  0.24956  0.54797  1.0000
  H   H29       1.0  0.6031600000000001  0.6564100000000003  0.88796  1.0000
  H   H30       1.0  0.16815  0.51357  0.99292  1.0000
  H   H31       1.0  0.2793  0.69434  0.77025  1.0000
  H   H32       1.0  0.16248000000000015  0.6481600000000002  0.7943600000000002  1.0000
  H   H33       1.0  0.14322  0.32136  0.52741  1.0000
  H   H34       1.0  0.92  0.6022300000000002  0.72741  1.0000
  H   H35       1.0  0.016289999999999957  0.37701  0.80311  1.0000
  H   H36       1.0  0.07156000000000003  0.29906000000000005  0.7504  1.0000
  H   H37       1.0  0.9466699999999999  0.23128000000000004  0.34405  1.0000
  H   H38       1.0  0.6547700000000001  0.47926  0.48588  1.0000
  H   H39       1.0  0.58425  0.07575  0.30582  1.0000
  H   H40       1.0  0.51373  0.14618  0.35185  1.0000
  H   H41       1.0  0.82232  0.20608  0.67927  1.0000
  H   H42       1.0  0.31814  0.12523000000000004  0.39808  1.0000
  H   H43       1.0  0.64167  0.42676  0.62327  1.0000
  H   H44       1.0  0.77429  0.45154  0.70182  1.0000
  H   H45       1.0  0.71492  0.11254999999999997  0.7684  1.0000
  H   H46       1.0  0.17469000000000004  0.006969999999999971  0.52027  1.0000
  H   H47       1.0  0.5089900000000002  0.2302900000000001  0.92425  1.0000
  H   H48       1.0  0.36788  0.20589  0.85384  1.0000
  C   C1        1.0  0.09309000000000002  0.93508  0.33972  1.0000
  C   C2        1.0  0.0686  0.019760000000000007  0.39086  1.0000
  C   C3        1.0  0.46564  0.57673  0.21822  1.0000
  C   C4        1.0  0.5934700000000003  0.62898  0.16327  1.0000
  C   C5        1.0  0.66374  0.70238  0.24769  1.0000
  C   C6        1.0  0.63434  0.70345  0.32001  1.0000
  C   C7        1.0  0.7441500000000001  0.70793  0.15303  1.0000
  C   C8        1.0  0.48511  0.3588  0.10859  1.0000
  C   C9        1.0  0.61632  0.41997  0.0612  1.0000
  C   C10       1.0  0.70465  0.39714  0.10179  1.0000
  C   C11       1.0  0.67419  0.35332  0.14802000000000004  1.0000
  C   C12       1.0  0.77269  0.46068000000000003  0.03358  1.0000
  C   C13       1.0  0.15703  0.40443  0.06413  1.0000
  C   C14       1.0  0.047739999999999984  0.37134  0.97951  1.0000
  C   C15       1.0  0.88904  0.64123  0.42304  1.0000
  C   C16       1.0  0.9647600000000001  0.53414  0.37102  1.0000
  C   C17       1.0  0.9616  0.54491  0.29755  1.0000
  C   C18       1.0  0.9309200000000001  0.61595  0.29629  1.0000
  C   C19       1.0  0.03633000000000001  0.44477  0.29214  1.0000
  C   C20       1.0  0.12660999999999994  0.75015  0.64114  1.0000
  C   C21       1.0  0.19658999999999993  0.64151  0.58039  1.0000
  C   C22       1.0  0.30769  0.70483  0.60283  1.0000
  C   C23       1.0  0.32128000000000007  0.7949300000000001  0.64663  1.0000
  C   C24       1.0  0.3119000000000001  0.57297  0.5397700000000001  1.0000
  C   C25       1.0  0.7521100000000001  0.65963  0.595  1.0000
  C   C26       1.0  0.67488  0.60678  0.62642  1.0000
  C   C27       1.0  0.24727  0.78173  0.35812  1.0000
  C   C28       1.0  0.43001  0.83673  0.46556000000000003  1.0000
  C   C29       1.0  0.41582  0.75245  0.45461  1.0000
  C   C30       1.0  0.31394000000000005  0.6801399999999999  0.3833  1.0000
  C   C31       1.0  0.5909400000000002  0.8472600000000003  0.55502  1.0000
  C   C32       1.0  0.37694999999999995  0.89116  0.25015  1.0000
  C   C33       1.0  0.55574  0.9388  0.35884  1.0000
  C   C34       1.0  0.60353  0.89826  0.29536  1.0000
  C   C35       1.0  0.5266700000000001  0.8519000000000002  0.20522  1.0000
  C   C36       1.0  0.73968  0.9665  0.42735  1.0000
  C   C37       1.0  0.9068899999999999  0.06491000000000004  0.66027  1.0000
  C   C38       1.0  0.9313800000000002  0.9802300000000002  0.6091300000000001  1.0000
  C   C39       1.0  0.53435  0.4232600000000001  0.78177  1.0000
  C   C40       1.0  0.4065200000000001  0.37101000000000006  0.8367200000000001  1.0000
  C   C41       1.0  0.33625  0.29761000000000004  0.7523  1.0000
  C   C42       1.0  0.36565  0.29654  0.67998  1.0000
  C   C43       1.0  0.25585  0.29206  0.84697  1.0000
  C   C44       1.0  0.5148900000000001  0.6412  0.8914100000000001  1.0000
  C   C45       1.0  0.38367999999999997  0.58002  0.9388  1.0000
  C   C46       1.0  0.2953499999999999  0.60286  0.89821  1.0000
  C   C47       1.0  0.32580000000000003  0.6466800000000001  0.85198  1.0000
  C   C48       1.0  0.22731  0.53932  0.96642  1.0000
  C   C49       1.0  0.84295  0.5955500000000001  0.93586  1.0000
  C   C50       1.0  0.9522400000000001  0.6286400000000002  0.02048  1.0000
  C   C51       1.0  0.11095000000000003  0.3587600000000001  0.57695  1.0000
  C   C52       1.0  0.03524000000000005  0.46586000000000005  0.62898  1.0000
  C   C53       1.0  0.03839999999999999  0.45508  0.70245  1.0000
  C   C54       1.0  0.06908  0.38404  0.70371  1.0000
  C   C55       1.0  0.96367  0.55522  0.70786  1.0000
  C   C56       1.0  0.87339  0.24985  0.35886  1.0000
  C   C57       1.0  0.80341  0.35849  0.41961  1.0000
  C   C58       1.0  0.6923  0.29517  0.39717  1.0000
  C   C59       1.0  0.67871  0.20507  0.35337  1.0000
  C   C60       1.0  0.6881  0.42702  0.46024  1.0000
  C   C61       1.0  0.24787000000000003  0.34037000000000006  0.40499  1.0000
  C   C62       1.0  0.32510000000000006  0.3932200000000001  0.37357  1.0000
  C   C63       1.0  0.75272  0.21826000000000007  0.64187  1.0000
  C   C64       1.0  0.56999  0.16326  0.53444  1.0000
  C   C65       1.0  0.58417  0.24754  0.54539  1.0000
  C   C66       1.0  0.68605  0.31984  0.61669  1.0000
  C   C67       1.0  0.40905  0.15273  0.44498  1.0000
  C   C68       1.0  0.6230500000000002  0.10883000000000007  0.7498500000000002  1.0000
  C   C69       1.0  0.4442500000000001  0.06119000000000008  0.6411600000000001  1.0000
  C   C70       1.0  0.39646  0.10173000000000001  0.70463  1.0000
  C   C71       1.0  0.47333  0.1481  0.79477  1.0000
  C   C72       1.0  0.2603100000000001  0.03349000000000003  0.57264  1.0000
  N   N1        1.0  0.53132  0.6400200000000001  0.30173  1.0000
  N   N2        1.0  0.49173000000000006  0.5659299999999999  0.14612  1.0000
  N   N3        1.0  0.7587  0.7532  0.23954000000000006  1.0000
  N   N4        1.0  0.6460000000000001  0.63235  0.10454  1.0000
  N   N5        1.0  0.7013500000000001  0.7618499999999999  0.40556  1.0000
  N   N6        1.0  0.56231  0.33413  0.14889  1.0000
  N   N7        1.0  0.50549  0.40154000000000006  0.06369  1.0000
  N   N8        1.0  0.80433  0.42406  0.08297  1.0000
  N   N9        1.0  0.66107  0.46115  0.01931  1.0000
  N   N10       1.0  0.74839  0.3266800000000001  0.19043  1.0000
  N   N11       1.0  0.89115  0.66111  0.35958  1.0000
  N   N12       1.0  0.9260700000000001  0.58014  0.43401  1.0000
  N   N13       1.0  0.005530000000000004  0.48578  0.24672  1.0000
  N   N14       1.0  0.013910000000000013  0.47211000000000003  0.36779  1.0000
  N   N15       1.0  0.9393800000000001  0.64303  0.23792  1.0000
  N   N16       1.0  0.22859999999999997  0.8150899999999999  0.66577  1.0000
  N   N17       1.0  0.10422999999999999  0.66249  0.59872  1.0000
  N   N18       1.0  0.38021000000000005  0.65891  0.57584  1.0000
  N   N19       1.0  0.19993  0.55837  0.53952  1.0000
  N   N20       1.0  0.42235  0.8639200000000002  0.67334  1.0000
  N   N21       1.0  0.22926  0.69834  0.33801  1.0000
  N   N22       1.0  0.34548  0.85379  0.41956  1.0000
  N   N23       1.0  0.5189200000000002  0.7608000000000001  0.51381  1.0000
  N   N24       1.0  0.5412600000000001  0.8955700000000001  0.52777  1.0000
  N   N25       1.0  0.29502  0.59467  0.35595  1.0000
  N   N26       1.0  0.41385000000000005  0.8509  0.18511000000000005  1.0000
  N   N27       1.0  0.44235  0.93615  0.33786  1.0000
  N   N28       1.0  0.7220900000000001  0.91714  0.34126  1.0000
  N   N29       1.0  0.64228  0.98074  0.44203  1.0000
  N   N30       1.0  0.55829  0.80933  0.13603  1.0000
  N   N31       1.0  0.4686700000000001  0.35997  0.69826  1.0000
  N   N32       1.0  0.50826  0.43406  0.85387  1.0000
  N   N33       1.0  0.24129000000000003  0.24679000000000004  0.76045  1.0000
  N   N34       1.0  0.3539999999999999  0.36764  0.89545  1.0000
  N   N35       1.0  0.29864  0.23813999999999994  0.59443  1.0000
  N   N36       1.0  0.43768  0.66587  0.85111  1.0000
  N   N37       1.0  0.49451  0.59845  0.9363  1.0000
  N   N38       1.0  0.19567  0.57594  0.91703  1.0000
  N   N39       1.0  0.33893000000000006  0.53884  0.98068  1.0000
  N   N40       1.0  0.25161000000000006  0.67331  0.8095700000000002  1.0000
  N   N41       1.0  0.10885000000000007  0.33888  0.64041  1.0000
  N   N42       1.0  0.07391999999999997  0.41985  0.56599  1.0000
  N   N43       1.0  0.9944700000000001  0.51422  0.75328  1.0000
  N   N44       1.0  0.9861  0.52788  0.63221  1.0000
  N   N45       1.0  0.060619999999999986  0.35696  0.76207  1.0000
  N   N46       1.0  0.77139  0.18491  0.33422  1.0000
  N   N47       1.0  0.8957700000000002  0.33751  0.40128  1.0000
  N   N48       1.0  0.61979  0.34108  0.42417  1.0000
  N   N49       1.0  0.80007  0.4416300000000001  0.46048  1.0000
  N   N50       1.0  0.57765  0.13608  0.32666  1.0000
  N   N51       1.0  0.77074  0.30165  0.66198  1.0000
  N   N52       1.0  0.65452  0.14619999999999994  0.58043  1.0000
  N   N53       1.0  0.48108000000000006  0.23919  0.48619  1.0000
  N   N54       1.0  0.45873  0.10441999999999996  0.47223  1.0000
  N   N55       1.0  0.70498  0.40533  0.64406  1.0000
  N   N56       1.0  0.58615  0.1491  0.81489  1.0000
  N   N57       1.0  0.5576500000000001  0.06384000000000006  0.6621300000000001  1.0000
  N   N58       1.0  0.27791  0.08284999999999998  0.65874  1.0000
  N   N59       1.0  0.3577100000000001  0.01925000000000002  0.55796  1.0000
  N   N60       1.0  0.44170000000000004  0.19066000000000002  0.86396  1.0000
  O   O1        1.0  0.0007800000000000101  0.86184  0.29621  1.0000
  O   O2        1.0  0.9614100000000002  0.004740000000000004  0.39175  1.0000
  O   O3        1.0  0.19662000000000002  0.9400400000000001  0.34351  1.0000
  O   O4        1.0  0.14848000000000003  0.09386  0.42919  1.0000
  O   O5        1.0  0.13798  0.43385  0.13735  1.0000
  O   O6        1.0  0.9552900000000002  0.38641000000000014  0.9947600000000002  1.0000
  O   O7        1.0  0.25554  0.40301  0.05919  1.0000
  O   O8        1.0  0.05354000000000004  0.33662  0.9053  1.0000
  O   O9        1.0  0.7043  0.70436  0.56675  1.0000
  O   O10       1.0  0.56692  0.6061  0.61019  1.0000
  O   O11       1.0  0.8520500000000001  0.65612  0.5963400000000001  1.0000
  O   O12       1.0  0.71505  0.56691  0.6607100000000001  1.0000
  O   O13       1.0  0.99921  0.13814999999999994  0.70378  1.0000
  O   O14       1.0  0.03857  0.99526  0.60823  1.0000
  O   O15       1.0  0.80337  0.059950000000000024  0.65649  1.0000
  O   O16       1.0  0.85152  0.9061299999999999  0.57081  1.0000
  O   O17       1.0  0.8620200000000001  0.56614  0.86263  1.0000
  O   O18       1.0  0.04469  0.61356  0.00523  1.0000
  O   O19       1.0  0.7444500000000001  0.59696  0.94079  1.0000
  O   O20       1.0  0.94644  0.66337  0.09468  1.0000
  O   O21       1.0  0.29569  0.29563  0.43325  1.0000
  O   O22       1.0  0.43307  0.3938800000000001  0.3898  1.0000
  O   O23       1.0  0.14794  0.34386  0.40365  1.0000
  O   O24       1.0  0.28496  0.4331  0.33932  1.0000
