data_image0
_chemical_formula_structural       Ni4H96C64N48
_chemical_formula_sum              "Ni4 H96 C64 N48"
_cell_length_a       9.34632
_cell_length_b       15.21221
_cell_length_c       21.50704
_cell_angle_alpha    90.27978
_cell_angle_beta     90.85129999999998
_cell_angle_gamma    89.99417

_symmetry_space_group_name_H-M    'P 1'
_symmetry_Int_Tables_number       1

loop_
  _symmetry_equiv_pos_as_xyz
  'x,y,z'

loop_
  _atom_site_type_symbol
  _atom_site_label
  _atom_site_symmetry_multiplicity
  _atom_site_fract_x
  _atom_site_fract_y
  _atom_site_fract_z
  _atom_site_occupancy
  Ni  Ni1       1.0  0.88694  0.23652000000000006  0.70218  1.0000
  Ni  Ni2       1.0  0.61432  0.74117  0.8026399999999999  1.0000
  Ni  Ni3       1.0  0.11259  0.7631900000000003  0.29778  1.0000
  Ni  Ni4       1.0  0.3861299999999999  0.25896000000000013  0.19757999999999998  1.0000
  H   H1        1.0  0.8606799999999999  0.16959  0.56149  1.0000
  H   H2        1.0  0.6185999999999999  0.12557000000000004  0.7661999999999999  1.0000
  H   H3        1.0  0.41242  0.91289  0.83754  1.0000
  H   H4        1.0  0.27437999999999996  0.08823000000000003  0.86018  1.0000
  H   H5        1.0  0.44727  0.06519  0.8340299999999998  1.0000
  H   H6        1.0  0.3108  0.24998000000000006  0.83316  1.0000
  H   H7        1.0  0.41387  0.20689000000000002  0.8955499999999998  1.0000
  H   H8        1.0  0.88573  0.02615  0.6907  1.0000
  H   H9        1.0  0.57406  0.20697  0.6289499999999999  1.0000
  H   H10       1.0  0.3916  0.08879000000000001  0.5811599999999999  1.0000
  H   H11       1.0  0.41703999999999997  0.9771100000000003  0.6028399999999999  1.0000
  H   H12       1.0  0.1884  0.13014000000000006  0.45702999999999994  1.0000
  H   H13       1.0  0.0013599999999999984  0.13811  0.44844999999999996  1.0000
  H   H14       1.0  0.48711  0.7878700000000002  0.66667  1.0000
  H   H15       1.0  0.09842  0.9840500000000002  0.44402  1.0000
  H   H16       1.0  0.1565  0.9928600000000002  0.52222  1.0000
  H   H17       1.0  0.76099  0.38411  0.80079  1.0000
  H   H18       1.0  0.63558  0.9714900000000002  0.53569  1.0000
  H   H19       1.0  0.6000399999999999  0.07934  0.50962  1.0000
  H   H20       1.0  0.37191  0.10891  0.72479  1.0000
  H   H21       1.0  0.2058  0.14565  0.7534  1.0000
  H   H22       1.0  0.23416  0.25193  0.6555899999999999  1.0000
  H   H23       1.0  0.14838  0.9909200000000002  0.78691  1.0000
  H   H24       1.0  0.16276  0.005430000000000002  0.70559  1.0000
  H   H25       1.0  0.63731  0.6725800000000002  0.94271  1.0000
  H   H26       1.0  0.88244  0.6280800000000002  0.74019  1.0000
  H   H27       1.0  0.07988  0.41204  0.6677199999999999  1.0000
  H   H28       1.0  0.22087999999999997  0.58383  0.64422  1.0000
  H   H29       1.0  0.04761  0.56425  0.67134  1.0000
  H   H30       1.0  0.1905399999999999  0.7471600000000003  0.67125  1.0000
  H   H31       1.0  0.08667  0.7041700000000002  0.60889  1.0000
  H   H32       1.0  0.61553  0.5310700000000003  0.8090699999999997  1.0000
  H   H33       1.0  0.9250799999999999  0.7093700000000002  0.8775699999999999  1.0000
  H   H34       1.0  0.11061  0.58838  0.9199899999999998  1.0000
  H   H35       1.0  0.08129999999999998  0.4774400000000001  0.89633  1.0000
  H   H36       1.0  0.30665  0.62729  0.0439  1.0000
  H   H37       1.0  0.49306999999999995  0.6362  0.054  1.0000
  H   H38       1.0  0.02058999999999999  0.2819  0.8370999999999997  1.0000
  H   H39       1.0  0.39982999999999996  0.48170000000000013  0.05472  1.0000
  H   H40       1.0  0.3444499999999999  0.49136  0.97629  1.0000
  H   H41       1.0  0.74056  0.8848700000000005  0.70142  1.0000
  H   H42       1.0  0.8636099999999999  0.47292  0.96385  1.0000
  H   H43       1.0  0.9016599999999999  0.5801200000000002  0.9912299999999998  1.0000
  H   H44       1.0  0.1261  0.6074600000000002  0.77982  1.0000
  H   H45       1.0  0.29213  0.64372  0.7512699999999998  1.0000
  H   H46       1.0  0.26503  0.7538800000000002  0.84763  1.0000
  H   H47       1.0  0.3484699999999999  0.4885  0.71714  1.0000
  H   H48       1.0  0.33557  0.5040200000000002  0.7985599999999999  1.0000
  H   H49       1.0  0.13904  0.8302100000000002  0.43843  1.0000
  H   H50       1.0  0.38107  0.8743100000000003  0.23381999999999994  1.0000
  H   H51       1.0  0.5874099999999999  0.08714000000000002  0.16263999999999998  1.0000
  H   H52       1.0  0.72514  0.91193  0.13996999999999998  1.0000
  H   H53       1.0  0.55229  0.9348300000000003  0.16622999999999996  1.0000
  H   H54       1.0  0.68913  0.75014  0.16689  1.0000
  H   H55       1.0  0.5858799999999998  0.7932400000000002  0.10456999999999998  1.0000
  H   H56       1.0  0.11454999999999999  0.9736600000000002  0.30884999999999996  1.0000
  H   H57       1.0  0.42513999999999996  0.7926000000000002  0.37118  1.0000
  H   H58       1.0  0.60837  0.9108700000000002  0.4186  1.0000
  H   H59       1.0  0.58295  0.022480000000000007  0.39673  1.0000
  H   H60       1.0  0.81138  0.8698  0.54291  1.0000
  H   H61       1.0  0.99848  0.8618300000000002  0.55146  1.0000
  H   H62       1.0  0.5136699999999998  0.21244000000000005  0.3335199999999999  1.0000
  H   H63       1.0  0.90141  0.01589000000000001  0.5557099999999999  1.0000
  H   H64       1.0  0.84328  0.006889999999999999  0.4775099999999999  1.0000
  H   H65       1.0  0.23915  0.6156700000000003  0.19936999999999996  1.0000
  H   H66       1.0  0.36452  0.028440000000000003  0.46384  1.0000
  H   H67       1.0  0.39974  0.92067  0.4900399999999999  1.0000
  H   H68       1.0  0.62802  0.8912  0.27538999999999997  1.0000
  H   H69       1.0  0.79401  0.85435  0.24671999999999997  1.0000
  H   H70       1.0  0.76555  0.7477800000000002  0.34438  1.0000
  H   H71       1.0  0.85181  0.008990000000000003  0.21326  1.0000
  H   H72       1.0  0.8372399999999999  0.9945200000000002  0.2945499999999999  1.0000
  H   H73       1.0  0.36257999999999996  0.32741000000000003  0.05747999999999999  1.0000
  H   H74       1.0  0.11738  0.37187  0.25989  1.0000
  H   H75       1.0  0.91979  0.58765  0.3323  1.0000
  H   H76       1.0  0.77874  0.4157500000000001  0.35581999999999997  1.0000
  H   H77       1.0  0.9520999999999998  0.43552000000000013  0.32882  1.0000
  H   H78       1.0  0.8096799999999997  0.25247  0.32882999999999996  1.0000
  H   H79       1.0  0.9132999999999999  0.2955500000000001  0.39122  1.0000
  H   H80       1.0  0.38436  0.46919  0.19088999999999998  1.0000
  H   H81       1.0  0.07523  0.29043  0.12267999999999998  1.0000
  H   H82       1.0  0.8896  0.41121000000000013  0.07997  1.0000
  H   H83       1.0  0.91856  0.52213  0.10346  1.0000
  H   H84       1.0  0.6931  0.3725000000000001  0.9561199999999999  1.0000
  H   H85       1.0  0.50667  0.3636500000000001  0.9460399999999999  1.0000
  H   H86       1.0  0.9796999999999999  0.7173900000000002  0.16278  1.0000
  H   H87       1.0  0.60003  0.5181200000000001  0.94523  1.0000
  H   H88       1.0  0.65542  0.50854  0.02367  1.0000
  H   H89       1.0  0.26028  0.11535  0.29895  1.0000
  H   H90       1.0  0.13632  0.5266200000000002  0.03602  1.0000
  H   H91       1.0  0.09835  0.41945  0.00868  1.0000
  H   H92       1.0  0.8738799999999999  0.3920300000000001  0.22028  1.0000
  H   H93       1.0  0.70782  0.35584  0.24880999999999998  1.0000
  H   H94       1.0  0.73507  0.24611000000000005  0.15239  1.0000
  H   H95       1.0  0.65133  0.51104  0.28275  1.0000
  H   H96       1.0  0.6645099999999999  0.49543  0.20138999999999999  1.0000
  C   C1        1.0  0.9710800000000002  0.18212  0.5742099999999999  1.0000
  C   C2        1.0  0.62557  0.19350000000000006  0.78078  1.0000
  C   C3        1.0  0.4097799999999999  0.8949300000000002  0.7888799999999999  1.0000
  C   C4        1.0  0.35515  0.10901000000000002  0.82651  1.0000
  C   C5        1.0  0.39648  0.2031  0.8448899999999999  1.0000
  C   C6        1.0  0.7869199999999998  0.053190000000000015  0.6719  1.0000
  C   C7        1.0  0.62979  0.14724000000000007  0.64152  1.0000
  C   C8        1.0  0.47153999999999996  0.03627  0.58636  1.0000
  C   C9        1.0  0.08719999999999997  0.11434000000000002  0.47944999999999993  1.0000
  C   C10       1.0  0.44355  0.8317  0.7014  1.0000
  C   C11       1.0  0.07357999999999999  0.014720000000000004  0.48902  1.0000
  C   C12       1.0  0.69489  0.3253800000000001  0.7988499999999998  1.0000
  C   C13       1.0  0.5491699999999999  0.01823  0.52533  1.0000
  C   C14       1.0  0.29181  0.09699000000000003  0.7606599999999999  1.0000
  C   C15       1.0  0.1627  0.22471000000000005  0.6204299999999999  1.0000
  C   C16       1.0  0.22352  0.006120000000000001  0.7495799999999999  1.0000
  C   C17       1.0  0.5272  0.68505  0.9295499999999999  1.0000
  C   C18       1.0  0.8760099999999998  0.69542  0.7247099999999999  1.0000
  C   C19       1.0  0.08674  0.39267000000000013  0.71592  1.0000
  C   C20       1.0  0.14188  0.60666  0.6781799999999999  1.0000
  C   C21       1.0  0.10362999999999999  0.7009300000000002  0.65955  1.0000
  C   C22       1.0  0.7139099999999999  0.5573900000000003  0.82896  1.0000
  C   C23       1.0  0.86983  0.6502400000000003  0.86293  1.0000
  C   C24       1.0  0.02897  0.53693  0.9139599999999999  1.0000
  C   C25       1.0  0.40895  0.61285  0.021829999999999992  1.0000
  C   C26       1.0  0.06034  0.32713  0.80267  1.0000
  C   C27       1.0  0.42533  0.51365  0.01045  1.0000
  C   C28       1.0  0.8069  0.82639  0.7043  1.0000
  C   C29       1.0  0.95113  0.51875  0.9747299999999998  1.0000
  C   C30       1.0  0.20599999999999996  0.59509  0.7438899999999999  1.0000
  C   C31       1.0  0.33608  0.7266700000000003  0.8827799999999999  1.0000
  C   C32       1.0  0.27398  0.5042  0.75476  1.0000
  C   C33       1.0  0.02864  0.8175700000000002  0.42576  1.0000
  C   C34       1.0  0.3742  0.8063600000000002  0.21929999999999997  1.0000
  C   C35       1.0  0.59036  0.10516000000000003  0.21126999999999996  1.0000
  C   C36       1.0  0.64451  0.8910500000000002  0.17367  1.0000
  C   C37       1.0  0.60333  0.7969700000000002  0.15523  1.0000
  C   C38       1.0  0.2132  0.9465800000000002  0.32777999999999996  1.0000
  C   C39       1.0  0.36984  0.8523800000000002  0.35838  1.0000
  C   C40       1.0  0.52846  0.9633900000000002  0.41329999999999995  1.0000
  C   C41       1.0  0.9125799999999998  0.8855200000000002  0.52045  1.0000
  C   C42       1.0  0.5570099999999999  0.16855  0.29875  1.0000
  C   C43       1.0  0.9261999999999999  0.9851100000000002  0.51074  1.0000
  C   C44       1.0  0.30518  0.6744300000000001  0.20127  1.0000
  C   C45       1.0  0.45082999999999995  0.98168  0.47428  1.0000
  C   C46       1.0  0.70804  0.90306  0.23947999999999994  1.0000
  C   C47       1.0  0.83704  0.7749900000000002  0.37955  1.0000
  C   C48       1.0  0.77653  0.9938800000000002  0.25055999999999995  1.0000
  C   C49       1.0  0.47274999999999995  0.3150400000000001  0.0706  1.0000
  C   C50       1.0  0.12414999999999997  0.30458  0.27542999999999995  1.0000
  C   C51       1.0  0.91293  0.60705  0.28412  1.0000
  C   C52       1.0  0.85795  0.39301000000000014  0.32192999999999994  1.0000
  C   C53       1.0  0.8964299999999998  0.29879  0.3405599999999999  1.0000
  C   C54       1.0  0.28602  0.44278  0.17105  1.0000
  C   C55       1.0  0.13039  0.34966  0.13723  1.0000
  C   C56       1.0  0.9711300000000002  0.4626800000000001  0.08595  1.0000
  C   C57       1.0  0.59083  0.38701000000000013  0.97819  1.0000
  C   C58       1.0  0.93969  0.6723400000000003  0.19725999999999996  1.0000
  C   C59       1.0  0.5745299999999999  0.4862300000000001  0.98952  1.0000
  C   C60       1.0  0.19373999999999997  0.17377  0.29598  1.0000
  C   C61       1.0  0.04883  0.4807900000000001  0.02516  1.0000
  C   C62       1.0  0.79397  0.4044800000000001  0.25619  1.0000
  C   C63       1.0  0.6639499999999999  0.2733500000000001  0.11726999999999997  1.0000
  C   C64       1.0  0.726  0.49534  0.24521  1.0000
  N   N1        1.0  0.08457  0.16513  0.53717  1.0000
  N   N2        1.0  0.017639999999999996  0.22098  0.62732  1.0000
  N   N3        1.0  0.73401  0.24950000000000006  0.7692099999999998  1.0000
  N   N4        1.0  0.57253  0.06336  0.63521  1.0000
  N   N5        1.0  0.5270199999999999  0.23534000000000008  0.8159499999999998  1.0000
  N   N6        1.0  0.48599  0.8296300000000002  0.7624699999999999  1.0000
  N   N7        1.0  0.76409  0.14108  0.66563  1.0000
  N   N8        1.0  0.3450599999999999  0.8924300000000002  0.68803  1.0000
  N   N9        1.0  0.32476  0.9333800000000002  0.74447  1.0000
  N   N10       1.0  0.56978  0.32055  0.8277599999999999  1.0000
  N   N11       1.0  0.6773  0.002330000000000001  0.6535899999999999  1.0000
  N   N12       1.0  0.20986  0.19101000000000007  0.56694  1.0000
  N   N13       1.0  0.41278  0.6654700000000002  0.96526  1.0000
  N   N14       1.0  0.48154  0.72489  0.87691  1.0000
  N   N15       1.0  0.7682399999999999  0.7523100000000003  0.73569  1.0000
  N   N16       1.0  0.9284399999999999  0.56637  0.8658199999999999  1.0000
  N   N17       1.0  0.97353  0.73498  0.6880599999999999  1.0000
  N   N18       1.0  0.014639999999999993  0.32573000000000013  0.7420699999999999  1.0000
  N   N19       1.0  0.73535  0.64489  0.83881  1.0000
  N   N20       1.0  0.15753  0.3888900000000001  0.8160699999999997  1.0000
  N   N21       1.0  0.17273  0.43157  0.76014  1.0000
  N   N22       1.0  0.93101  0.8196200000000002  0.6747199999999999  1.0000
  N   N23       1.0  0.8243999999999998  0.50606  0.8449699999999999  1.0000
  N   N24       1.0  0.28796  0.6908600000000003  0.9351499999999998  1.0000
  N   N25       1.0  0.91517  0.8345800000000002  0.4627999999999999  1.0000
  N   N26       1.0  0.9820899999999999  0.7786900000000002  0.37265999999999994  1.0000
  N   N27       1.0  0.26583  0.7503100000000003  0.23084  1.0000
  N   N28       1.0  0.42756  0.9361800000000002  0.36447  1.0000
  N   N29       1.0  0.47289  0.7645800000000003  0.18417  1.0000
  N   N30       1.0  0.51437  0.17057000000000005  0.23771  1.0000
  N   N31       1.0  0.23555999999999996  0.8586800000000002  0.33428  1.0000
  N   N32       1.0  0.65544  0.10778000000000003  0.31209999999999993  1.0000
  N   N33       1.0  0.6755099999999999  0.06674  0.25567  1.0000
  N   N34       1.0  0.43032999999999993  0.67932  0.1724  1.0000
  N   N35       1.0  0.32304  0.99731  0.34597  1.0000
  N   N36       1.0  0.7898699999999997  0.8087300000000001  0.43301999999999996  1.0000
  N   N37       1.0  0.58709  0.33442  0.03478  1.0000
  N   N38       1.0  0.51854  0.27528  0.12323999999999997  1.0000
  N   N39       1.0  0.23219  0.24784000000000006  0.26454  1.0000
  N   N40       1.0  0.07157999999999998  0.43348000000000003  0.13416999999999998  1.0000
  N   N41       1.0  0.026659999999999993  0.2649100000000001  0.31204999999999994  1.0000
  N   N42       1.0  0.9850699999999999  0.67397  0.25791  1.0000
  N   N43       1.0  0.26476  0.35521000000000014  0.16143  1.0000
  N   N44       1.0  0.84265  0.61051  0.18389  1.0000
  N   N45       1.0  0.82715  0.5680500000000003  0.23987  1.0000
  N   N46       1.0  0.06954999999999997  0.18038000000000007  0.32549  1.0000
  N   N47       1.0  0.17552  0.49397000000000013  0.15484  1.0000
  N   N48       1.0  0.71196  0.30897000000000013  0.06483  1.0000
