data_image0
_chemical_formula_structural       Zn8H72C70N30O20
_chemical_formula_sum              "Zn8 H72 C70 N30 O20"
_cell_length_a       14.68858
_cell_length_b       15.33027
_cell_length_c       16.26894
_cell_angle_alpha    71.557
_cell_angle_beta     64.43714
_cell_angle_gamma    65.39975

_space_group_name_H-M_alt    "P 1"
_space_group_IT_number       1

loop_
  _space_group_symop_operation_xyz
  'x, y, z'

loop_
  _atom_site_type_symbol
  _atom_site_label
  _atom_site_symmetry_multiplicity
  _atom_site_fract_x
  _atom_site_fract_y
  _atom_site_fract_z
  _atom_site_occupancy
  Zn  Zn1       1.0  0.7016299999999998  0.10317999999999998  0.15896  1.0000
  Zn  Zn2       1.0  0.20438999999999996  0.99902  0.38736  1.0000
  Zn  Zn3       1.0  0.31707  0.09401  0.48263000000000006  1.0000
  Zn  Zn4       1.0  0.8357499999999998  0.34573999999999994  0.3576900000000001  1.0000
  Zn  Zn5       1.0  0.2983599999999998  0.89685  0.8410400000000002  1.0000
  Zn  Zn6       1.0  0.79561  0.0010000000000000026  0.61264  1.0000
  Zn  Zn7       1.0  0.6829399999999997  0.9059800000000002  0.51738  1.0000
  Zn  Zn8       1.0  0.16417999999999996  0.65422  0.64227  1.0000
  H   H1        1.0  0.29299  0.031249999999999997  0.67837  1.0000
  H   H2        1.0  0.21684999999999982  0.29206000000000004  0.52748  1.0000
  H   H3        1.0  0.99992  0.1334  0.36009  1.0000
  H   H4        1.0  0.30572999999999995  0.94981  0.20194000000000006  1.0000
  H   H5        1.0  0.52273  0.12564  0.35232000000000013  1.0000
  H   H6        1.0  0.014519999999999984  0.8393800000000001  0.38240000000000013  1.0000
  H   H7        1.0  0.9772499999999995  0.0034499999999999856  0.2820600000000001  1.0000
  H   H8        1.0  0.9376699999999998  0.9184100000000002  0.26475000000000004  1.0000
  H   H9        1.0  0.02327  0.008439999999999998  0.11349  1.0000
  H   H10       1.0  0.14056999999999994  0.97163  0.13884000000000005  1.0000
  H   H11       1.0  0.046230000000000035  0.83073  0.13101  1.0000
  H   H12       1.0  0.25603000000000004  0.79451  0.15445  1.0000
  H   H13       1.0  0.21991  0.7047000000000002  0.14106  1.0000
  H   H14       1.0  0.062299999999999946  0.72858  0.2841700000000001  1.0000
  H   H15       1.0  0.17782999999999988  0.7040500000000001  0.30836000000000013  1.0000
  H   H16       1.0  0.55321  0.13179  0.56349  1.0000
  H   H17       1.0  0.4302599999999999  0.18017999999999998  0.7206700000000003  1.0000
  H   H18       1.0  0.5338399999999999  0.23198999999999997  0.6589300000000002  1.0000
  H   H19       1.0  0.3666  0.35882  0.72888  1.0000
  H   H20       1.0  0.29736  0.33348  0.67825  1.0000
  H   H21       1.0  0.4855699999999998  0.4116900000000001  0.57409  1.0000
  H   H22       1.0  0.4475900000000001  0.42797999999999997  0.43251  1.0000
  H   H23       1.0  0.34668000000000004  0.37471  0.50074  1.0000
  H   H24       1.0  0.5201799999999999  0.2505900000000001  0.42419  1.0000
  H   H25       1.0  0.58493  0.28084  0.4754600000000001  1.0000
  H   H26       1.0  0.9232099999999999  0.5630399999999999  0.11167  1.0000
  H   H27       1.0  0.8069099999999998  0.51253  0.0728  1.0000
  H   H28       1.0  0.9163099999999997  0.4105200000000001  0.03211  1.0000
  H   H29       1.0  0.09739999999999997  0.3753500000000001  0.04899  1.0000
  H   H30       1.0  0.10698999999999996  0.45498  0.10106000000000002  1.0000
  H   H31       1.0  0.18832000000000004  0.77344  0.86614  1.0000
  H   H32       1.0  0.17560999999999988  0.7106299999999999  0.7994200000000002  1.0000
  H   H33       1.0  0.9190199999999997  0.5166999999999999  0.48292  1.0000
  H   H34       1.0  0.8578199999999997  0.4593400000000001  0.4509900000000001  1.0000
  H   H35       1.0  0.58068  0.02741  0.97773  1.0000
  H   H36       1.0  0.64625  0.06642  0.02313  1.0000
  H   H37       1.0  0.7070299999999996  0.96875  0.32164  1.0000
  H   H38       1.0  0.7831399999999998  0.7079499999999999  0.47257  1.0000
  H   H39       1.0  0.00010999999999990644  0.86656  0.63997  1.0000
  H   H40       1.0  0.6942799999999998  0.05017999999999998  0.7981100000000002  1.0000
  H   H41       1.0  0.47729999999999984  0.87438  0.6476800000000001  1.0000
  H   H42       1.0  0.9854799999999998  0.16060999999999998  0.6176000000000001  1.0000
  H   H43       1.0  0.02275999999999989  0.99654  0.7179400000000002  1.0000
  H   H44       1.0  0.062339999999999875  0.08155999999999995  0.7352500000000002  1.0000
  H   H45       1.0  0.9767400000000002  0.99156  0.88652  1.0000
  H   H46       1.0  0.8594499999999998  0.028350000000000007  0.86117  1.0000
  H   H47       1.0  0.9537799999999999  0.16926000000000005  0.8690100000000002  1.0000
  H   H48       1.0  0.74398  0.20548000000000002  0.84555  1.0000
  H   H49       1.0  0.7801  0.29529000000000005  0.85895  1.0000
  H   H50       1.0  0.9377099999999999  0.27142  0.7158300000000002  1.0000
  H   H51       1.0  0.8221699999999998  0.29595  0.69164  1.0000
  H   H52       1.0  0.4467699999999998  0.8682900000000001  0.4365100000000001  1.0000
  H   H53       1.0  0.56972  0.81991  0.2792800000000001  1.0000
  H   H54       1.0  0.4660499999999998  0.76812  0.34109  1.0000
  H   H55       1.0  0.63333  0.6413  0.2711  1.0000
  H   H56       1.0  0.7025299999999994  0.6665900000000001  0.3217700000000001  1.0000
  H   H57       1.0  0.51425  0.58849  0.4259700000000001  1.0000
  H   H58       1.0  0.55238  0.57213  0.5675  1.0000
  H   H59       1.0  0.6532699999999997  0.62538  0.4992600000000001  1.0000
  H   H60       1.0  0.47982000000000014  0.74952  0.57581  1.0000
  H   H61       1.0  0.41502999999999984  0.71924  0.52453  1.0000
  H   H62       1.0  0.07677999999999993  0.4369299999999999  0.8883800000000002  1.0000
  H   H63       1.0  0.19307000000000002  0.48742  0.92732  1.0000
  H   H64       1.0  0.08363999999999994  0.5894  0.9680200000000002  1.0000
  H   H65       1.0  0.9025399999999999  0.6245900000000001  0.9511300000000003  1.0000
  H   H66       1.0  0.89297  0.54497  0.8990600000000001  1.0000
  H   H67       1.0  0.8116999999999999  0.22654000000000002  0.13386  1.0000
  H   H68       1.0  0.8243499999999998  0.28939  0.20057000000000005  1.0000
  H   H69       1.0  0.08096  0.48325  0.51716  1.0000
  H   H70       1.0  0.14214999999999986  0.5406100000000003  0.54907  1.0000
  H   H71       1.0  0.41932  0.97258  0.0223  1.0000
  H   H72       1.0  0.3537699999999998  0.93357  0.9768800000000001  1.0000
  C   C1        1.0  0.2747399999999999  0.9742  0.6674800000000002  1.0000
  C   C2        1.0  0.24650999999999995  0.9143  0.57284  1.0000
  C   C3        1.0  0.22831000000000007  0.83405  0.6415400000000002  1.0000
  C   C4        1.0  0.22912999999999997  0.82772  0.7296100000000001  1.0000
  C   C5        1.0  0.21290999999999988  0.8236399999999999  0.5191900000000002  1.0000
  C   C6        1.0  0.16096000000000002  0.29092  0.50074  1.0000
  C   C7        1.0  0.11095000000000002  0.20786999999999997  0.44306  1.0000
  C   C8        1.0  0.020369999999999982  0.28919  0.43811000000000005  1.0000
  C   C9        1.0  0.0029199999999999842  0.37455  0.46728  1.0000
  C   C10       1.0  0.02109999999999995  0.17413999999999996  0.3886100000000001  1.0000
  C   C11       1.0  0.3605499999999998  0.9813500000000001  0.20061000000000007  1.0000
  C   C12       1.0  0.41343  0.03955000000000001  0.27839  1.0000
  C   C13       1.0  0.5015799999999999  0.050529999999999985  0.19906000000000004  1.0000
  C   C14       1.0  0.51286  0.02830999999999999  0.11606000000000002  1.0000
  C   C15       1.0  0.5018  0.09756999999999999  0.31193  1.0000
  C   C16       1.0  0.07138999999999993  0.85268  0.3120600000000001  1.0000
  C   C17       1.0  0.007479999999999926  0.93578  0.25506000000000006  1.0000
  C   C18       1.0  0.07274999999999983  0.9496200000000002  0.15136  1.0000
  C   C19       1.0  0.11455999999999998  0.85334  0.11568000000000003  1.0000
  C   C20       1.0  0.18760999999999992  0.77325  0.16741000000000006  1.0000
  C   C21       1.0  0.12459999999999996  0.75807  0.27166  1.0000
  C   C22       1.0  0.15005999999999978  0.8813500000000002  0.32835  1.0000
  C   C23       1.0  0.16912999999999997  0.8608300000000002  0.012220000000000003  1.0000
  C   C24       1.0  0.48204999999999987  0.1976500000000001  0.57172  1.0000
  C   C25       1.0  0.45834999999999976  0.23219999999999996  0.6599400000000001  1.0000
  C   C26       1.0  0.37589999999999996  0.3345  0.66821  1.0000
  C   C27       1.0  0.40897  0.40877  0.58067  1.0000
  C   C28       1.0  0.4237  0.37572  0.49489  1.0000
  C   C29       1.0  0.50874  0.27484  0.48558  1.0000
  C   C30       1.0  0.39581000000000005  0.1628  0.57692  1.0000
  C   C31       1.0  0.32768999999999987  0.50886  0.59554  1.0000
  C   C32       1.0  0.9478199999999997  0.48792  0.10133000000000003  1.0000
  C   C33       1.0  0.8942099999999998  0.48623  0.03942000000000001  1.0000
  C   C34       1.0  0.07068999999999995  0.4520300000000001  0.05583  1.0000
  C   C35       1.0  0.9149500000000002  0.42929  0.19667000000000007  1.0000
  C   C36       1.0  0.7252799999999998  0.025810000000000003  0.33253  1.0000
  C   C37       1.0  0.7534499999999998  0.08572999999999997  0.4271900000000001  1.0000
  C   C38       1.0  0.7716299999999999  0.16598  0.35848  1.0000
  C   C39       1.0  0.7708499999999998  0.1723  0.27041  1.0000
  C   C40       1.0  0.7869599999999995  0.17644  0.48086  1.0000
  C   C41       1.0  0.8390299999999999  0.70908  0.49931  1.0000
  C   C42       1.0  0.8890599999999996  0.7921300000000002  0.55698  1.0000
  C   C43       1.0  0.9795999999999999  0.7107700000000002  0.56197  1.0000
  C   C44       1.0  0.99703  0.62542  0.53281  1.0000
  C   C45       1.0  0.9789  0.82584  0.61144  1.0000
  C   C46       1.0  0.6394699999999995  0.018649999999999962  0.7994200000000002  1.0000
  C   C47       1.0  0.5865999999999996  0.9604599999999999  0.7216300000000002  1.0000
  C   C48       1.0  0.49842999999999993  0.94947  0.80096  1.0000
  C   C49       1.0  0.4871499999999999  0.9716900000000002  0.88396  1.0000
  C   C50       1.0  0.49823  0.9024400000000001  0.6880800000000002  1.0000
  C   C51       1.0  0.9286099999999996  0.14732  0.6879400000000002  1.0000
  C   C52       1.0  0.9925199999999998  0.06420999999999998  0.7449500000000002  1.0000
  C   C53       1.0  0.92726  0.05036999999999998  0.8486500000000001  1.0000
  C   C54       1.0  0.88544  0.14666  0.88433  1.0000
  C   C55       1.0  0.8124000000000001  0.22674999999999998  0.83259  1.0000
  C   C56       1.0  0.8754100000000001  0.24193  0.72834  1.0000
  C   C57       1.0  0.8499399999999998  0.11865999999999999  0.67166  1.0000
  C   C58       1.0  0.83085  0.13918  0.9877800000000001  1.0000
  C   C59       1.0  0.5179099999999996  0.8024400000000003  0.4282700000000001  1.0000
  C   C60       1.0  0.54157  0.7679200000000002  0.34004  1.0000
  C   C61       1.0  0.6239899999999997  0.6655900000000002  0.3317900000000001  1.0000
  C   C62       1.0  0.59091  0.59132  0.4193600000000001  1.0000
  C   C63       1.0  0.5762499999999999  0.62438  0.50511  1.0000
  C   C64       1.0  0.49121  0.72526  0.51443  1.0000
  C   C65       1.0  0.6041799999999999  0.83723  0.42309  1.0000
  C   C66       1.0  0.6721499999999998  0.49118  0.40444000000000013  1.0000
  C   C67       1.0  0.05217000000000003  0.51203  0.89876  1.0000
  C   C68       1.0  0.10575999999999997  0.5137  0.96068  1.0000
  C   C69       1.0  0.9292899999999996  0.5479100000000001  0.9442700000000003  1.0000
  C   C70       1.0  0.0851199999999999  0.5706699999999999  0.8034300000000002  1.0000
  N   N1        1.0  0.25661  0.9003800000000001  0.73826  1.0000
  N   N2        1.0  0.27153999999999984  0.9850300000000001  0.5840700000000001  1.0000
  N   N3        1.0  0.20660999999999985  0.77783  0.6042700000000002  1.0000
  N   N4        1.0  0.23533999999999974  0.9076500000000002  0.4960600000000001  1.0000
  N   N5        1.0  0.20644  0.75927  0.80222  1.0000
  N   N6        1.0  0.07866000000000001  0.37161  0.49737  1.0000
  N   N7        1.0  0.1832  0.20604000000000003  0.47559  1.0000
  N   N8        1.0  0.96414  0.26606  0.4035  1.0000
  N   N9        1.0  0.11077999999999999  0.13495000000000004  0.41143  1.0000
  N   N10       1.0  0.91996  0.45543  0.4674600000000001  1.0000
  N   N11       1.0  0.43923999999999985  0.99209  0.12122  1.0000
  N   N12       1.0  0.3409299999999999  0.004829999999999996  0.28104  1.0000
  N   N13       1.0  0.55785  0.08782  0.22214  1.0000
  N   N14       1.0  0.4142299999999998  0.06956999999999999  0.34938000000000013  1.0000
  N   N15       1.0  0.58772  0.04037000000000001  0.03339  1.0000
  N   N16       1.0  0.7434099999999998  0.09962  0.26174  1.0000
  N   N17       1.0  0.72846  0.014980000000000016  0.41595000000000004  1.0000
  N   N18       1.0  0.79327  0.22223000000000007  0.39578  1.0000
  N   N19       1.0  0.7645699999999997  0.09241  0.50398  1.0000
  N   N20       1.0  0.79351  0.24076  0.19778  1.0000
  N   N21       1.0  0.9213199999999997  0.62838  0.5027  1.0000
  N   N22       1.0  0.81682  0.7939599999999999  0.52444  1.0000
  N   N23       1.0  0.03581999999999979  0.7339100000000002  0.5965800000000002  1.0000
  N   N24       1.0  0.8892499999999995  0.86505  0.58858  1.0000
  N   N25       1.0  0.07998000000000006  0.54452  0.53267  1.0000
  N   N26       1.0  0.56077  0.007909999999999995  0.8788  1.0000
  N   N27       1.0  0.6591  0.99516  0.71899  1.0000
  N   N28       1.0  0.44216999999999995  0.9121900000000002  0.77787  1.0000
  N   N29       1.0  0.5857999999999999  0.93044  0.65063  1.0000
  N   N30       1.0  0.4122999999999999  0.95962  0.96664  1.0000
  O   O1        1.0  0.1423399999999998  0.8309500000000001  0.9657500000000002  1.0000
  O   O2        1.0  0.2472399999999999  0.8990000000000001  0.9715100000000001  1.0000
  O   O3        1.0  0.11261999999999997  0.9686300000000002  0.34884  1.0000
  O   O4        1.0  0.24090999999999999  0.82309  0.32493  1.0000
  O   O5        1.0  0.41369  0.13807  0.49954000000000004  1.0000
  O   O6        1.0  0.31854999999999994  0.15512999999999996  0.64927  1.0000
  O   O7        1.0  0.2600199999999999  0.5495400000000003  0.55251  1.0000
  O   O8        1.0  0.3233599999999999  0.55063  0.65379  1.0000
  O   O9        1.0  0.89544  0.35047  0.20879000000000003  1.0000
  O   O10       1.0  0.90804  0.4577500000000001  0.2649  1.0000
  O   O11       1.0  0.8576299999999998  0.16907  0.034260000000000006  1.0000
  O   O12       1.0  0.7527  0.10106  0.028480000000000005  1.0000
  O   O13       1.0  0.8873700000000001  0.031369999999999974  0.6511800000000002  1.0000
  O   O14       1.0  0.7591  0.17694000000000001  0.67505  1.0000
  O   O15       1.0  0.5863099999999999  0.8619500000000002  0.50048  1.0000
  O   O16       1.0  0.6814699999999998  0.8448600000000003  0.35074000000000005  1.0000
  O   O17       1.0  0.73994  0.45043  0.44735  1.0000
  O   O18       1.0  0.67631  0.44950000000000007  0.34621  1.0000
  O   O19       1.0  0.10474999999999984  0.64941  0.7913000000000002  1.0000
  O   O20       1.0  0.09196999999999997  0.5422400000000003  0.73521  1.0000
