data_image0
_chemical_formula_structural       Zn6H90C66Br6N12O12
_chemical_formula_sum              "Zn6 H90 C66 Br6 N12 O12"
_cell_length_a       10.45189
_cell_length_b       17.890339999999995
_cell_length_c       17.89755
_cell_angle_alpha    120.08121000000001
_cell_angle_beta     90.0085
_cell_angle_gamma    89.99910999999999

_space_group_name_H-M_alt    "P 1"
_space_group_IT_number       1

loop_
  _space_group_symop_operation_xyz
  'x, y, z'

loop_
  _atom_site_type_symbol
  _atom_site_label
  _atom_site_symmetry_multiplicity
  _atom_site_fract_x
  _atom_site_fract_y
  _atom_site_fract_z
  _atom_site_occupancy
  Zn  Zn1       1.0  0.73494  0.54482  0.07447  1.0000
  Zn  Zn2       1.0  0.40255  0.52953  0.4549299999999999  1.0000
  Zn  Zn3       1.0  0.07061  0.92511  0.47003  1.0000
  Zn  Zn4       1.0  0.23507000000000003  0.4551099999999999  0.9255499999999998  1.0000
  Zn  Zn5       1.0  0.9026899999999999  0.47045999999999993  0.54514  1.0000
  Zn  Zn6       1.0  0.57086  0.07495999999999998  0.52985  1.0000
  H   H1        1.0  0.8413399999999999  0.47393  0.92533  1.0000
  H   H2        1.0  0.6145  0.47348999999999997  0.84499  1.0000
  H   H3        1.0  0.59179  0.32374999999999987  0.8005399999999998  1.0000
  H   H4        1.0  0.74019  0.24511  0.84456  1.0000
  H   H5        1.0  0.64845  0.3216799999999999  0.9333299999999998  1.0000
  H   H6        1.0  0.8098099999999999  0.34405999999999987  0.9246799999999997  1.0000
  H   H7        1.0  0.87495  0.36162  0.78687  1.0000
  H   H8        1.0  0.74903  0.36881999999999987  0.7245799999999998  1.0000
  H   H9        1.0  0.7851  0.26817999999999986  0.7166899999999998  1.0000
  H   H10       1.0  0.68321  0.56542  0.6684  1.0000
  H   H11       1.0  0.03482  0.4727599999999998  0.6918399999999998  1.0000
  H   H12       1.0  0.62616  0.6137999999999999  0.8219199999999998  1.0000
  H   H13       1.0  0.99431  0.51678  0.84565  1.0000
  H   H14       1.0  0.68498  0.6250399999999999  0.9599099999999998  1.0000
  H   H15       1.0  0.8508899999999999  0.62346  0.98123  1.0000
  H   H16       1.0  0.50722  0.45166999999999996  0.52581  1.0000
  H   H17       1.0  0.2804  0.37162  0.52616  1.0000
  H   H18       1.0  0.25786  0.4771099999999999  0.67598  1.0000
  H   H19       1.0  0.4065099999999999  0.59968  0.7548  1.0000
  H   H20       1.0  0.31488  0.61217  0.67853  1.0000
  H   H21       1.0  0.4761699999999999  0.5810799999999999  0.6560499999999998  1.0000
  H   H22       1.0  0.54102  0.42522  0.638  1.0000
  H   H23       1.0  0.41490999999999995  0.35586  0.63067  1.0000
  H   H24       1.0  0.45107  0.44865999999999984  0.7313299999999998  1.0000
  H   H25       1.0  0.3505  0.1029  0.435  1.0000
  H   H26       1.0  0.70195  0.21953000000000006  0.52725  1.0000
  H   H27       1.0  0.2929  0.2077  0.38641  1.0000
  H   H28       1.0  0.66104  0.32914  0.48311  1.0000
  H   H29       1.0  0.35152  0.33434  0.37473  1.0000
  H   H30       1.0  0.51732  0.3575499999999999  0.3765699999999999  1.0000
  H   H31       1.0  0.17469  0.07408000000000001  0.54848  1.0000
  H   H32       1.0  0.94822  0.15448999999999988  0.6282799999999997  1.0000
  H   H33       1.0  0.92514  0.1988799999999999  0.5231699999999998  1.0000
  H   H34       1.0  0.07351  0.15504  0.40053  1.0000
  H   H35       1.0  0.98174  0.06619  0.38806  1.0000
  H   H36       1.0  0.14319  0.07479999999999994  0.4189999999999999  1.0000
  H   H37       1.0  0.2084  0.21289999999999987  0.5749099999999998  1.0000
  H   H38       1.0  0.08212  0.27509  0.64446  1.0000
  H   H39       1.0  0.11826  0.2829  0.55176  1.0000
  H   H40       1.0  0.01737  0.33183000000000007  0.89706  1.0000
  H   H41       1.0  0.36867  0.30764999999999987  0.7804099999999998  1.0000
  H   H42       1.0  0.95981  0.17832999999999993  0.79198  1.0000
  H   H43       1.0  0.32738  0.15371  0.67046  1.0000
  H   H44       1.0  0.01789  0.04002999999999988  0.6650399999999997  1.0000
  H   H45       1.0  0.18397  0.0183999999999999  0.6422099999999997  1.0000
  H   H46       1.0  0.34139  0.52613  0.07469999999999999  1.0000
  H   H47       1.0  0.11445  0.5265  0.15502  1.0000
  H   H48       1.0  0.09187  0.6762999999999999  0.19947999999999994  1.0000
  H   H49       1.0  0.24032  0.75487  0.15544  1.0000
  H   H50       1.0  0.14859999999999998  0.67834  0.06666  1.0000
  H   H51       1.0  0.30987  0.65588  0.07533  1.0000
  H   H52       1.0  0.37501  0.63829  0.21305  1.0000
  H   H53       1.0  0.24920999999999996  0.63115  0.27539  1.0000
  H   H54       1.0  0.2853  0.73175  0.28325  1.0000
  H   H55       1.0  0.18327  0.43471999999999994  0.33166999999999996  1.0000
  H   H56       1.0  0.5349  0.52725  0.30818  1.0000
  H   H57       1.0  0.12623  0.38622999999999996  0.17811  1.0000
  H   H58       1.0  0.49453  0.4830900000000001  0.1543  1.0000
  H   H59       1.0  0.18495  0.375  0.04011  1.0000
  H   H60       1.0  0.35082  0.37658  0.01876  1.0000
  H   H61       1.0  0.0073999999999999995  0.54841  0.4742299999999999  1.0000
  H   H62       1.0  0.7803799999999999  0.6282599999999999  0.47382999999999986  1.0000
  H   H63       1.0  0.7579199999999999  0.52293  0.324  1.0000
  H   H64       1.0  0.90656  0.40032  0.24519999999999995  1.0000
  H   H65       1.0  0.81486  0.38789999999999997  0.3215  1.0000
  H   H66       1.0  0.9761499999999999  0.41900000000000004  0.34403  1.0000
  H   H67       1.0  0.04111  0.57483  0.36205  1.0000
  H   H68       1.0  0.9149699999999998  0.64422  0.36932  1.0000
  H   H69       1.0  0.95117  0.55138  0.26869  1.0000
  H   H70       1.0  0.85045  0.89697  0.56477  1.0000
  H   H71       1.0  0.20188  0.78032  0.4726799999999999  1.0000
  H   H72       1.0  0.7928499999999999  0.79232  0.61359  1.0000
  H   H73       1.0  0.16103  0.67091  0.51707  1.0000
  H   H74       1.0  0.85134  0.66559  0.62515  1.0000
  H   H75       1.0  0.01718  0.64252  0.62361  1.0000
  H   H76       1.0  0.67472  0.92582  0.4514899999999999  1.0000
  H   H77       1.0  0.44811  0.8454199999999998  0.37158999999999986  1.0000
  H   H78       1.0  0.42514  0.80106  0.47676  1.0000
  H   H79       1.0  0.57351  0.84504  0.59953  1.0000
  H   H80       1.0  0.4817199999999999  0.9337699999999999  0.61185  1.0000
  H   H81       1.0  0.64309  0.92522  0.58095  1.0000
  H   H82       1.0  0.70837  0.78715  0.4250299999999999  1.0000
  H   H83       1.0  0.58214  0.72492  0.35553  1.0000
  H   H84       1.0  0.61835  0.7170799999999999  0.4482399999999999  1.0000
  H   H85       1.0  0.51729  0.6681199999999999  0.10300999999999998  1.0000
  H   H86       1.0  0.86865  0.69237  0.2196  1.0000
  H   H87       1.0  0.45980999999999994  0.82166  0.20800999999999997  1.0000
  H   H88       1.0  0.8275499999999999  0.84635  0.3294199999999999  1.0000
  H   H89       1.0  0.5177  0.9598699999999999  0.3349199999999999  1.0000
  H   H90       1.0  0.68369  0.9816499999999999  0.3578199999999999  1.0000
  C   C1        1.0  0.53066  0.4639999999999999  0.9470899999999998  1.0000
  C   C2        1.0  0.64729  0.45148999999999995  0.8892999999999999  1.0000
  C   C3        1.0  0.68178  0.35495  0.83287  1.0000
  C   C4        1.0  0.7228  0.3144799999999999  0.88689  1.0000
  C   C5        1.0  0.7785299999999999  0.3381  0.76173  1.0000
  C   C6        1.0  0.7484  0.55612  0.71043  1.0000
  C   C7        1.0  0.94536  0.5031999999999999  0.7233599999999998  1.0000
  C   C8        1.0  0.71778  0.5825199999999999  0.7958799999999998  1.0000
  C   C9        1.0  0.8045299999999999  0.56724  0.84641  1.0000
  C   C10       1.0  0.92127  0.52801  0.80891  1.0000
  C   C11       1.0  0.7729099999999999  0.58669  0.93664  1.0000
  C   C12       1.0  0.19610999999999998  0.48330999999999996  0.53594  1.0000
  C   C13       1.0  0.31315  0.4380599999999999  0.5482799999999998  1.0000
  C   C14       1.0  0.34785  0.47818  0.6447899999999998  1.0000
  C   C15       1.0  0.38915  0.57276  0.68549  1.0000
  C   C16       1.0  0.44454999999999995  0.42377  0.66147  1.0000
  C   C17       1.0  0.41549  0.15433  0.4442  1.0000
  C   C18       1.0  0.61238  0.2204599999999999  0.4968899999999999  1.0000
  C   C19       1.0  0.38461  0.2132199999999999  0.4176899999999999  1.0000
  C   C20       1.0  0.47114  0.27919  0.4328999999999999  1.0000
  C   C21       1.0  0.58808  0.2810899999999999  0.47199999999999986  1.0000
  C   C22       1.0  0.43926  0.34979  0.41325  1.0000
  C   C23       1.0  0.86421  0.05249999999999995  0.51654  1.0000
  C   C24       1.0  0.98086  0.11012999999999998  0.5618599999999999  1.0000
  C   C25       1.0  0.01527  0.16664999999999994  0.52198  1.0000
  C   C26       1.0  0.05618  0.11261999999999994  0.4273599999999999  1.0000
  C   C27       1.0  0.11187999999999998  0.2378899999999999  0.5765499999999998  1.0000
  C   C28       1.0  0.08241  0.28960999999999987  0.8456399999999997  1.0000
  C   C29       1.0  0.27917  0.2763199999999999  0.7795199999999998  1.0000
  C   C30       1.0  0.05149  0.20415000000000005  0.78662  1.0000
  C   C31       1.0  0.13795  0.15335999999999989  0.7206099999999998  1.0000
  C   C32       1.0  0.25473  0.19071  0.71873  1.0000
  C   C33       1.0  0.10605999999999999  0.06300000000000001  0.64992  1.0000
  C   C34       1.0  0.030719999999999997  0.53585  0.05298  1.0000
  C   C35       1.0  0.14738  0.54848  0.11071999999999997  1.0000
  C   C36       1.0  0.18181  0.64505  0.16713  1.0000
  C   C37       1.0  0.22289  0.68551  0.11311999999999997  1.0000
  C   C38       1.0  0.27864  0.66185  0.23822  1.0000
  C   C39       1.0  0.24845  0.44397  0.28959  1.0000
  C   C40       1.0  0.44545  0.49681  0.27664  1.0000
  C   C41       1.0  0.21784999999999996  0.41752999999999996  0.20413999999999993  1.0000
  C   C42       1.0  0.30461  0.4327599999999999  0.15357999999999994  1.0000
  C   C43       1.0  0.4214  0.47194  0.19105999999999995  1.0000
  C   C44       1.0  0.27291999999999994  0.41333  0.06337  1.0000
  C   C45       1.0  0.69626  0.5164899999999999  0.4638599999999999  1.0000
  C   C46       1.0  0.8131900000000001  0.56183  0.45169  1.0000
  C   C47       1.0  0.84791  0.52185  0.3551999999999999  1.0000
  C   C48       1.0  0.88917  0.4272699999999999  0.3144999999999999  1.0000
  C   C49       1.0  0.94463  0.57629  0.3385499999999999  1.0000
  C   C50       1.0  0.91547  0.8455899999999998  0.55568  1.0000
  C   C51       1.0  0.11233999999999998  0.77949  0.50309  1.0000
  C   C52       1.0  0.88457  0.78679  0.58231  1.0000
  C   C53       1.0  0.97111  0.72083  0.56715  1.0000
  C   C54       1.0  0.08806  0.71894  0.5281  1.0000
  C   C55       1.0  0.93923  0.6502  0.58678  1.0000
  C   C56       1.0  0.36425  0.94727  0.4832499999999999  1.0000
  C   C57       1.0  0.48085  0.8897399999999999  0.43802  1.0000
  C   C58       1.0  0.51526  0.8332799999999999  0.4779499999999999  1.0000
  C   C59       1.0  0.55615  0.8873399999999999  0.5725799999999998  1.0000
  C   C60       1.0  0.6119099999999998  0.76207  0.42344  1.0000
  C   C61       1.0  0.58238  0.71035  0.15438999999999994  1.0000
  C   C62       1.0  0.77917  0.72372  0.22046999999999994  1.0000
  C   C63       1.0  0.55146  0.79582  0.21337999999999993  1.0000
  C   C64       1.0  0.63794  0.84665  0.2793699999999999  1.0000
  C   C65       1.0  0.75477  0.80935  0.28124  1.0000
  C   C66       1.0  0.60594  0.9369599999999999  0.3500699999999999  1.0000
  Br  Br1       1.0  0.75633  0.44699999999999995  0.12718  1.0000
  Br  Br2       1.0  0.42343  0.68018  0.5527999999999997  1.0000
  Br  Br3       1.0  0.08995  0.8725000000000002  0.31957  1.0000
  Br  Br4       1.0  0.257  0.55279  0.87279  1.0000
  Br  Br5       1.0  0.9237299999999999  0.31972  0.4472  1.0000
  Br  Br6       1.0  0.59014  0.12749  0.68033  1.0000
  N   N1        1.0  0.75567  0.5067299999999999  0.9417999999999997  1.0000
  N   N2        1.0  0.8597099999999999  0.51599  0.67405  1.0000
  N   N3        1.0  0.42147999999999997  0.43522  0.49302  1.0000
  N   N4        1.0  0.5269  0.15832000000000002  0.48433  1.0000
  N   N5        1.0  0.08898  0.05756000000000002  0.56464  1.0000
  N   N6        1.0  0.1937  0.32588  0.84174  1.0000
  N   N7        1.0  0.25572  0.49329999999999996  0.05822999999999998  1.0000
  N   N8        1.0  0.35978  0.48408  0.32597  1.0000
  N   N9        1.0  0.9216099999999999  0.56475  0.50698  1.0000
  N   N10       1.0  0.026819999999999997  0.84157  0.51551  1.0000
  N   N11       1.0  0.58898  0.9423299999999999  0.43530999999999986  1.0000
  N   N12       1.0  0.69371  0.67411  0.15827  1.0000
  O   O1        1.0  0.53656  0.51907  0.02776  1.0000
  O   O2        1.0  0.43409999999999993  0.41792999999999986  0.9086899999999998  1.0000
  O   O3        1.0  0.20048999999999997  0.50861  0.48081  1.0000
  O   O4        1.0  0.10016999999999998  0.49111999999999983  0.5825799999999998  1.0000
  O   O5        1.0  0.86884  0.9719599999999999  0.4912799999999999  1.0000
  O   O6        1.0  0.76826  0.09141999999999996  0.5088  1.0000
  O   O7        1.0  0.03661  0.48117000000000004  0.97216  1.0000
  O   O8        1.0  0.9338899999999999  0.58147  0.09155  1.0000
  O   O9        1.0  0.70056  0.49086  0.51888  1.0000
  O   O10       1.0  0.60011  0.50887  0.4173499999999999  1.0000
  O   O11       1.0  0.36883  0.02791999999999998  0.50863  1.0000
  O   O12       1.0  0.26813  0.9083699999999999  0.4909399999999999  1.0000
