data_image0
_chemical_formula_structural       Cu16H24C64S8O64
_chemical_formula_sum              "Cu16 H24 C64 S8 O64"
_cell_length_a       16.27563
_cell_length_b       16.26853
_cell_length_c       19.62989
_cell_angle_alpha    111.18072000000001
_cell_angle_beta     111.19474000000001
_cell_angle_gamma    97.40079999999999

_space_group_name_H-M_alt    "P 1"
_space_group_IT_number       1

loop_
  _space_group_symop_operation_xyz
  'x, y, z'

loop_
  _atom_site_type_symbol
  _atom_site_label
  _atom_site_symmetry_multiplicity
  _atom_site_fract_x
  _atom_site_fract_y
  _atom_site_fract_z
  _atom_site_occupancy
  Cu  Cu1       1.0  0.30033  0.3092  0.50282  1.0000
  Cu  Cu2       1.0  0.49695999999999996  0.12008000000000003  0.14674  1.0000
  Cu  Cu3       1.0  0.09993  0.22761000000000006  0.35648  1.0000
  Cu  Cu4       1.0  0.16607  0.17421  0.50518  1.0000
  Cu  Cu5       1.0  0.80673  0.79659  0.49671000000000004  1.0000
  Cu  Cu6       1.0  0.97238  0.3502  0.85336  1.0000
  Cu  Cu7       1.0  0.8708699999999998  0.74366  0.64388  1.0000
  Cu  Cu8       1.0  0.6695500000000001  0.65962  0.49406000000000005  1.0000
  Cu  Cu9       1.0  0.04666000000000006  0.5572200000000002  0.9967800000000001  1.0000
  Cu  Cu10      1.0  0.6001100000000001  0.72182  0.35252  1.0000
  Cu  Cu11      1.0  0.99438  0.621  0.14405  1.0000
  Cu  Cu12      1.0  0.90921  0.41965  0.99373  1.0000
  Cu  Cu13      1.0  0.55862  0.05052  0.00247  1.0000
  Cu  Cu14      1.0  0.36997000000000013  0.24668000000000012  0.6466200000000002  1.0000
  Cu  Cu15      1.0  0.4771799999999999  0.84989  0.85637  1.0000
  Cu  Cu16      1.0  0.42428  0.9163300000000002  0.005420000000000002  1.0000
  H   H1        1.0  0.9117800000000001  0.9941700000000001  0.43349  1.0000
  H   H2        1.0  0.62517  0.9006900000000003  0.2586900000000001  1.0000
  H   H3        1.0  0.82143  0.10806  0.26156  1.0000
  H   H4        1.0  0.31627  0.09988999999999999  0.24442999999999998  1.0000
  H   H5        1.0  0.2244  0.81531  0.06665  1.0000
  H   H6        1.0  0.10873000000000001  0.9002  0.23808000000000007  1.0000
  H   H7        1.0  0.56108  0.4786300000000001  0.56655  1.0000
  H   H8        1.0  0.6419699999999998  0.3667600000000001  0.74118  1.0000
  H   H9        1.0  0.84695  0.55968  0.73822  1.0000
  H   H10       1.0  0.8549399999999999  0.07140000000000012  0.7557400000000002  1.0000
  H   H11       1.0  0.74799  0.1576  0.93327  1.0000
  H   H12       1.0  0.66202  0.87019  0.76242  1.0000
  H   H13       1.0  0.7288899999999998  0.3112100000000001  0.0665  1.0000
  H   H14       1.0  0.61681  0.3919000000000001  0.24088  1.0000
  H   H15       1.0  0.80994  0.5970800000000003  0.23833  1.0000
  H   H16       1.0  0.32171  0.6048  0.25571  1.0000
  H   H17       1.0  0.40752000000000005  0.49802  0.4335100000000001  1.0000
  H   H18       1.0  0.12032999999999999  0.412  0.26223  1.0000
  H   H19       1.0  0.24402000000000004  0.6621700000000004  0.9334600000000001  1.0000
  H   H20       1.0  0.1505300000000001  0.37527000000000016  0.7593600000000001  1.0000
  H   H21       1.0  0.35778999999999994  0.57121  0.76165  1.0000
  H   H22       1.0  0.34956  0.06578000000000005  0.74385  1.0000
  H   H23       1.0  0.06487000000000004  0.97422  0.56635  1.0000
  H   H24       1.0  0.1499700000000001  0.8585600000000004  0.7379000000000002  1.0000
  C   C1        1.0  0.8765099999999998  0.057249999999999995  0.35122  1.0000
  C   C2        1.0  0.85672  0.99744  0.3835400000000001  1.0000
  C   C3        1.0  0.7662299999999997  0.9409000000000002  0.35011  1.0000
  C   C4        1.0  0.69531  0.9451299999999999  0.2855  1.0000
  C   C5        1.0  0.7162000000000001  0.006510000000000056  0.2555500000000001  1.0000
  C   C6        1.0  0.80607  0.06223000000000009  0.2870600000000001  1.0000
  C   C7        1.0  0.9733499999999999  0.11546  0.38413  1.0000
  C   C8        1.0  0.74311  0.8732600000000001  0.3805500000000001  1.0000
  C   C9        1.0  0.10382000000000002  0.7493200000000002  0.11609  1.0000
  C   C10       1.0  0.3436  0.98259  0.12054  1.0000
  C   C11       1.0  0.27175  0.0295  0.21654  1.0000
  C   C12       1.0  0.27657  0.95976  0.15162  1.0000
  C   C13       1.0  0.22014  0.86881  0.11693  1.0000
  C   C14       1.0  0.16006000000000006  0.8471100000000003  0.14830000000000004  1.0000
  C   C15       1.0  0.15467000000000003  0.91671  0.21307000000000006  1.0000
  C   C16       1.0  0.21014  0.007200000000000004  0.24592  1.0000
  C   C17       1.0  0.70634  0.52526  0.64871  1.0000
  C   C18       1.0  0.61417  0.4735  0.61657  1.0000
  C   C19       1.0  0.5911  0.41665  0.65013  1.0000
  C   C20       1.0  0.65994  0.41017  0.7146  1.0000
  C   C21       1.0  0.75132  0.4608900000000001  0.74444  1.0000
  C   C22       1.0  0.77554  0.5190900000000003  0.71287  1.0000
  C   C23       1.0  0.73174  0.5887600000000002  0.61562  1.0000
  C   C24       1.0  0.49308  0.36314  0.61969  1.0000
  C   C25       1.0  0.63258  0.9880999999999999  0.88397  1.0000
  C   C26       1.0  0.86153  0.22287  0.87942  1.0000
  C   C27       1.0  0.81252  0.0547700000000001  0.7836300000000003  1.0000
  C   C28       1.0  0.8078  0.12469000000000004  0.8485  1.0000
  C   C29       1.0  0.75142  0.10312999999999999  0.88308  1.0000
  C   C30       1.0  0.69826  0.011700000000000123  0.8517600000000002  1.0000
  C   C31       1.0  0.70322  0.9412700000000002  0.78719  1.0000
  C   C32       1.0  0.7608100000000001  0.9637400000000004  0.7543000000000002  1.0000
  C   C33       1.0  0.7757700000000001  0.45650000000000024  0.14889000000000005  1.0000
  C   C34       1.0  0.72383  0.3643000000000001  0.11655000000000003  1.0000
  C   C35       1.0  0.6668  0.34109000000000006  0.1499  1.0000
  C   C36       1.0  0.6602700000000001  0.40989000000000014  0.21436000000000005  1.0000
  C   C37       1.0  0.7109599999999998  0.50131  0.24425  1.0000
  C   C38       1.0  0.76934  0.5256400000000002  0.21291  1.0000
  C   C39       1.0  0.8394799999999998  0.48207  0.11602  1.0000
  C   C40       1.0  0.6129  0.24309000000000006  0.11915  1.0000
  C   C41       1.0  0.23815000000000006  0.3825900000000001  0.38383  1.0000
  C   C42       1.0  0.47303000000000006  0.6115300000000001  0.37941000000000014  1.0000
  C   C43       1.0  0.3050299999999999  0.56249  0.28368  1.0000
  C   C44       1.0  0.3749000000000002  0.55777  0.3485800000000001  1.0000
  C   C45       1.0  0.35324  0.50145  0.3832  1.0000
  C   C46       1.0  0.2618299999999999  0.44821  0.35168  1.0000
  C   C47       1.0  0.19143999999999994  0.45317  0.28714  1.0000
  C   C48       1.0  0.21401000000000003  0.5109100000000002  0.25442  1.0000
  C   C49       1.0  0.30709  0.62655  0.8513100000000001  1.0000
  C   C50       1.0  0.24728000000000008  0.6069500000000001  0.8836200000000002  1.0000
  C   C51       1.0  0.1909  0.51647  0.85045  1.0000
  C   C52       1.0  0.19501999999999994  0.44533  0.78589  1.0000
  C   C53       1.0  0.2562299999999999  0.46601  0.7557  1.0000
  C   C54       1.0  0.31195000000000017  0.5559300000000003  0.7871500000000002  1.0000
  C   C55       1.0  0.36544999999999994  0.72344  0.88447  1.0000
  C   C56       1.0  0.12365999999999998  0.49371  0.88129  1.0000
  C   C57       1.0  0.9989300000000001  0.8538200000000002  0.61627  1.0000
  C   C58       1.0  0.23233000000000006  0.09368  0.62066  1.0000
  C   C59       1.0  0.27919000000000016  0.021250000000000113  0.7160200000000002  1.0000
  C   C60       1.0  0.20935  0.02629999999999998  0.65134  1.0000
  C   C61       1.0  0.11834000000000004  0.9700000000000003  0.61669  1.0000
  C   C62       1.0  0.09668  0.91001  0.6482  1.0000
  C   C63       1.0  0.16639000000000004  0.90446  0.71281  1.0000
  C   C64       1.0  0.2569400000000001  0.95956  0.7453200000000002  1.0000
  S   S1        1.0  0.62649  0.01598  0.17616  1.0000
  S   S2        1.0  0.20114  0.0964  0.32657  1.0000
  S   S3        1.0  0.84036  0.45028  0.82327  1.0000
  S   S4        1.0  0.7698800000000001  0.87402  0.6739900000000002  1.0000
  S   S5        1.0  0.69996  0.5903500000000003  0.32274000000000014  1.0000
  S   S6        1.0  0.12421  0.51972  0.17413  1.0000
  S   S7        1.0  0.2655900000000001  0.3762100000000001  0.67613  1.0000
  S   S8        1.0  0.3463700000000002  0.9503100000000002  0.8255600000000002  1.0000
  O   O1        1.0  0.032479999999999995  0.11703  0.44829  1.0000
  O   O2        1.0  0.98709  0.15812000000000007  0.34374  1.0000
  O   O3        1.0  0.66997  0.05100999999999999  0.13411  1.0000
  O   O4        1.0  0.59253  0.08802  0.22484  1.0000
  O   O5        1.0  0.5551799999999998  0.9253300000000002  0.12631  1.0000
  O   O6        1.0  0.17341999999999994  0.27028  0.46824  1.0000
  O   O7        1.0  0.29654  0.2157  0.53648  1.0000
  O   O8        1.0  0.3446100000000001  0.9178500000000003  0.06097000000000001  1.0000
  O   O9        1.0  0.06908999999999997  0.73374  0.16063  1.0000
  O   O10       1.0  0.0968  0.69103  0.04821  1.0000
  O   O11       1.0  0.8052  0.87969  0.44629  1.0000
  O   O12       1.0  0.66257  0.8150400000000002  0.33654  1.0000
  O   O13       1.0  0.39479  0.06698000000000003  0.1581  1.0000
  O   O14       1.0  0.1784  0.054779999999999995  0.3752  1.0000
  O   O15       1.0  0.11925  0.12099  0.27787  1.0000
  O   O16       1.0  0.28685  0.17349999999999996  0.36958  1.0000
  O   O17       1.0  0.6690199999999997  0.5839800000000003  0.55164  1.0000
  O   O18       1.0  0.8150799999999998  0.6421400000000003  0.65563  1.0000
  O   O19       1.0  0.9177199999999998  0.53571  0.86537  1.0000
  O   O20       1.0  0.86286  0.3672700000000001  0.77416  1.0000
  O   O21       1.0  0.7998600000000002  0.4289600000000002  0.8733200000000002  1.0000
  O   O22       1.0  0.80308  0.70443  0.53163  1.0000
  O   O23       1.0  0.67937  0.75882  0.46278  1.0000
  O   O24       1.0  0.8557999999999999  0.28360000000000013  0.9385000000000002  1.0000
  O   O25       1.0  0.5735500000000001  0.9080600000000003  0.8402500000000003  1.0000
  O   O26       1.0  0.6408900000000001  0.049780000000000095  0.9509100000000003  1.0000
  O   O27       1.0  0.4335400000000001  0.3614900000000002  0.5550900000000002  1.0000
  O   O28       1.0  0.47921  0.3247400000000001  0.66263  1.0000
  O   O29       1.0  0.9086900000000001  0.23649000000000006  0.84213  1.0000
  O   O30       1.0  0.67995  0.80221  0.62509  1.0000
  O   O31       1.0  0.8434700000000005  0.8416  0.7233400000000002  1.0000
  O   O32       1.0  0.8040099999999998  0.9165300000000001  0.6309  1.0000
  O   O33       1.0  0.8353  0.4190700000000001  0.05250000000000001  1.0000
  O   O34       1.0  0.8923  0.56563  0.15552000000000005  1.0000
  O   O35       1.0  0.7851199999999998  0.6680000000000003  0.3648  1.0000
  O   O36       1.0  0.61698  0.61252  0.27312  1.0000
  O   O37       1.0  0.67872  0.55007  0.37295  1.0000
  O   O38       1.0  0.9546699999999998  0.55346  0.03179  1.0000
  O   O39       1.0  0.008850000000000068  0.4297300000000001  0.9632600000000002  1.0000
  O   O40       1.0  0.5337300000000001  0.60634  0.43883000000000005  1.0000
  O   O41       1.0  0.15802999999999998  0.3237200000000001  0.34008  1.0000
  O   O42       1.0  0.29981  0.39087  0.45075  1.0000
  O   O43       1.0  0.61014  0.18364000000000005  0.05394  1.0000
  O   O44       1.0  0.57499  0.22910000000000008  0.16233  1.0000
  O   O45       1.0  0.48659999999999987  0.65824  0.34174  1.0000
  O   O46       1.0  0.05277  0.42958  0.12538  1.0000
  O   O47       1.0  0.09165  0.5932500000000003  0.22339  1.0000
  O   O48       1.0  0.16648  0.55412  0.13105000000000006  1.0000
  O   O49       1.0  0.36719  0.78258  0.94874  1.0000
  O   O50       1.0  0.40813000000000005  0.7371600000000001  0.8441400000000001  1.0000
  O   O51       1.0  0.3000500000000001  0.4198600000000001  0.6338700000000003  1.0000
  O   O52       1.0  0.33809  0.34246  0.72456  1.0000
  O   O53       1.0  0.17514  0.3045900000000001  0.6265700000000001  1.0000
  O   O54       1.0  0.52007  0.92368  0.96824  1.0000
  O   O55       1.0  0.46541000000000005  0.04683  0.03647  1.0000
  O   O56       1.0  0.1676  0.09513  0.56139  1.0000
  O   O57       1.0  0.9835299999999999  0.81891  0.66078  1.0000
  O   O58       1.0  0.94049  0.8468800000000001  0.5484900000000001  1.0000
  O   O59       1.0  0.12965999999999994  0.5565100000000002  0.94651  1.0000
  O   O60       1.0  0.06618000000000002  0.41273  0.83813  1.0000
  O   O61       1.0  0.31682000000000016  0.14466000000000012  0.6582300000000002  1.0000
  O   O62       1.0  0.30525  0.9280900000000002  0.87468  1.0000
  O   O63       1.0  0.37057  0.86823  0.7766  1.0000
  O   O64       1.0  0.42363  0.035870000000000034  0.86834  1.0000
