data_image0
_chemical_formula_structural       Zn8H64C80S4N32O16
_chemical_formula_sum              "Zn8 H64 C80 S4 N32 O16"
_cell_length_a       7.12592
_cell_length_b       15.973720000000002
_cell_length_c       20.19475
_cell_angle_alpha    87.05184
_cell_angle_beta     89.59824000000002
_cell_angle_gamma    90.20591

_space_group_name_H-M_alt    "P 1"
_space_group_IT_number       1

loop_
  _space_group_symop_operation_xyz
  'x, y, z'

loop_
  _atom_site_type_symbol
  _atom_site_label
  _atom_site_symmetry_multiplicity
  _atom_site_fract_x
  _atom_site_fract_y
  _atom_site_fract_z
  _atom_site_occupancy
  Zn  Zn1       1.0  0.7665  0.8563099999999998  0.28419  1.0000
  Zn  Zn2       1.0  0.2821999999999999  0.9269  0.49991  1.0000
  Zn  Zn3       1.0  0.27064  0.64763  0.21579  1.0000
  Zn  Zn4       1.0  0.79468  0.5768499999999998  0.00061  1.0000
  Zn  Zn5       1.0  0.23290999999999995  0.1477  0.71612  1.0000
  Zn  Zn6       1.0  0.71592  0.07745999999999996  0.5027900000000001  1.0000
  Zn  Zn7       1.0  0.7386699999999998  0.35417999999999994  0.78276  1.0000
  Zn  Zn8       1.0  0.21434000000000003  0.42432999999999976  0.9983  1.0000
  H   H1        1.0  0.39718  0.48773  0.19405  1.0000
  H   H2        1.0  0.35592  0.34747  0.25075  1.0000
  H   H3        1.0  0.23345  0.4722399999999999  0.4312  1.0000
  H   H4        1.0  0.2765599999999999  0.6084999999999998  0.36763000000000007  1.0000
  H   H5        1.0  0.18421  0.31885999999999987  0.77633  1.0000
  H   H6        1.0  0.17469  0.4649499999999999  0.7296600000000001  1.0000
  H   H7        1.0  0.3074599999999999  0.37140999999999996  0.53742  1.0000
  H   H8        1.0  0.3159699999999999  0.22972  0.5900900000000001  1.0000
  H   H9        1.0  0.11625999999999997  0.08855  0.52839  1.0000
  H   H10       1.0  0.14587999999999998  0.2296699999999999  0.4736900000000001  1.0000
  H   H11       1.0  0.24453999999999995  0.11027  0.28943  1.0000
  H   H12       1.0  0.21806  0.97348  0.35177  1.0000
  H   H13       1.0  0.26287  0.8562699999999998  0.6365  1.0000
  H   H14       1.0  0.24464999999999995  0.71506  0.69383  1.0000
  H   H15       1.0  0.23378999999999997  0.60973  0.50047  1.0000
  H   H16       1.0  0.251  0.7560499999999998  0.45049  1.0000
  H   H17       1.0  0.8972  0.016519999999999996  0.30324000000000007  1.0000
  H   H18       1.0  0.8584899999999999  0.15628999999999996  0.24595  1.0000
  H   H19       1.0  0.7271899999999999  0.02992  0.0675  1.0000
  H   H20       1.0  0.7698599999999999  0.89432  0.13140000000000002  1.0000
  H   H21       1.0  0.68731  0.18408  0.72123  1.0000
  H   H22       1.0  0.67186  0.03769  0.76702  1.0000
  H   H23       1.0  0.8194499999999998  0.12826  0.9584  1.0000
  H   H24       1.0  0.8357799999999997  0.2703299999999999  0.9063  1.0000
  H   H25       1.0  0.61258  0.41837  0.97249  1.0000
  H   H26       1.0  0.63817  0.2761  0.02479  1.0000
  H   H27       1.0  0.74964  0.3909299999999999  0.20988  1.0000
  H   H28       1.0  0.7310799999999998  0.52901  0.14932  1.0000
  H   H29       1.0  0.77568  0.64504  0.8625700000000001  1.0000
  H   H30       1.0  0.7461899999999998  0.78482  0.8041800000000001  1.0000
  H   H31       1.0  0.7377399999999997  0.89338  0.9963  1.0000
  H   H32       1.0  0.7653299999999997  0.7481599999999998  0.04758  1.0000
  H   H33       1.0  0.6012800000000001  0.51287  0.80407  1.0000
  H   H34       1.0  0.63828  0.6534199999999998  0.74748  1.0000
  H   H35       1.0  0.76865  0.52974  0.56715  1.0000
  H   H36       1.0  0.7292599999999998  0.3933099999999999  0.63058  1.0000
  H   H37       1.0  0.81573  0.6849299999999998  0.22216  1.0000
  H   H38       1.0  0.8277499999999999  0.53871  0.26844  1.0000
  H   H39       1.0  0.6921499999999998  0.6309899999999998  0.46091000000000004  1.0000
  H   H40       1.0  0.6797799999999998  0.7728399999999997  0.40848  1.0000
  H   H41       1.0  0.8785599999999998  0.9172599999999997  0.47241  1.0000
  H   H42       1.0  0.8491499999999997  0.77507  0.52489  1.0000
  H   H43       1.0  0.75687  0.88989  0.7116  1.0000
  H   H44       1.0  0.7816399999999999  0.02802999999999999  0.65117  1.0000
  H   H45       1.0  0.73065  0.14621999999999993  0.36449  1.0000
  H   H46       1.0  0.7556699999999997  0.28645  0.30594  1.0000
  H   H47       1.0  0.7705899999999998  0.39468  0.4980200000000001  1.0000
  H   H48       1.0  0.7477099999999999  0.24925000000000003  0.54939  1.0000
  H   H49       1.0  0.10424000000000001  0.98707  0.69594  1.0000
  H   H50       1.0  0.15000999999999998  0.84664  0.75126  1.0000
  H   H51       1.0  0.28234  0.9702799999999999  0.9308  1.0000
  H   H52       1.0  0.23462999999999995  0.10676999999999996  0.8686799999999999  1.0000
  H   H53       1.0  0.3210199999999999  0.81869  0.27663  1.0000
  H   H54       1.0  0.32975  0.9647999999999998  0.2297  1.0000
  H   H55       1.0  0.17856  0.87085  0.03966  1.0000
  H   H56       1.0  0.17085  0.72932  0.09268  1.0000
  H   H57       1.0  0.3934799999999999  0.58514  0.025550000000000003  1.0000
  H   H58       1.0  0.36706  0.7266899999999997  0.97171  1.0000
  H   H59       1.0  0.25021  0.60892  0.78838  1.0000
  H   H60       1.0  0.26824  0.47188  0.8503900000000001  1.0000
  H   H61       1.0  0.23056  0.35535  0.13626  1.0000
  H   H62       1.0  0.25462  0.21456  0.1938  1.0000
  H   H63       1.0  0.26099  0.10814  0.0008100000000000001  1.0000
  H   H64       1.0  0.23936  0.25412  0.9505  1.0000
  C   C1        1.0  0.35751  0.48128  0.24603  1.0000
  C   C2        1.0  0.33341  0.4040799999999999  0.27721  1.0000
  C   C3        1.0  0.27853  0.39778999999999987  0.34515  1.0000
  C   C4        1.0  0.26741  0.4737999999999999  0.37851  1.0000
  C   C5        1.0  0.29145  0.54946  0.34357  1.0000
  C   C6        1.0  0.21232  0.33278  0.72385  1.0000
  C   C7        1.0  0.20800999999999994  0.4142099999999999  0.6978800000000001  1.0000
  C   C8        1.0  0.24122999999999997  0.4322199999999999  0.6288100000000001  1.0000
  C   C9        1.0  0.2792699999999999  0.36213  0.5904  1.0000
  C   C10       1.0  0.28434  0.2827099999999999  0.6195600000000001  1.0000
  C   C11       1.0  0.14971999999999994  0.09561  0.47601  1.0000
  C   C12       1.0  0.16586999999999993  0.17421  0.44556  1.0000
  C   C13       1.0  0.20952999999999997  0.18318  0.37714  1.0000
  C   C14       1.0  0.21957  0.10790999999999999  0.34279  1.0000
  C   C15       1.0  0.20415999999999998  0.03131  0.37717  1.0000
  C   C16       1.0  0.25265  0.8001599999999998  0.6086000000000001  1.0000
  C   C17       1.0  0.24256  0.72172  0.63992  1.0000
  C   C18       1.0  0.23366999999999996  0.64971  0.60188  1.0000
  C   C19       1.0  0.23745  0.66332  0.53144  1.0000
  C   C20       1.0  0.24674  0.7435899999999998  0.50398  1.0000
  C   C21       1.0  0.85654  0.02247  0.25153  1.0000
  C   C22       1.0  0.8338  0.09948  0.22001  1.0000
  C   C23       1.0  0.77692  0.10532  0.15254  1.0000
  C   C24       1.0  0.7634099999999998  0.028949999999999986  0.11981  1.0000
  C   C25       1.0  0.7866399999999999  0.9535299999999998  0.15505  1.0000
  C   C26       1.0  0.71784  0.1694  0.77327  1.0000
  C   C27       1.0  0.71027  0.08772  0.79878  1.0000
  C   C28       1.0  0.7449599999999997  0.06904000000000002  0.8674600000000001  1.0000
  C   C29       1.0  0.78958  0.13842  0.9057700000000001  1.0000
  C   C30       1.0  0.79898  0.21794  0.8769200000000001  1.0000
  C   C31       1.0  0.64873  0.40996  0.02439  1.0000
  C   C32       1.0  0.66212  0.33062999999999987  0.05364  1.0000
  C   C33       1.0  0.70906  0.32009  0.12152000000000002  1.0000
  C   C34       1.0  0.72358  0.39457  0.15671  1.0000
  C   C35       1.0  0.71199  0.47187  0.12339  1.0000
  C   C36       1.0  0.76347  0.70139  0.8900700000000001  1.0000
  C   C37       1.0  0.74736  0.77915  0.8581200000000001  1.0000
  C   C38       1.0  0.73584  0.8517  0.89544  1.0000
  C   C39       1.0  0.7431199999999999  0.8393  0.9659  1.0000
  C   C40       1.0  0.7581  0.7596399999999998  0.99406  1.0000
  C   C41       1.0  0.6416999999999998  0.51959  0.75213  1.0000
  C   C42       1.0  0.6637399999999998  0.5970199999999998  0.7210500000000001  1.0000
  C   C43       1.0  0.72008  0.6039099999999997  0.65324  1.0000
  C   C44       1.0  0.73376  0.52804  0.6197900000000001  1.0000
  C   C45       1.0  0.7116299999999998  0.45217  0.65468  1.0000
  C   C46       1.0  0.7871  0.67076  0.27459  1.0000
  C   C47       1.0  0.79314  0.5891999999999997  0.30033  1.0000
  C   C48       1.0  0.7599599999999997  0.5708  0.36938  1.0000
  C   C49       1.0  0.72006  0.64058  0.40793  1.0000
  C   C50       1.0  0.71272  0.7200399999999998  0.37897000000000003  1.0000
  C   C51       1.0  0.84588  0.90893  0.52479  1.0000
  C   C52       1.0  0.82995  0.8296499999999998  0.55409  1.0000
  C   C53       1.0  0.7882699999999999  0.81905  0.62263  1.0000
  C   C54       1.0  0.77983  0.8934999999999997  0.65813  1.0000
  C   C55       1.0  0.79457  0.97084  0.6248600000000001  1.0000
  C   C56       1.0  0.74361  0.20265  0.3919  1.0000
  C   C57       1.0  0.7570399999999998  0.28064  0.35987  1.0000
  C   C58       1.0  0.7682599999999998  0.35327999999999987  0.39713  1.0000
  C   C59       1.0  0.7643699999999998  0.34062  0.46761  1.0000
  C   C60       1.0  0.75214  0.26079999999999987  0.49582  1.0000
  C   C61       1.0  0.14736999999999995  0.9805099999999997  0.7473400000000001  1.0000
  C   C62       1.0  0.17388999999999996  0.90312  0.77774  1.0000
  C   C63       1.0  0.23238999999999996  0.89634  0.84498  1.0000
  C   C64       1.0  0.24517999999999998  0.9721300000000002  0.8785400000000001  1.0000
  C   C65       1.0  0.21877999999999995  0.048019999999999986  0.8443100000000001  1.0000
  C   C66       1.0  0.28914999999999996  0.83257  0.22457000000000002  1.0000
  C   C67       1.0  0.29306  0.9139699999999997  0.19846  1.0000
  C   C68       1.0  0.25548  0.93165  0.1298  1.0000
  C   C69       1.0  0.21148  0.86163  0.09214  1.0000
  C   C70       1.0  0.20648  0.78235  0.12152000000000002  1.0000
  C   C71       1.0  0.35625  0.5926899999999998  0.9737  1.0000
  C   C72       1.0  0.3425899999999999  0.6715399999999998  0.9436300000000001  1.0000
  C   C73       1.0  0.29528  0.68125  0.8757500000000001  1.0000
  C   C74       1.0  0.27801  0.6062099999999998  0.84144  1.0000
  C   C75       1.0  0.28951  0.5294199999999998  0.87558  1.0000
  C   C76       1.0  0.24104999999999996  0.2991699999999999  0.10842999999999998  1.0000
  C   C77       1.0  0.25449  0.22102  0.13987  1.0000
  C   C78       1.0  0.26404  0.14887  0.102  1.0000
  C   C79       1.0  0.25752  0.16191  0.03159  1.0000
  C   C80       1.0  0.24546  0.2419  0.00396  1.0000
  S   S1        1.0  0.6142599999999998  0.9399099999999998  0.38927  1.0000
  S   S2        1.0  0.12511  0.5637  0.1101  1.0000
  S   S3        1.0  0.38283  0.06386000000000001  0.61151  1.0000
  S   S4        1.0  0.8796799999999999  0.43663999999999986  0.88796  1.0000
  N   N1        1.0  0.3316  0.55507  0.27711  1.0000
  N   N2        1.0  0.23863999999999994  0.32377  0.38001000000000007  1.0000
  N   N3        1.0  0.25037  0.26544  0.6863  1.0000
  N   N4        1.0  0.24100999999999995  0.50962  0.5963  1.0000
  N   N5        1.0  0.17832  0.023129999999999998  0.44445  1.0000
  N   N6        1.0  0.24251999999999996  0.2584799999999999  0.34241  1.0000
  N   N7        1.0  0.25239  0.81288  0.5413  1.0000
  N   N8        1.0  0.22948  0.57301  0.6357  1.0000
  N   N9        1.0  0.82776  0.94834  0.22122  1.0000
  N   N10       1.0  0.73702  0.17925  0.11773  1.0000
  N   N11       1.0  0.76195  0.23604  0.81072  1.0000
  N   N12       1.0  0.7425199999999997  0.9916999999999996  0.8999700000000002  1.0000
  N   N13       1.0  0.68423  0.48148  0.05642  1.0000
  N   N14       1.0  0.7420799999999999  0.24443999999999996  0.15537  1.0000
  N   N15       1.0  0.7662299999999999  0.6897699999999998  0.95747  1.0000
  N   N16       1.0  0.7286699999999998  0.92797  0.8610400000000001  1.0000
  N   N17       1.0  0.67079  0.44600999999999996  0.7210500000000001  1.0000
  N   N18       1.0  0.75961  0.6783099999999997  0.61873  1.0000
  N   N19       1.0  0.74679  0.73778  0.31229  1.0000
  N   N20       1.0  0.76099  0.49338999999999994  0.40188000000000007  1.0000
  N   N21       1.0  0.81881  0.9805999999999999  0.55756  1.0000
  N   N22       1.0  0.7558499999999998  0.74322  0.65671  1.0000
  N   N23       1.0  0.74365  0.19088  0.45931  1.0000
  N   N24       1.0  0.77358  0.42973  0.36280000000000007  1.0000
  N   N25       1.0  0.17495  0.05424999999999997  0.77836  1.0000
  N   N26       1.0  0.27224  0.82205  0.87914  1.0000
  N   N27       1.0  0.24664999999999995  0.7652399999999998  0.18761  1.0000
  N   N28       1.0  0.25568  0.00883  0.09706  1.0000
  N   N29       1.0  0.3198499999999999  0.52066  0.94242  1.0000
  N   N30       1.0  0.26426  0.75688  0.8414900000000001  1.0000
  N   N31       1.0  0.23912999999999995  0.31137  0.04105  1.0000
  N   N32       1.0  0.27015  0.07246  0.13606  1.0000
  O   O1        1.0  0.80722  0.90095  0.378  1.0000
  O   O2        1.0  0.50538  0.88741  0.44071  1.0000
  O   O3        1.0  0.63845  0.026139999999999993  0.4139900000000001  1.0000
  O   O4        1.0  0.52192  0.94024  0.32337  1.0000
  O   O5        1.0  0.31636  0.6038099999999997  0.12075  1.0000
  O   O6        1.0  0.01902  0.61348  0.057120000000000004  1.0000
  O   O7        1.0  0.15136999999999995  0.47632  0.08802  1.0000
  O   O8        1.0  0.027169999999999993  0.5666799999999997  0.17536  1.0000
  O   O9        1.0  0.18850999999999996  0.10055999999999994  0.6229200000000001  1.0000
  O   O10       1.0  0.4864  0.1164  0.5588  1.0000
  O   O11       1.0  0.36247  0.9763399999999999  0.58891  1.0000
  O   O12       1.0  0.4788  0.06708  0.67662  1.0000
  O   O13       1.0  0.6876  0.39651  0.8788500000000001  1.0000
  O   O14       1.0  0.9902299999999998  0.3870499999999999  0.93975  1.0000
  O   O15       1.0  0.85703  0.5244  0.9096000000000001  1.0000
  O   O16       1.0  0.97288  0.43323999999999985  0.8215800000000001  1.0000
