data_image0
_chemical_formula_structural       Ni8H64C64N40O16
_chemical_formula_sum              "Ni8 H64 C64 N40 O16"
_cell_length_a       15.04088
_cell_length_b       15.04889
_cell_length_c       15.36425
_cell_angle_alpha    119.97969999999998
_cell_angle_beta     118.95605
_cell_angle_gamma    89.71297

_symmetry_space_group_name_H-M    'P 1'
_symmetry_Int_Tables_number       1

loop_
  _symmetry_equiv_pos_as_xyz
  'x,y,z'

loop_
  _atom_site_type_symbol
  _atom_site_label
  _atom_site_symmetry_multiplicity
  _atom_site_fract_x
  _atom_site_fract_y
  _atom_site_fract_z
  _atom_site_occupancy
  Ni  Ni1       1.0  0.016710000000000003  0.06537  0.11458  1.0000
  Ni  Ni2       1.0  0.09858999999999998  0.5386999999999998  0.10981999999999999  1.0000
  Ni  Ni3       1.0  0.02800999999999998  0.51223  0.59403  1.0000
  Ni  Ni4       1.0  0.56174  0.58234  0.5945  1.0000
  Ni  Ni5       1.0  0.98413  0.92786  0.88473  1.0000
  Ni  Ni6       1.0  0.91857  0.47144999999999987  0.9062899999999999  1.0000
  Ni  Ni7       1.0  0.96126  0.4867699999999999  0.39017999999999997  1.0000
  Ni  Ni8       1.0  0.42724  0.39967  0.3895  1.0000
  H   H1        1.0  0.13739  0.38247999999999993  0.69917  1.0000
  H   H2        1.0  0.19698999999999997  0.08783999999999996  0.48428999999999994  1.0000
  H   H3        1.0  0.14808  0.057159999999999975  0.33838  1.0000
  H   H4        1.0  0.9655  0.27126  0.17109  1.0000
  H   H5        1.0  0.82024  0.16611  0.80759  1.0000
  H   H6        1.0  0.78459  0.19641999999999993  0.9104399999999998  1.0000
  H   H7        1.0  0.66969  0.9623  0.68354  1.0000
  H   H8        1.0  0.61075  0.07501999999999993  0.7097699999999999  1.0000
  H   H9        1.0  0.55716  0.82015  0.70042  1.0000
  H   H10       1.0  0.286  0.89552  0.48105  1.0000
  H   H11       1.0  0.19218  0.77703  0.33737  1.0000
  H   H12       1.0  0.21064  0.39546  0.1719  1.0000
  H   H13       1.0  0.9625299999999999  0.14163  0.7872399999999999  1.0000
  H   H14       1.0  0.10243999999999998  0.19723  0.89018  1.0000
  H   H15       1.0  0.0022299999999999456  0.21881999999999996  0.67343  1.0000
  H   H16       1.0  0.09612999999999995  0.1413  0.70597  1.0000
  H   H17       1.0  0.33865  0.64804  0.20159  1.0000
  H   H18       1.0  0.38848999999999995  0.69382  0.9606399999999999  1.0000
  H   H19       1.0  0.26380999999999993  0.64012  0.8218999999999999  1.0000
  H   H20       1.0  0.90091  0.46296  0.68579  1.0000
  H   H21       1.0  0.64462  0.32594  0.31741  1.0000
  H   H22       1.0  0.7182  0.28828  0.41681  1.0000
  H   H23       1.0  0.71192  0.17519  0.18015  1.0000
  H   H24       1.0  0.6526099999999998  0.11162999999999997  0.22563999999999995  1.0000
  H   H25       1.0  0.87202  0.05005  0.20887999999999998  1.0000
  H   H26       1.0  0.5763899999999998  0.77017  0.96949  1.0000
  H   H27       1.0  0.55615  0.68465  0.8261  1.0000
  H   H28       1.0  0.77114  0.72269  0.675  1.0000
  H   H29       1.0  0.67137  0.4913  0.31551  1.0000
  H   H30       1.0  0.69607  0.62951  0.4169  1.0000
  H   H31       1.0  0.46865  0.50489  0.18152  1.0000
  H   H32       1.0  0.57417  0.61231  0.22563999999999995  1.0000
  H   H33       1.0  0.85095  0.63286  0.29747  1.0000
  H   H34       1.0  0.8059799999999999  0.9267600000000001  0.53316  1.0000
  H   H35       1.0  0.85627  0.94907  0.6762  1.0000
  H   H36       1.0  0.03586999999999995  0.7181299999999999  0.8180299999999999  1.0000
  H   H37       1.0  0.18383  0.8301499999999999  0.19346  1.0000
  H   H38       1.0  0.21873  0.80268  0.09071  1.0000
  H   H39       1.0  0.33047  0.03652  0.31628  1.0000
  H   H40       1.0  0.39263  0.92618  0.29222  1.0000
  H   H41       1.0  0.44994  0.15802999999999995  0.29571  1.0000
  H   H42       1.0  0.7336  0.11100999999999993  0.54041  1.0000
  H   H43       1.0  0.81857  0.2373  0.67993  1.0000
  H   H44       1.0  0.77504  0.60304  0.81516  1.0000
  H   H45       1.0  0.00581  0.8568599999999998  0.18218  1.0000
  H   H46       1.0  0.8694199999999999  0.77987  0.08241  1.0000
  H   H47       1.0  0.99364  0.79113  0.31953  1.0000
  H   H48       1.0  0.8849  0.8512499999999996  0.27485  1.0000
  H   H49       1.0  0.6819799999999999  0.36377999999999994  0.8021099999999999  1.0000
  H   H50       1.0  0.60739  0.30484  0.01871  1.0000
  H   H51       1.0  0.72415  0.35452999999999985  0.16214999999999996  1.0000
  H   H52       1.0  0.10187  0.53709  0.32543  1.0000
  H   H53       1.0  0.354  0.67245  0.70596  1.0000
  H   H54       1.0  0.29687  0.7095799999999999  0.60328  1.0000
  H   H55       1.0  0.2824499999999999  0.8277399999999999  0.8281199999999999  1.0000
  H   H56       1.0  0.3506000000000001  0.88775  0.7868  1.0000
  H   H57       1.0  0.1274  0.94719  0.78822  1.0000
  H   H58       1.0  0.42171  0.2262  0.02685  1.0000
  H   H59       1.0  0.44371000000000005  0.31372  0.17081  1.0000
  H   H60       1.0  0.22653  0.27129  0.32191  1.0000
  H   H61       1.0  0.3479  0.53093  0.70853  1.0000
  H   H62       1.0  0.3041  0.38977  0.60387  1.0000
  H   H63       1.0  0.54145  0.49854  0.82408  1.0000
  H   H64       1.0  0.43403  0.39863  0.78736  1.0000
  C   C1        1.0  0.12062  0.34064  0.60864  1.0000
  C   C2        1.0  0.05403999999999996  0.32882  0.4341999999999999  1.0000
  C   C3        1.0  0.07365999999999995  0.22998  0.38067  1.0000
  C   C4        1.0  0.12589999999999998  0.19241  0.45459999999999995  1.0000
  C   C5        1.0  0.0002200000000000019  0.27512  0.25363  1.0000
  C   C6        1.0  0.87008  0.08097999999999995  0.8911399999999999  1.0000
  C   C7        1.0  0.78847  0.12914999999999996  0.83787  1.0000
  C   C8        1.0  0.6804399999999999  0.04801  0.73606  1.0000
  C   C9        1.0  0.48503  0.7699599999999998  0.60969  1.0000
  C   C10       1.0  0.38023  0.60439  0.43518999999999997  1.0000
  C   C11       1.0  0.30894  0.64899  0.38086  1.0000
  C   C12       1.0  0.3293  0.7614  0.45444  1.0000
  C   C13       1.0  0.25700999999999996  0.47566  0.25404999999999994  1.0000
  C   C14       1.0  0.020659999999999953  0.31350999999999996  0.8924999999999998  1.0000
  C   C15       1.0  0.03316999999999999  0.20390999999999995  0.82398  1.0000
  C   C16       1.0  0.045349999999999946  0.18763  0.72672  1.0000
  C   C17       1.0  0.28433  0.6286  0.11090999999999998  1.0000
  C   C18       1.0  0.11657000000000002  0.56073  0.94559  1.0000
  C   C19       1.0  0.15317999999999996  0.5751599999999998  0.8836699999999997  1.0000
  C   C20       1.0  0.26429  0.62535  0.94911  1.0000
  C   C21       1.0  0.9818099999999998  0.50052  0.76512  1.0000
  C   C22       1.0  0.81173  0.37409  0.39573  1.0000
  C   C23       1.0  0.71108  0.29241  0.34454  1.0000
  C   C24       1.0  0.68997  0.18399  0.24106999999999998  1.0000
  C   C25       1.0  0.83228  0.97998  0.11579  1.0000
  C   C26       1.0  0.8270999999999998  0.8834799999999999  0.9425999999999999  1.0000
  C   C27       1.0  0.7279499999999998  0.8094499999999998  0.88343  1.0000
  C   C28       1.0  0.6860899999999999  0.82508  0.9530299999999999  1.0000
  C   C29       1.0  0.77369  0.76517  0.7578599999999999  1.0000
  C   C30       1.0  0.58328  0.52086  0.396  1.0000
  C   C31       1.0  0.63193  0.55206  0.34438  1.0000
  C   C32       1.0  0.55092  0.55698  0.24211  1.0000
  C   C33       1.0  0.86968  0.67039  0.3885199999999999  1.0000
  C   C34       1.0  0.9372  0.67112  0.55588  1.0000
  C   C35       1.0  0.92289  0.77094  0.61762  1.0000
  C   C36       1.0  0.8718600000000001  0.8153099999999999  0.55046  1.0000
  C   C37       1.0  0.9983899999999999  0.7180899999999998  0.73759  1.0000
  C   C38       1.0  0.13114000000000006  0.91613  0.11139  1.0000
  C   C39       1.0  0.21428  0.86869  0.16359  1.0000
  C   C40       1.0  0.32164  0.95122  0.26518  1.0000
  C   C41       1.0  0.51987  0.21385999999999997  0.38738999999999996  1.0000
  C   C42       1.0  0.6142699999999999  0.38377  0.55438  1.0000
  C   C43       1.0  0.6912899999999997  0.3480799999999999  0.6161599999999999  1.0000
  C   C44       1.0  0.67776  0.23624999999999996  0.55042  1.0000
  C   C45       1.0  0.73347  0.52094  0.7357299999999999  1.0000
  C   C46       1.0  0.9791500000000001  0.68931  0.10507  1.0000
  C   C47       1.0  0.94646  0.7896300000000002  0.15548  1.0000
  C   C48       1.0  0.94149  0.8125499999999998  0.25889  1.0000
  C   C49       1.0  0.73142  0.38109  0.89219  1.0000
  C   C50       1.0  0.89512  0.44752  0.0646  1.0000
  C   C51       1.0  0.85089  0.42951  0.11907  1.0000
  C   C52       1.0  0.73949  0.37811  0.046689999999999995  1.0000
  C   C53       1.0  0.022449999999999994  0.50226  0.24415999999999996  1.0000
  C   C54       1.0  0.18345  0.62709  0.6049  1.0000
  C   C55       1.0  0.29164  0.70696  0.67077  1.0000
  C   C56       1.0  0.3083599999999999  0.8167099999999998  0.7695599999999999  1.0000
  C   C57       1.0  0.16674999999999998  0.016940000000000035  0.88146  1.0000
  C   C58       1.0  0.17256  0.11157000000000002  0.05503  1.0000
  C   C59       1.0  0.2706  0.18728  0.11395  1.0000
  C   C60       1.0  0.3118699999999999  0.17334999999999998  0.04413  1.0000
  C   C61       1.0  0.22445  0.22911  0.23936  1.0000
  C   C62       1.0  0.4162  0.4766  0.60409  1.0000
  C   C63       1.0  0.37539  0.46128  0.67082  1.0000
  C   C64       1.0  0.4578999999999999  0.4509099999999999  0.7678899999999999  1.0000
  N   N1        1.0  0.14744999999999994  0.2504800000000001  0.56863  1.0000
  N   N2        1.0  0.07479000000000005  0.3854999999999999  0.54719  1.0000
  N   N3        1.0  0.15643999999999997  0.10291  0.42049999999999993  1.0000
  N   N4        1.0  0.036860000000000004  0.19634  0.26332  1.0000
  N   N5        1.0  0.009680000000000018  0.35706  0.35488  1.0000
  N   N6        1.0  0.41928  0.8195199999999998  0.56882  1.0000
  N   N7        1.0  0.47003000000000006  0.6625999999999999  0.54865  1.0000
  N   N8        1.0  0.2648  0.81551  0.41865  1.0000
  N   N9        1.0  0.23080999999999996  0.56448  0.26332  1.0000
  N   N10       1.0  0.34629  0.49562000000000006  0.35572  1.0000
  N   N11       1.0  0.32831  0.65042  0.06318  1.0000
  N   N12       1.0  0.17957999999999996  0.5854099999999999  0.05875  1.0000
  N   N13       1.0  0.31024  0.6490299999999999  0.9031399999999999  1.0000
  N   N14       1.0  0.06567  0.53552  0.76782  1.0000
  N   N15       1.0  0.007790000000000002  0.5154600000000003  0.8709  1.0000
  N   N16       1.0  0.7400499999999999  0.91289  0.0697  1.0000
  N   N17       1.0  0.8816  0.96999  0.05942  1.0000
  N   N18       1.0  0.5941899999999999  0.75709  0.90922  1.0000
  N   N19       1.0  0.69471  0.7341  0.76446  1.0000
  N   N20       1.0  0.85634  0.8541599999999999  0.86293  1.0000
  N   N21       1.0  0.84733  0.76252  0.43551  1.0000
  N   N22       1.0  0.91277  0.61886  0.44197  1.0000
  N   N23       1.0  0.8453199999999998  0.9064  0.59229  1.0000
  N   N24       1.0  0.96368  0.79971  0.7344  1.0000
  N   N25       1.0  0.98268  0.6375499999999997  0.6310699999999999  1.0000
  N   N26       1.0  0.59013  0.1707  0.43524  1.0000
  N   N27       1.0  0.52668  0.3191599999999999  0.4405  1.0000
  N   N28       1.0  0.7477399999999998  0.19092999999999993  0.5965199999999999  1.0000
  N   N29       1.0  0.7666099999999999  0.43692999999999993  0.7324899999999999  1.0000
  N   N30       1.0  0.64235  0.49361999999999995  0.62986  1.0000
  N   N31       1.0  0.6821199999999998  0.35583999999999993  0.9332699999999999  1.0000
  N   N32       1.0  0.83772  0.42598  0.95214  1.0000
  N   N33       1.0  0.68544  0.3493599999999999  0.08275  1.0000
  N   N34       1.0  0.93457  0.46667  0.23558  1.0000
  N   N35       1.0  0.0027099999999999963  0.49164  0.14296  1.0000
  N   N36       1.0  0.25767999999999996  0.08571999999999995  0.9271499999999999  1.0000
  N   N37       1.0  0.11852999999999998  0.024779999999999965  0.93839  1.0000
  N   N38       1.0  0.40278  0.24174  0.08688  1.0000
  N   N39       1.0  0.3029  0.26178  0.23285  1.0000
  N   N40       1.0  0.14336  0.13926  0.13453  1.0000
  O   O1        1.0  0.91025  0.11367999999999998  0.99975  1.0000
  O   O2        1.0  0.89301  0.008560000000000003  0.82065  1.0000
  O   O3        1.0  0.0943  0.38052  0.00155  1.0000
  O   O4        1.0  0.93388  0.32973999999999987  0.83147  1.0000
  O   O5        1.0  0.88523  0.4172399999999999  0.50738  1.0000
  O   O6        1.0  0.81578  0.39236  0.32521  1.0000
  O   O7        1.0  0.61936  0.59042  0.50747  1.0000
  O   O8        1.0  0.51104  0.43019  0.3261  1.0000
  O   O9        1.0  0.08968999999999999  0.88359  0.00239  1.0000
  O   O10       1.0  0.10829000000000001  0.98761  0.18287  1.0000
  O   O11       1.0  0.91077  0.61451  0.99308  1.0000
  O   O12       1.0  0.06834  0.6865  0.17545  1.0000
  O   O13       1.0  0.11626  0.59095  0.49578  1.0000
  O   O14       1.0  0.16876  0.60283  0.66773  1.0000
  O   O15       1.0  0.37512  0.40254999999999996  0.49442  1.0000
  O   O16       1.0  0.49204  0.56527  0.66711  1.0000
