data_image0
_chemical_formula_structural       Cu8H52C64N8Cl4O36
_chemical_formula_sum              "Cu8 H52 C64 N8 Cl4 O36"
_cell_length_a       8.55137
_cell_length_b       11.77955
_cell_length_c       24.780399999999997
_cell_angle_alpha    89.94761
_cell_angle_beta     90.01757
_cell_angle_gamma    105.5379

_symmetry_space_group_name_H-M    'P 1'
_symmetry_Int_Tables_number       1

loop_
  _symmetry_equiv_pos_as_xyz
  'x,y,z'

loop_
  _atom_site_type_symbol
  _atom_site_label
  _atom_site_symmetry_multiplicity
  _atom_site_fract_x
  _atom_site_fract_y
  _atom_site_fract_z
  _atom_site_occupancy
  Cu  Cu1       1.0  0.4138  0.39353  0.9625799999999999  1.0000
  Cu  Cu2       1.0  0.72784  0.59935  0.9152299999999999  1.0000
  Cu  Cu3       1.0  0.08545  0.10804  0.46286  1.0000
  Cu  Cu4       1.0  0.7719300000000001  0.9017400000000002  0.41509  1.0000
  Cu  Cu5       1.0  0.58619  0.60647  0.03743  1.0000
  Cu  Cu6       1.0  0.27215  0.40065  0.08476999999999998  1.0000
  Cu  Cu7       1.0  0.91453  0.8919700000000002  0.53714  1.0000
  Cu  Cu8       1.0  0.22806  0.09826  0.58491  1.0000
  H   H1        1.0  0.46048999999999995  0.6129  0.9378899999999999  1.0000
  H   H2        1.0  0.0017200000000000013  0.21297  0.92272  1.0000
  H   H3        1.0  0.93953  0.9888100000000002  0.91597  1.0000
  H   H4        1.0  0.62118  0.9629200000000001  0.05203  1.0000
  H   H5        1.0  0.6864600000000001  0.18702000000000005  0.05294  1.0000
  H   H6        1.0  0.009660000000000002  0.36746  0.97282  1.0000
  H   H7        1.0  0.90461  0.35732  0.0348  1.0000
  H   H8        1.0  0.77167  0.93597  0.70259  1.0000
  H   H9        1.0  0.74823  0.7776500000000001  0.77466  1.0000
  H   H10       1.0  0.34598  0.88265  0.8424099999999999  1.0000
  H   H11       1.0  0.38483  0.03853  0.76919  1.0000
  H   H12       1.0  0.69236  0.08096000000000002  0.66585  1.0000
  H   H13       1.0  0.613  0.16895000000000002  0.7118999999999999  1.0000
  H   H14       1.0  0.03989000000000001  0.88967  0.43706999999999996  1.0000
  H   H15       1.0  0.49783  0.28629  0.42288999999999993  1.0000
  H   H16       1.0  0.56134  0.51089  0.41602  1.0000
  H   H17       1.0  0.87985  0.53556  0.55207  1.0000
  H   H18       1.0  0.81259  0.3113  0.55318  1.0000
  H   H19       1.0  0.48951  0.13179000000000002  0.47301999999999994  1.0000
  H   H20       1.0  0.59502  0.14124  0.53495  1.0000
  H   H21       1.0  0.72894  0.56314  0.20275  1.0000
  H   H22       1.0  0.7509600000000001  0.7211200000000002  0.27482  1.0000
  H   H23       1.0  0.15507  0.61835  0.34252  1.0000
  H   H24       1.0  0.11778000000000001  0.46291  0.26928  1.0000
  H   H25       1.0  0.80851  0.41941000000000006  0.16619  1.0000
  H   H26       1.0  0.88755  0.3310600000000001  0.21213  1.0000
  H   H27       1.0  0.5395  0.3871  0.06211  1.0000
  H   H28       1.0  0.99827  0.7870400000000001  0.07729  1.0000
  H   H29       1.0  0.06045999999999999  0.011200000000000002  0.08403999999999999  1.0000
  H   H30       1.0  0.37881  0.03709  0.9479699999999998  1.0000
  H   H31       1.0  0.31353000000000003  0.8129900000000001  0.9470599999999999  1.0000
  H   H32       1.0  0.99033  0.63254  0.02719  1.0000
  H   H33       1.0  0.09538  0.6426900000000001  0.9652  1.0000
  H   H34       1.0  0.22832000000000002  0.06403000000000002  0.29742  1.0000
  H   H35       1.0  0.25176  0.22235  0.22534999999999997  1.0000
  H   H36       1.0  0.65401  0.11735000000000002  0.15759  1.0000
  H   H37       1.0  0.61516  0.96148  0.23080999999999996  1.0000
  H   H38       1.0  0.30763  0.91905  0.33416  1.0000
  H   H39       1.0  0.38699000000000006  0.8310600000000001  0.2881  1.0000
  H   H40       1.0  0.9600999999999998  0.11034  0.56293  1.0000
  H   H41       1.0  0.5021600000000002  0.7137200000000001  0.57711  1.0000
  H   H42       1.0  0.43864999999999993  0.48911  0.58398  1.0000
  H   H43       1.0  0.12014000000000001  0.46445  0.44792999999999994  1.0000
  H   H44       1.0  0.18740000000000004  0.6887100000000002  0.44683  1.0000
  H   H45       1.0  0.51048  0.8682100000000001  0.52698  1.0000
  H   H46       1.0  0.40497  0.85877  0.46504999999999996  1.0000
  H   H47       1.0  0.27105000000000007  0.4368600000000001  0.79725  1.0000
  H   H48       1.0  0.24903  0.27888  0.7251899999999999  1.0000
  H   H49       1.0  0.84492  0.38166  0.65748  1.0000
  H   H50       1.0  0.88221  0.5371  0.7307299999999999  1.0000
  H   H51       1.0  0.19148000000000004  0.58059  0.83381  1.0000
  H   H52       1.0  0.11244000000000008  0.6689500000000002  0.78788  1.0000
  C   C1        1.0  0.91553  0.15241  0.949  1.0000
  C   C2        1.0  0.8821400000000003  0.03085  0.94631  1.0000
  C   C3        1.0  0.7787  0.96103  0.98437  1.0000
  C   C4        1.0  0.70383  0.016270000000000003  0.0227  1.0000
  C   C5        1.0  0.73831  0.1381  0.0237  1.0000
  C   C6        1.0  0.891  0.3327800000000001  0.99201  1.0000
  C   C7        1.0  0.76688  0.3892200000000001  0.9659899999999999  1.0000
  C   C8        1.0  0.75399  0.82871  0.9850199999999999  1.0000
  C   C9        1.0  0.68396  0.92209  0.73547  1.0000
  C   C10       1.0  0.6673200000000001  0.8348500000000002  0.77419  1.0000
  C   C11       1.0  0.5457900000000001  0.8198900000000001  0.8135  1.0000
  C   C12       1.0  0.44166  0.8934300000000001  0.8123599999999999  1.0000
  C   C13       1.0  0.4616100000000001  0.9790900000000002  0.77285  1.0000
  C   C14       1.0  0.59199  0.08173  0.69325  1.0000
  C   C15       1.0  0.43125  0.05391  0.66069  1.0000
  C   C16       1.0  0.53117  0.7279  0.8573799999999999  1.0000
  C   C17       1.0  0.58381  0.34678000000000003  0.44922  1.0000
  C   C18       1.0  0.61796  0.46827  0.4464  1.0000
  C   C19       1.0  0.72163  0.5377  0.48442999999999997  1.0000
  C   C20       1.0  0.7964600000000001  0.48247  0.52287  1.0000
  C   C21       1.0  0.76096  0.36064  0.52402  1.0000
  C   C22       1.0  0.60805  0.16671  0.4922599999999999  1.0000
  C   C23       1.0  0.733  0.11184000000000002  0.46601  1.0000
  C   C24       1.0  0.74611  0.6699  0.48475999999999997  1.0000
  C   C25       1.0  0.81686  0.57756  0.23558  1.0000
  C   C26       1.0  0.8325500000000001  0.6644500000000001  0.27432  1.0000
  C   C27       1.0  0.95387  0.67978  0.31373  1.0000
  C   C28       1.0  0.059250000000000004  0.60717  0.31249  1.0000
  C   C29       1.0  0.04024999999999999  0.5218  0.27291  1.0000
  C   C30       1.0  0.9092200000000001  0.4183100000000001  0.19340999999999997  1.0000
  C   C31       1.0  0.06888  0.44523000000000007  0.16021  1.0000
  C   C32       1.0  0.96678  0.77177  0.35746  1.0000
  C   C33       1.0  0.08446000000000009  0.8475900000000002  0.051  1.0000
  C   C34       1.0  0.1178500000000001  0.9691600000000002  0.05369  1.0000
  C   C35       1.0  0.22129  0.03897  0.01563  1.0000
  C   C36       1.0  0.2961600000000001  0.9837400000000002  0.9773  1.0000
  C   C37       1.0  0.26168  0.86191  0.9763  1.0000
  C   C38       1.0  0.10899000000000005  0.66723  0.00799  1.0000
  C   C39       1.0  0.23311  0.61078  0.03401  1.0000
  C   C40       1.0  0.24599999999999997  0.17129000000000003  0.01499  1.0000
  C   C41       1.0  0.31603000000000003  0.07792000000000002  0.26453  1.0000
  C   C42       1.0  0.33267  0.16515000000000002  0.22581  1.0000
  C   C43       1.0  0.45419  0.18012  0.1865  1.0000
  C   C44       1.0  0.55833  0.10657  0.18763999999999997  1.0000
  C   C45       1.0  0.53838  0.020920000000000005  0.22715  1.0000
  C   C46       1.0  0.4080000000000001  0.9182700000000003  0.30675  1.0000
  C   C47       1.0  0.5687400000000001  0.9460900000000002  0.33930999999999994  1.0000
  C   C48       1.0  0.46882  0.2721  0.14263  1.0000
  C   C49       1.0  0.41618000000000005  0.6532200000000001  0.55078  1.0000
  C   C50       1.0  0.38203000000000004  0.5317300000000001  0.5536  1.0000
  C   C51       1.0  0.27836  0.46231000000000005  0.51557  1.0000
  C   C52       1.0  0.20353  0.51753  0.47713  1.0000
  C   C53       1.0  0.23901999999999998  0.63936  0.47597999999999996  1.0000
  C   C54       1.0  0.39194  0.8333  0.50775  1.0000
  C   C55       1.0  0.2669900000000001  0.8881700000000002  0.53399  1.0000
  C   C56       1.0  0.25387000000000004  0.33010000000000006  0.51524  1.0000
  C   C57       1.0  0.18313000000000001  0.42245000000000005  0.76442  1.0000
  C   C58       1.0  0.16744  0.33555000000000007  0.72568  1.0000
  C   C59       1.0  0.046120000000000015  0.32022000000000006  0.68628  1.0000
  C   C60       1.0  0.94074  0.39284  0.68751  1.0000
  C   C61       1.0  0.95974  0.47821000000000013  0.72709  1.0000
  C   C62       1.0  0.09077000000000005  0.5816900000000002  0.80659  1.0000
  C   C63       1.0  0.93111  0.55477  0.8397999999999999  1.0000
  C   C64       1.0  0.033200000000000014  0.22823000000000002  0.64254  1.0000
  N   N1        1.0  0.84616  0.20361000000000004  0.9880499999999999  1.0000
  N   N2        1.0  0.58333  0.99383  0.73598  1.0000
  N   N3        1.0  0.65252  0.29562  0.48847  1.0000
  N   N4        1.0  0.91848  0.50653  0.23604  1.0000
  N   N5        1.0  0.15383000000000008  0.7963900000000003  0.01196  1.0000
  N   N6        1.0  0.41666  0.006170000000000002  0.26402  1.0000
  N   N7        1.0  0.34747  0.70439  0.51154  1.0000
  N   N8        1.0  0.08151  0.4934700000000001  0.76396  1.0000
  Cl  Cl1       1.0  0.22766  0.3962900000000001  0.8963599999999999  1.0000
  Cl  Cl2       1.0  0.27212  0.10602  0.39671  1.0000
  Cl  Cl3       1.0  0.77233  0.60371  0.10363999999999998  1.0000
  Cl  Cl4       1.0  0.7278700000000001  0.8939900000000001  0.60329  1.0000
  O   O1        1.0  0.63361  0.32578000000000007  0.94963  1.0000
  O   O2        1.0  0.81809  0.5015600000000001  0.9656299999999999  1.0000
  O   O3        1.0  0.67478  0.7779200000000001  0.026069999999999996  1.0000
  O   O4        1.0  0.81579  0.7846700000000001  0.94709  1.0000
  O   O5        1.0  0.43677  0.13287  0.62434  1.0000
  O   O6        1.0  0.31827  0.96646  0.67186  1.0000
  O   O7        1.0  0.6273800000000002  0.66277  0.85164  1.0000
  O   O8        1.0  0.42905  0.72519  0.89448  1.0000
  O   O9        1.0  0.52413  0.5652  0.95679  1.0000
  O   O10       1.0  0.86589  0.1761  0.4497  1.0000
  O   O11       1.0  0.68237  0.9995300000000001  0.46548  1.0000
  O   O12       1.0  0.82587  0.72067  0.52569  1.0000
  O   O13       1.0  0.68361  0.7138600000000003  0.44697  1.0000
  O   O14       1.0  0.06315999999999997  0.36521  0.12442  1.0000
  O   O15       1.0  0.18187  0.5334  0.17023  1.0000
  O   O16       1.0  0.8667900000000001  0.8341200000000001  0.35181  1.0000
  O   O17       1.0  0.0710000000000001  0.7774600000000003  0.39419  1.0000
  O   O18       1.0  0.97596  0.9368  0.45617  1.0000
  O   O19       1.0  0.36637999999999993  0.67423  0.05036999999999999  1.0000
  O   O20       1.0  0.18190000000000003  0.49845000000000006  0.03438  1.0000
  O   O21       1.0  0.32520999999999994  0.22209  0.97393  1.0000
  O   O22       1.0  0.1842  0.21533  0.05291  1.0000
  O   O23       1.0  0.56321  0.86713  0.37566  1.0000
  O   O24       1.0  0.68172  0.03355  0.32814999999999994  1.0000
  O   O25       1.0  0.37261  0.33724000000000004  0.14837  1.0000
  O   O26       1.0  0.57094  0.27482000000000006  0.10552  1.0000
  O   O27       1.0  0.47586  0.43481  0.04322  1.0000
  O   O28       1.0  0.13410000000000008  0.8239000000000001  0.5503  1.0000
  O   O29       1.0  0.31762  0.0004700000000000001  0.53452  1.0000
  O   O30       1.0  0.17411000000000001  0.27934000000000003  0.47431  1.0000
  O   O31       1.0  0.31638  0.28614  0.55304  1.0000
  O   O32       1.0  0.9368300000000002  0.6348  0.87558  1.0000
  O   O33       1.0  0.81811  0.4666000000000001  0.82977  1.0000
  O   O34       1.0  0.1332  0.16589000000000004  0.6481899999999999  1.0000
  O   O35       1.0  0.9289900000000001  0.22254000000000004  0.60581  1.0000
  O   O36       1.0  0.02403  0.06321  0.54384  1.0000
