data_image0
_chemical_formula_structural       Y4Cu6H48C48O60
_chemical_formula_sum              "Y4 Cu6 H48 C48 O60"
_cell_length_a       14.4757
_cell_length_b       14.46859
_cell_length_c       15.2028
_cell_angle_alpha    90.0
_cell_angle_beta     90.0
_cell_angle_gamma    120.14546000000001

_symmetry_space_group_name_H-M    'P 1'
_symmetry_Int_Tables_number       1

loop_
  _symmetry_equiv_pos_as_xyz
  'x,y,z'

loop_
  _atom_site_type_symbol
  _atom_site_label
  _atom_site_symmetry_multiplicity
  _atom_site_fract_x
  _atom_site_fract_y
  _atom_site_fract_z
  _atom_site_occupancy
  Y   Y1        1.0  0.6665899999999998  0.33329999999999993  0.74772  1.0000
  Y   Y2        1.0  0.3334099999999999  0.6667  0.74772  1.0000
  Y   Y3        1.0  0.3334099999999999  0.6667  0.25228  1.0000
  Y   Y4        1.0  0.6665899999999998  0.33329999999999993  0.25228  1.0000
  Cu  Cu1       1.0  0.5  0.0  0.0  1.0000
  Cu  Cu2       1.0  0.0  0.5  0.0  1.0000
  Cu  Cu3       1.0  0.5  0.5  0.0  1.0000
  Cu  Cu4       1.0  0.0  0.5  0.5  1.0000
  Cu  Cu5       1.0  0.5  0.0  0.5  1.0000
  Cu  Cu6       1.0  0.5  0.5  0.5  1.0000
  H   H1        1.0  0.19303  0.35878  0.15014  1.0000
  H   H2        1.0  0.28048  0.35675  0.23287  1.0000
  H   H3        1.0  0.64101  0.83425  0.14989  1.0000
  H   H4        1.0  0.6437  0.9241  0.23264  1.0000
  H   H5        1.0  0.16630999999999999  0.80686  0.15005  1.0000
  H   H6        1.0  0.07622999999999996  0.71913  0.23257999999999995  1.0000
  H   H7        1.0  0.8069699999999999  0.6412199999999999  0.15014  1.0000
  H   H8        1.0  0.71952  0.64326  0.23287  1.0000
  H   H9        1.0  0.35899  0.16576  0.14989  1.0000
  H   H10       1.0  0.35629999999999995  0.07591  0.23264  1.0000
  H   H11       1.0  0.83369  0.19314000000000003  0.15005  1.0000
  H   H12       1.0  0.92377  0.28087  0.23257999999999995  1.0000
  H   H13       1.0  0.35629999999999995  0.19288  0.34932  1.0000
  H   H14       1.0  0.3568499999999999  0.28094  0.26598  1.0000
  H   H15       1.0  0.8367199999999998  0.64346  0.34967  1.0000
  H   H16       1.0  0.9244  0.6436200000000001  0.26625  1.0000
  H   H17       1.0  0.80676  0.16368  0.34959  1.0000
  H   H18       1.0  0.71889  0.07577  0.26622  1.0000
  H   H19       1.0  0.6437  0.80712  0.34932  1.0000
  H   H20       1.0  0.6431500000000001  0.7190600000000001  0.26598  1.0000
  H   H21       1.0  0.16328  0.35654  0.34967  1.0000
  H   H22       1.0  0.0756  0.35638  0.26625  1.0000
  H   H23       1.0  0.19324000000000005  0.83632  0.34959  1.0000
  H   H24       1.0  0.2811099999999999  0.92424  0.26622  1.0000
  H   H25       1.0  0.8069699999999999  0.6412199999999999  0.84986  1.0000
  H   H26       1.0  0.71952  0.64326  0.76713  1.0000
  H   H27       1.0  0.35899  0.16576  0.85011  1.0000
  H   H28       1.0  0.35629999999999995  0.07591  0.76736  1.0000
  H   H29       1.0  0.83369  0.19314000000000003  0.84995  1.0000
  H   H30       1.0  0.92377  0.28087  0.76742  1.0000
  H   H31       1.0  0.19303  0.35878  0.84986  1.0000
  H   H32       1.0  0.28048  0.35675  0.76713  1.0000
  H   H33       1.0  0.64101  0.83425  0.85011  1.0000
  H   H34       1.0  0.6437  0.9241  0.76736  1.0000
  H   H35       1.0  0.16630999999999999  0.80686  0.84995  1.0000
  H   H36       1.0  0.07622999999999996  0.71913  0.76742  1.0000
  H   H37       1.0  0.6437  0.80712  0.65068  1.0000
  H   H38       1.0  0.6431500000000001  0.7190600000000001  0.73402  1.0000
  H   H39       1.0  0.16328  0.35654  0.65033  1.0000
  H   H40       1.0  0.0756  0.35638  0.73375  1.0000
  H   H41       1.0  0.19324000000000005  0.83632  0.65041  1.0000
  H   H42       1.0  0.2811099999999999  0.92424  0.73378  1.0000
  H   H43       1.0  0.35629999999999995  0.19288  0.65068  1.0000
  H   H44       1.0  0.3568499999999999  0.28094  0.73402  1.0000
  H   H45       1.0  0.8367199999999998  0.64346  0.65033  1.0000
  H   H46       1.0  0.9244  0.6436200000000001  0.73375  1.0000
  H   H47       1.0  0.80676  0.16368  0.65041  1.0000
  H   H48       1.0  0.71889  0.07577  0.73378  1.0000
  C   C1        1.0  0.8736699999999998  0.51776  0.6376699999999997  1.0000
  C   C2        1.0  0.14669  0.40757  0.30628  1.0000
  C   C3        1.0  0.48237  0.3559300000000001  0.63771  1.0000
  C   C4        1.0  0.59236  0.73922  0.30609  1.0000
  C   C5        1.0  0.64398  0.1263  0.63765  1.0000
  C   C6        1.0  0.261  0.85312  0.30624  1.0000
  C   C7        1.0  0.12633999999999995  0.48224  0.6376699999999997  1.0000
  C   C8        1.0  0.85331  0.59244  0.30628  1.0000
  C   C9        1.0  0.51763  0.64408  0.63771  1.0000
  C   C10       1.0  0.40764  0.26079  0.30609  1.0000
  C   C11       1.0  0.35602  0.8737  0.63765  1.0000
  C   C12       1.0  0.739  0.14688  0.30624  1.0000
  C   C13       1.0  0.51612  0.87238  0.86111  1.0000
  C   C14       1.0  0.40847999999999995  0.14781  0.19381  1.0000
  C   C15       1.0  0.35631999999999997  0.48411  0.86107  1.0000
  C   C16       1.0  0.73937  0.59139  0.19398  1.0000
  C   C17       1.0  0.12785000000000002  0.6436200000000001  0.86113  1.0000
  C   C18       1.0  0.85181  0.2608  0.19386999999999993  1.0000
  C   C19       1.0  0.4838799999999999  0.12762  0.86111  1.0000
  C   C20       1.0  0.5915199999999998  0.85219  0.19381  1.0000
  C   C21       1.0  0.64368  0.5159  0.86107  1.0000
  C   C22       1.0  0.26063  0.40861  0.19398  1.0000
  C   C23       1.0  0.87215  0.35639  0.86113  1.0000
  C   C24       1.0  0.14819000000000004  0.7392  0.19386999999999993  1.0000
  C   C25       1.0  0.12633999999999995  0.48224  0.36233  1.0000
  C   C26       1.0  0.85331  0.59244  0.69372  1.0000
  C   C27       1.0  0.51763  0.64408  0.36229  1.0000
  C   C28       1.0  0.40764  0.26079  0.69391  1.0000
  C   C29       1.0  0.35602  0.8737  0.36234999999999995  1.0000
  C   C30       1.0  0.739  0.14688  0.69375  1.0000
  C   C31       1.0  0.8736699999999998  0.51776  0.36233  1.0000
  C   C32       1.0  0.14669  0.40757  0.69372  1.0000
  C   C33       1.0  0.48237  0.3559300000000001  0.36229  1.0000
  C   C34       1.0  0.59236  0.73922  0.69391  1.0000
  C   C35       1.0  0.64398  0.1263  0.36234999999999995  1.0000
  C   C36       1.0  0.261  0.85312  0.69375  1.0000
  C   C37       1.0  0.4838799999999999  0.12762  0.13889  1.0000
  C   C38       1.0  0.5915199999999998  0.85219  0.8061899999999997  1.0000
  C   C39       1.0  0.64368  0.5159  0.13893  1.0000
  C   C40       1.0  0.26063  0.40861  0.80602  1.0000
  C   C41       1.0  0.87215  0.35639  0.13887  1.0000
  C   C42       1.0  0.14819000000000004  0.7392  0.8061299999999998  1.0000
  C   C43       1.0  0.51612  0.87238  0.13889  1.0000
  C   C44       1.0  0.40847999999999995  0.14781  0.8061899999999997  1.0000
  C   C45       1.0  0.35631999999999997  0.48411  0.13893  1.0000
  C   C46       1.0  0.73937  0.59139  0.80602  1.0000
  C   C47       1.0  0.12785000000000002  0.6436200000000001  0.13887  1.0000
  C   C48       1.0  0.85181  0.2608  0.8061299999999998  1.0000
  O   O1        1.0  0.8107200000000001  0.41827  0.64327  1.0000
  O   O2        1.0  0.95611  0.56767  0.5890999999999997  1.0000
  O   O3        1.0  0.5818299999999997  0.39266  0.64322  1.0000
  O   O4        1.0  0.43252999999999997  0.38828000000000007  0.58914  1.0000
  O   O5        1.0  0.60744  0.18911  0.64324  1.0000
  O   O6        1.0  0.61149  0.04398  0.58908  1.0000
  O   O7        1.0  0.18928  0.58173  0.64327  1.0000
  O   O8        1.0  0.04389  0.43233  0.5890999999999997  1.0000
  O   O9        1.0  0.4181699999999998  0.60734  0.64322  1.0000
  O   O10       1.0  0.56747  0.61173  0.58914  1.0000
  O   O11       1.0  0.39255999999999996  0.8108899999999999  0.64324  1.0000
  O   O12       1.0  0.38852  0.95602  0.58908  1.0000
  O   O13       1.0  0.41683  0.8105400000000001  0.85297  1.0000
  O   O14       1.0  0.5654700000000001  0.9537300000000001  0.91096  1.0000
  O   O15       1.0  0.39392999999999995  0.58341  0.8529799999999998  1.0000
  O   O16       1.0  0.38808  0.43474  0.91094  1.0000
  O   O17       1.0  0.18947000000000006  0.60608  0.8529799999999998  1.0000
  O   O18       1.0  0.04669000000000003  0.61185  0.911  1.0000
  O   O19       1.0  0.58317  0.18946  0.85297  1.0000
  O   O20       1.0  0.43454  0.04627  0.91096  1.0000
  O   O21       1.0  0.60608  0.41659  0.8529799999999998  1.0000
  O   O22       1.0  0.61192  0.56526  0.91094  1.0000
  O   O23       1.0  0.81054  0.39393  0.8529799999999998  1.0000
  O   O24       1.0  0.95331  0.38816  0.911  1.0000
  O   O25       1.0  0.18928  0.58173  0.35673  1.0000
  O   O26       1.0  0.04389  0.43233  0.4109  1.0000
  O   O27       1.0  0.4181699999999998  0.60734  0.35678  1.0000
  O   O28       1.0  0.56747  0.61173  0.41086  1.0000
  O   O29       1.0  0.39255999999999996  0.8108899999999999  0.35676  1.0000
  O   O30       1.0  0.38852  0.95602  0.4109199999999999  1.0000
  O   O31       1.0  0.8107200000000001  0.41827  0.35673  1.0000
  O   O32       1.0  0.95611  0.56767  0.4109  1.0000
  O   O33       1.0  0.5818299999999997  0.39266  0.35678  1.0000
  O   O34       1.0  0.43252999999999997  0.38828000000000007  0.41086  1.0000
  O   O35       1.0  0.60744  0.18911  0.35676  1.0000
  O   O36       1.0  0.61149  0.04398  0.4109199999999999  1.0000
  O   O37       1.0  0.58317  0.18946  0.14703  1.0000
  O   O38       1.0  0.43454  0.04627  0.08904  1.0000
  O   O39       1.0  0.60608  0.41659  0.14702  1.0000
  O   O40       1.0  0.61192  0.56526  0.08906  1.0000
  O   O41       1.0  0.81054  0.39393  0.14702  1.0000
  O   O42       1.0  0.95331  0.38816  0.08899999999999997  1.0000
  O   O43       1.0  0.41683  0.8105400000000001  0.14703  1.0000
  O   O44       1.0  0.5654700000000001  0.9537300000000001  0.08904  1.0000
  O   O45       1.0  0.39392999999999995  0.58341  0.14702  1.0000
  O   O46       1.0  0.38808  0.43474  0.08906  1.0000
  O   O47       1.0  0.18947000000000006  0.60608  0.14702  1.0000
  O   O48       1.0  0.04669000000000003  0.61185  0.08899999999999997  1.0000
  O   O49       1.0  0.23526999999999992  0.4708899999999999  0.25056  1.0000
  O   O50       1.0  0.52916  0.76451  0.25054  1.0000
  O   O51       1.0  0.23570000000000005  0.7646  0.2506  1.0000
  O   O52       1.0  0.76473  0.52911  0.25056  1.0000
  O   O53       1.0  0.47083999999999976  0.23549  0.25054  1.0000
  O   O54       1.0  0.7642999999999999  0.2354  0.2506  1.0000
  O   O55       1.0  0.76473  0.52911  0.74944  1.0000
  O   O56       1.0  0.47083999999999976  0.23549  0.74946  1.0000
  O   O57       1.0  0.7642999999999999  0.2354  0.7494  1.0000
  O   O58       1.0  0.23526999999999992  0.4708899999999999  0.74944  1.0000
  O   O59       1.0  0.52916  0.76451  0.74946  1.0000
  O   O60       1.0  0.23570000000000005  0.7646  0.7494  1.0000
