data_image0
_chemical_formula_structural       Zn4H84C80N16O20
_chemical_formula_sum              "Zn4 H84 C80 N16 O20"
_cell_length_a       8.12308
_cell_length_b       17.49788
_cell_length_c       17.42206
_cell_angle_alpha    90.0
_cell_angle_beta     90.0
_cell_angle_gamma    97.76930999999999

_space_group_name_H-M_alt    "P 1"
_space_group_IT_number       1

loop_
  _space_group_symop_operation_xyz
  'x, y, z'

loop_
  _atom_site_type_symbol
  _atom_site_label
  _atom_site_symmetry_multiplicity
  _atom_site_fract_x
  _atom_site_fract_y
  _atom_site_fract_z
  _atom_site_occupancy
  Zn  Zn1       1.0  0.3960199999999999  0.26669  0.19126  1.0000
  Zn  Zn2       1.0  0.10398  0.23331  0.6912599999999998  1.0000
  Zn  Zn3       1.0  0.60398  0.73331  0.80874  1.0000
  Zn  Zn4       1.0  0.89603  0.76669  0.30874  1.0000
  H   H1        1.0  0.66417  0.48935999999999996  0.22032  1.0000
  H   H2        1.0  0.14386  0.61332  0.16594  1.0000
  H   H3        1.0  0.9998300000000001  0.38309  0.07788  1.0000
  H   H4        1.0  0.03620000000000003  0.45451  0.3299499999999999  1.0000
  H   H5        1.0  0.34409  0.43169  0.26896  1.0000
  H   H6        1.0  0.016689999999999997  0.22378  0.25262  1.0000
  H   H7        1.0  0.75174  0.37219  0.3257  1.0000
  H   H8        1.0  0.73297  0.27988  0.28347  1.0000
  H   H9        1.0  0.87336  0.31699  0.44528  1.0000
  H   H10       1.0  0.85823  0.22664  0.39951  1.0000
  H   H11       1.0  0.54749  0.21773  0.39641  1.0000
  H   H12       1.0  0.63397  0.22405  0.49046  1.0000
  H   H13       1.0  0.9888400000000002  0.22095  0.51601  1.0000
  H   H14       1.0  0.44492  0.31679  0.61286  1.0000
  H   H15       1.0  0.50519  0.35677  0.40307  1.0000
  H   H16       1.0  0.60773  0.36583  0.49333  1.0000
  H   H17       1.0  0.2172  0.26509  0.39692  1.0000
  H   H18       1.0  0.22009000000000006  0.43632  0.98853  1.0000
  H   H19       1.0  0.26934  0.39358  0.07738999999999999  1.0000
  H   H20       1.0  0.54564  0.47180999999999995  0.07984  1.0000
  H   H21       1.0  0.51937  0.414  0.9969099999999999  1.0000
  H   H22       1.0  0.83583  0.01064  0.72032  1.0000
  H   H23       1.0  0.35614  0.88668  0.66594  1.0000
  H   H24       1.0  0.50017  0.11690999999999999  0.57788  1.0000
  H   H25       1.0  0.46381  0.04548  0.82995  1.0000
  H   H26       1.0  0.15591  0.06831  0.76896  1.0000
  H   H27       1.0  0.48331  0.27622  0.75262  1.0000
  H   H28       1.0  0.74826  0.12781  0.8256999999999998  1.0000
  H   H29       1.0  0.7670300000000001  0.22012  0.78348  1.0000
  H   H30       1.0  0.62665  0.18301  0.94528  1.0000
  H   H31       1.0  0.64177  0.27336  0.89952  1.0000
  H   H32       1.0  0.95251  0.28227  0.8964099999999998  1.0000
  H   H33       1.0  0.8660300000000002  0.27595  0.9904599999999999  1.0000
  H   H34       1.0  0.51116  0.27905  0.01601  1.0000
  H   H35       1.0  0.05508  0.18321  0.11285999999999997  1.0000
  H   H36       1.0  0.9948100000000001  0.14323  0.9030699999999998  1.0000
  H   H37       1.0  0.89227  0.13417  0.99333  1.0000
  H   H38       1.0  0.28281000000000006  0.23491  0.89692  1.0000
  H   H39       1.0  0.27991  0.06368  0.48852999999999996  1.0000
  H   H40       1.0  0.23066  0.10642  0.57739  1.0000
  H   H41       1.0  0.9543600000000002  0.02819  0.5798499999999998  1.0000
  H   H42       1.0  0.98063  0.086  0.49691  1.0000
  H   H43       1.0  0.33584  0.51064  0.77968  1.0000
  H   H44       1.0  0.85614  0.38668  0.8340599999999999  1.0000
  H   H45       1.0  0.00017999999999999643  0.61691  0.92212  1.0000
  H   H46       1.0  0.96381  0.54548  0.67005  1.0000
  H   H47       1.0  0.65592  0.56831  0.73104  1.0000
  H   H48       1.0  0.98331  0.77622  0.7473799999999999  1.0000
  H   H49       1.0  0.24827000000000002  0.62781  0.67431  1.0000
  H   H50       1.0  0.2670300000000001  0.72012  0.71653  1.0000
  H   H51       1.0  0.12665  0.68301  0.55472  1.0000
  H   H52       1.0  0.14177  0.77336  0.60049  1.0000
  H   H53       1.0  0.45251  0.78227  0.60359  1.0000
  H   H54       1.0  0.36603  0.77595  0.5095399999999999  1.0000
  H   H55       1.0  0.011170000000000024  0.77905  0.48399  1.0000
  H   H56       1.0  0.55508  0.68321  0.38715  1.0000
  H   H57       1.0  0.49481  0.64323  0.5969399999999999  1.0000
  H   H58       1.0  0.39227  0.63417  0.50667  1.0000
  H   H59       1.0  0.78281  0.73491  0.60308  1.0000
  H   H60       1.0  0.77992  0.56368  0.011469999999999996  1.0000
  H   H61       1.0  0.73066  0.60642  0.92261  1.0000
  H   H62       1.0  0.45437  0.52819  0.92016  1.0000
  H   H63       1.0  0.48063999999999996  0.586  0.0031  1.0000
  H   H64       1.0  0.16417000000000007  0.98936  0.27968  1.0000
  H   H65       1.0  0.64386  0.11332  0.33406  1.0000
  H   H66       1.0  0.49983  0.88309  0.42212  1.0000
  H   H67       1.0  0.5362  0.95451  0.17005  1.0000
  H   H68       1.0  0.84409  0.93169  0.23104  1.0000
  H   H69       1.0  0.51669  0.72378  0.24737999999999996  1.0000
  H   H70       1.0  0.25174  0.87219  0.1743  1.0000
  H   H71       1.0  0.23298  0.77988  0.21653  1.0000
  H   H72       1.0  0.37336  0.81699  0.05472  1.0000
  H   H73       1.0  0.35824  0.72664  0.10049  1.0000
  H   H74       1.0  0.047489999999999984  0.71773  0.10359  1.0000
  H   H75       1.0  0.13396999999999998  0.72405  0.00954  1.0000
  H   H76       1.0  0.48884  0.72095  0.9839899999999999  1.0000
  H   H77       1.0  0.94493  0.81679  0.8871499999999999  1.0000
  H   H78       1.0  0.005190000000000006  0.85677  0.09693  1.0000
  H   H79       1.0  0.10773000000000002  0.86583  0.00667  1.0000
  H   H80       1.0  0.7172  0.76509  0.10307999999999998  1.0000
  H   H81       1.0  0.72009  0.9363199999999999  0.51147  1.0000
  H   H82       1.0  0.7693499999999999  0.89358  0.42261  1.0000
  H   H83       1.0  0.04564000000000005  0.9718  0.4201599999999999  1.0000
  H   H84       1.0  0.019370000000000026  0.914  0.5031  1.0000
  C   C1        1.0  0.8542299999999999  0.62738  0.24066999999999997  1.0000
  C   C2        1.0  0.8980800000000001  0.55908  0.19689  1.0000
  C   C3        1.0  0.78364  0.49171000000000004  0.19195  1.0000
  C   C4        1.0  0.82327  0.4286  0.15002999999999994  1.0000
  C   C5        1.0  0.09020000000000002  0.49994  0.11653999999999999  1.0000
  C   C6        1.0  0.05208000000000003  0.56239  0.1605  1.0000
  C   C7        1.0  0.97541  0.43286  0.11102  1.0000
  C   C8        1.0  0.70434  0.35489  0.14662  1.0000
  C   C9        1.0  0.08005  0.4038  0.3063  1.0000
  C   C10       1.0  0.23085  0.39196  0.27603  1.0000
  C   C11       1.0  0.06437  0.28339  0.26463  1.0000
  C   C12       1.0  0.80372  0.31755  0.3256499999999999  1.0000
  C   C13       1.0  0.79782  0.27904  0.40459  1.0000
  C   C14       1.0  0.6228200000000002  0.25604  0.43676  1.0000
  C   C15       1.0  0.11777999999999998  0.24649  0.51713  1.0000
  C   C16       1.0  0.35119  0.296  0.57098  1.0000
  C   C17       1.0  0.53266  0.32526  0.45498  1.0000
  C   C18       1.0  0.22769000000000003  0.26869  0.45878999999999986  1.0000
  C   C19       1.0  0.29393  0.44555  0.04154  1.0000
  C   C20       1.0  0.47839  0.46431  0.02519  1.0000
  C   C21       1.0  0.64578  0.87261  0.74067  1.0000
  C   C22       1.0  0.60193  0.94092  0.69689  1.0000
  C   C23       1.0  0.71637  0.00829  0.6919499999999998  1.0000
  C   C24       1.0  0.67673  0.0714  0.6500299999999999  1.0000
  C   C25       1.0  0.4098  6e-05  0.61654  1.0000
  C   C26       1.0  0.44793  0.93761  0.6605  1.0000
  C   C27       1.0  0.52459  0.06714  0.61102  1.0000
  C   C28       1.0  0.79566  0.1451  0.64662  1.0000
  C   C29       1.0  0.41996  0.0962  0.8063  1.0000
  C   C30       1.0  0.26915  0.10804  0.7760299999999998  1.0000
  C   C31       1.0  0.43562999999999996  0.21661  0.76463  1.0000
  C   C32       1.0  0.69629  0.18245  0.82565  1.0000
  C   C33       1.0  0.70219  0.22096  0.90459  1.0000
  C   C34       1.0  0.87718  0.24396000000000004  0.93676  1.0000
  C   C35       1.0  0.38223  0.25351  0.01713  1.0000
  C   C36       1.0  0.14881  0.204  0.07098  1.0000
  C   C37       1.0  0.96734  0.17474  0.9549899999999999  1.0000
  C   C38       1.0  0.27231  0.23130999999999996  0.95879  1.0000
  C   C39       1.0  0.20607  0.05445  0.54155  1.0000
  C   C40       1.0  0.02161  0.03569  0.52519  1.0000
  C   C41       1.0  0.14578  0.37262  0.75933  1.0000
  C   C42       1.0  0.10192  0.44092  0.80311  1.0000
  C   C43       1.0  0.21637  0.50829  0.80806  1.0000
  C   C44       1.0  0.17673  0.5714  0.84997  1.0000
  C   C45       1.0  0.9098099999999999  0.50006  0.8834599999999998  1.0000
  C   C46       1.0  0.94793  0.43761  0.8394999999999999  1.0000
  C   C47       1.0  0.024590000000000004  0.56714  0.8889799999999998  1.0000
  C   C48       1.0  0.29566  0.6451  0.85338  1.0000
  C   C49       1.0  0.91996  0.5962  0.6936999999999998  1.0000
  C   C50       1.0  0.7691600000000001  0.60804  0.72397  1.0000
  C   C51       1.0  0.9356400000000004  0.71661  0.73537  1.0000
  C   C52       1.0  0.19629  0.68245  0.6743599999999998  1.0000
  C   C53       1.0  0.20219000000000006  0.72096  0.59541  1.0000
  C   C54       1.0  0.37718000000000007  0.74396  0.5632399999999997  1.0000
  C   C55       1.0  0.88223  0.75351  0.48287  1.0000
  C   C56       1.0  0.64881  0.704  0.4290199999999999  1.0000
  C   C57       1.0  0.46735  0.67474  0.54502  1.0000
  C   C58       1.0  0.77231  0.73131  0.54121  1.0000
  C   C59       1.0  0.70608  0.55445  0.9584599999999999  1.0000
  C   C60       1.0  0.52162  0.53569  0.9748200000000001  1.0000
  C   C61       1.0  0.3542200000000001  0.12738  0.25933  1.0000
  C   C62       1.0  0.39808  0.05908000000000001  0.30311  1.0000
  C   C63       1.0  0.28364  0.99171  0.30805  1.0000
  C   C64       1.0  0.32328  0.9286000000000001  0.34997  1.0000
  C   C65       1.0  0.5902  0.9999399999999999  0.38346  1.0000
  C   C66       1.0  0.55208  0.062389999999999994  0.3395  1.0000
  C   C67       1.0  0.4754200000000001  0.9328600000000001  0.38898  1.0000
  C   C68       1.0  0.20435  0.85489  0.35338  1.0000
  C   C69       1.0  0.58005  0.9038  0.1937  1.0000
  C   C70       1.0  0.73085  0.89196  0.22396999999999997  1.0000
  C   C71       1.0  0.56437  0.78339  0.23536999999999997  1.0000
  C   C72       1.0  0.30372  0.81755  0.17435  1.0000
  C   C73       1.0  0.29782  0.77904  0.09541  1.0000
  C   C74       1.0  0.12283000000000002  0.75604  0.06324  1.0000
  C   C75       1.0  0.61778  0.74649  0.98288  1.0000
  C   C76       1.0  0.8512000000000002  0.796  0.92902  1.0000
  C   C77       1.0  0.03265999999999998  0.82526  0.04502  1.0000
  C   C78       1.0  0.7277  0.76869  0.04121  1.0000
  C   C79       1.0  0.7939300000000001  0.9455500000000001  0.4584599999999999  1.0000
  C   C80       1.0  0.97839  0.96431  0.47482  1.0000
  N   N1        1.0  0.21962  0.31645  0.2504  1.0000
  N   N2        1.0  0.97587  0.33478  0.29825  1.0000
  N   N3        1.0  0.19647  0.2637  0.58664  1.0000
  N   N4        1.0  0.37444  0.30048  0.49384  1.0000
  N   N5        1.0  0.28038  0.18355  0.7503999999999997  1.0000
  N   N6        1.0  0.52413  0.16522  0.79825  1.0000
  N   N7        1.0  0.30353  0.23629999999999998  0.08664  1.0000
  N   N8        1.0  0.12557  0.19952  0.9938499999999999  1.0000
  N   N9        1.0  0.7803900000000003  0.68355  0.7496  1.0000
  N   N10       1.0  0.024140000000000012  0.66522  0.70176  1.0000
  N   N11       1.0  0.80353  0.7363  0.41336  1.0000
  N   N12       1.0  0.62557  0.69952  0.50616  1.0000
  N   N13       1.0  0.71962  0.81645  0.24959999999999996  1.0000
  N   N14       1.0  0.47587  0.83478  0.20176  1.0000
  N   N15       1.0  0.69648  0.7637  0.9133599999999997  1.0000
  N   N16       1.0  0.87444  0.80048  0.00616  1.0000
  O   O1        1.0  0.56732  0.35676  0.18544  1.0000
  O   O2        1.0  0.7402399999999999  0.29815  0.10960999999999997  1.0000
  O   O3        1.0  0.24345  0.51044  0.08295  1.0000
  O   O4        1.0  0.71188  0.62732  0.26857  1.0000
  O   O5        1.0  0.97382  0.68524  0.24611999999999998  1.0000
  O   O6        1.0  0.93269  0.14324  0.68544  1.0000
  O   O7        1.0  0.7597700000000002  0.20185  0.60961  1.0000
  O   O8        1.0  0.25655  0.98956  0.58295  1.0000
  O   O9        1.0  0.7881300000000001  0.87267  0.76857  1.0000
  O   O10       1.0  0.52619  0.81476  0.74612  1.0000
  O   O11       1.0  0.43269  0.64324  0.81456  1.0000
  O   O12       1.0  0.25977  0.70185  0.89039  1.0000
  O   O13       1.0  0.75655  0.48955999999999994  0.9170499999999998  1.0000
  O   O14       1.0  0.28813  0.37268  0.73144  1.0000
  O   O15       1.0  0.026190000000000012  0.31476  0.75388  1.0000
  O   O16       1.0  0.06731999999999995  0.85676  0.3145599999999999  1.0000
  O   O17       1.0  0.24024  0.79815  0.3903899999999999  1.0000
  O   O18       1.0  0.7434500000000003  0.01044  0.41705  1.0000
  O   O19       1.0  0.21187  0.12732  0.23142999999999997  1.0000
  O   O20       1.0  0.47381  0.18524  0.25388  1.0000
