data_image0
_chemical_formula_structural       Zn4H88C64N40O8
_chemical_formula_sum              "Zn4 H88 C64 N40 O8"
_cell_length_a       18.18492
_cell_length_b       18.112310000000004
_cell_length_c       19.12917
_cell_angle_alpha    111.54109000000001
_cell_angle_beta     112.7402
_cell_angle_gamma    101.78868

_symmetry_space_group_name_H-M    'P 1'
_symmetry_Int_Tables_number       1

loop_
  _symmetry_equiv_pos_as_xyz
  'x,y,z'

loop_
  _atom_site_type_symbol
  _atom_site_label
  _atom_site_symmetry_multiplicity
  _atom_site_fract_x
  _atom_site_fract_y
  _atom_site_fract_z
  _atom_site_occupancy
  Zn  Zn1       1.0  0.03052000000000005  0.18955000000000008  0.4764500000000001  1.0000
  Zn  Zn2       1.0  0.7884900000000001  0.4476300000000002  0.9760100000000003  1.0000
  Zn  Zn3       1.0  0.21151000000000003  0.55237  0.023990000000000008  1.0000
  Zn  Zn4       1.0  0.96948  0.81045  0.52355  1.0000
  H   H1        1.0  0.9205600000000002  0.34943000000000013  0.7844500000000002  1.0000
  H   H2        1.0  0.625  0.20143  0.12479000000000003  1.0000
  H   H3        1.0  0.41141000000000016  0.39805  0.5512700000000003  1.0000
  H   H4        1.0  0.5160200000000003  0.47990000000000016  0.6329400000000002  1.0000
  H   H5        1.0  0.42291999999999996  0.5008  0.62435  1.0000
  H   H6        1.0  0.9845400000000001  0.71614  0.06741  1.0000
  H   H7        1.0  0.002790000000000015  0.33327  0.56932  1.0000
  H   H8        1.0  0.7285600000000002  0.11838000000000003  0.24207000000000006  1.0000
  H   H9        1.0  0.8746000000000003  0.69222  0.16896  1.0000
  H   H10       1.0  0.74954  0.5283700000000003  0.8608800000000002  1.0000
  H   H11       1.0  0.7139400000000001  0.14401000000000014  0.7488400000000002  1.0000
  H   H12       1.0  0.73719  0.56798  0.06862000000000003  1.0000
  H   H13       1.0  0.6540800000000002  0.13916000000000003  0.051630000000000016  1.0000
  H   H14       1.0  0.29822000000000015  0.3860800000000001  0.5616400000000003  1.0000
  H   H15       1.0  0.9455700000000001  0.5096000000000002  0.13966  1.0000
  H   H16       1.0  0.73978  0.06146000000000008  0.6716700000000002  1.0000
  H   H17       1.0  0.9370500000000002  0.33334  0.2919200000000001  1.0000
  H   H18       1.0  0.13127000000000005  0.19524000000000008  0.64052  1.0000
  H   H19       1.0  0.6222600000000003  0.5136100000000002  0.7398500000000002  1.0000
  H   H20       1.0  0.8356900000000004  0.11385000000000009  0.36398000000000014  1.0000
  H   H21       1.0  0.9356000000000001  0.8656300000000002  0.28391  1.0000
  H   H22       1.0  0.6766500000000001  0.26252  0.06016000000000001  1.0000
  H   H23       1.0  0.8531600000000001  0.08372000000000006  0.56761  1.0000
  H   H24       1.0  0.6551400000000002  0.11721  0.1344  1.0000
  H   H25       1.0  0.71077  0.25399000000000005  0.8677800000000001  1.0000
  H   H26       1.0  0.59684  0.3769500000000001  0.9131500000000002  1.0000
  H   H27       1.0  0.79471  0.54132  0.14053  1.0000
  H   H28       1.0  0.11101000000000005  0.9336800000000001  0.17169000000000006  1.0000
  H   H29       1.0  0.10786  0.03667  0.25066  1.0000
  H   H30       1.0  0.8116700000000002  0.0405900000000001  0.6346100000000002  1.0000
  H   H31       1.0  0.15790000000000004  0.14025  0.56933  1.0000
  H   H32       1.0  0.28189000000000014  0.2775400000000001  0.6691900000000002  1.0000
  H   H33       1.0  0.46072000000000013  0.35649000000000014  0.7940700000000003  1.0000
  H   H34       1.0  0.01734  0.85287  0.07115000000000002  1.0000
  H   H35       1.0  0.09507000000000003  0.82456  0.13541000000000006  1.0000
  H   H36       1.0  0.9786800000000001  0.29591  0.66979  1.0000
  H   H37       1.0  0.03706000000000003  0.31843  0.41227000000000014  1.0000
  H   H38       1.0  0.9090800000000001  0.45186  0.90434  1.0000
  H   H39       1.0  0.10090000000000009  0.3473500000000001  0.6414800000000003  1.0000
  H   H40       1.0  0.89192  0.3872400000000001  0.16830000000000006  1.0000
  H   H41       1.0  0.7196900000000002  0.05511000000000011  0.5710800000000003  1.0000
  H   H42       1.0  0.95341  0.9971400000000001  0.4039200000000001  1.0000
  H   H43       1.0  0.9286900000000001  0.4115400000000001  0.06780000000000003  1.0000
  H   H44       1.0  0.11749  0.15907000000000002  0.36986  1.0000
  H   H45       1.0  0.8687300000000003  0.80477  0.35948000000000013  1.0000
  H   H46       1.0  0.046590000000000104  0.0028700000000000925  0.5960800000000003  1.0000
  H   H47       1.0  0.9826600000000003  0.14713000000000007  0.9288500000000002  1.0000
  H   H48       1.0  0.015450000000000142  0.2838700000000002  0.9325900000000003  1.0000
  H   H49       1.0  0.2714400000000001  0.8816300000000001  0.7579300000000002  1.0000
  H   H50       1.0  0.16431000000000012  0.8861600000000002  0.6360200000000003  1.0000
  H   H51       1.0  0.3459200000000002  0.8608400000000003  0.9483700000000003  1.0000
  H   H52       1.0  0.88899  0.06633000000000007  0.8283100000000002  1.0000
  H   H53       1.0  0.20529000000000006  0.45869  0.8594700000000002  1.0000
  H   H54       1.0  0.06295000000000014  0.6666700000000001  0.7080800000000003  1.0000
  H   H55       1.0  0.8921400000000002  0.9633400000000001  0.74934  1.0000
  H   H56       1.0  0.9629400000000001  0.68158  0.58773  1.0000
  H   H57       1.0  0.9049300000000001  0.1754400000000001  0.8645900000000002  1.0000
  H   H58       1.0  0.48398000000000013  0.5201000000000001  0.3670700000000001  1.0000
  H   H59       1.0  0.40316  0.62305  0.08686000000000003  1.0000
  H   H60       1.0  0.28031  0.94489  0.42892000000000013  1.0000
  H   H61       1.0  0.07131000000000016  0.5884600000000001  0.9322000000000003  1.0000
  H   H62       1.0  0.05443000000000013  0.49041000000000007  0.8603400000000002  1.0000
  H   H63       1.0  0.375  0.79858  0.87522  1.0000
  H   H64       1.0  0.9972100000000002  0.66673  0.4306900000000001  1.0000
  H   H65       1.0  0.8825100000000001  0.84094  0.63014  1.0000
  H   H66       1.0  0.14684000000000005  0.91628  0.4323900000000001  1.0000
  H   H67       1.0  0.02132000000000005  0.7041000000000001  0.3302100000000001  1.0000
  H   H68       1.0  0.1254  0.30778  0.83104  1.0000
  H   H69       1.0  0.07943999999999998  0.65057  0.21555000000000005  1.0000
  H   H70       1.0  0.25046  0.47164  0.13913  1.0000
  H   H71       1.0  0.58858  0.6019500000000001  0.44873000000000013  1.0000
  H   H72       1.0  0.8991  0.65266  0.3585300000000001  1.0000
  H   H73       1.0  0.1080800000000002  0.6127700000000001  0.8317100000000002  1.0000
  H   H74       1.0  0.70178  0.61393  0.4383700000000001  1.0000
  H   H75       1.0  0.71811  0.72246  0.3308100000000001  1.0000
  H   H76       1.0  0.28606000000000004  0.8560000000000001  0.25116  1.0000
  H   H77       1.0  0.18833000000000005  0.95942  0.3653900000000001  1.0000
  H   H78       1.0  0.57708  0.49921  0.37565  1.0000
  H   H79       1.0  0.28923  0.74602  0.13223  1.0000
  H   H80       1.0  0.26022  0.9385400000000002  0.32833  1.0000
  H   H81       1.0  0.2628100000000001  0.4320200000000002  0.9313900000000003  1.0000
  H   H82       1.0  0.8421000000000003  0.8597600000000001  0.4306700000000001  1.0000
  H   H83       1.0  0.5392800000000001  0.6435100000000001  0.20593  1.0000
  H   H84       1.0  0.06440000000000001  0.13438  0.7161  1.0000
  H   H85       1.0  0.09092000000000006  0.5481400000000001  0.09566000000000002  1.0000
  H   H86       1.0  0.32335  0.73749  0.93985  1.0000
  H   H87       1.0  0.37773  0.48639  0.2601600000000001  1.0000
  H   H88       1.0  0.3448600000000001  0.8828000000000003  0.8656000000000003  1.0000
  C   C1        1.0  0.44979000000000013  0.4509200000000001  0.6196500000000001  1.0000
  C   C2        1.0  0.020400000000000116  0.9361800000000001  0.2538400000000001  1.0000
  C   C3        1.0  0.07863000000000005  0.09290000000000005  0.34927000000000014  1.0000
  C   C4        1.0  0.7717900000000001  0.35793000000000014  0.07479000000000002  1.0000
  C   C5        1.0  0.9456  0.17651  0.57633  1.0000
  C   C6        1.0  0.8734400000000003  0.3257400000000001  0.8011000000000003  1.0000
  C   C7        1.0  0.44778000000000007  0.41701000000000005  0.6803  1.0000
  C   C8        1.0  0.81912  0.2345100000000002  0.7535500000000003  1.0000
  C   C9        1.0  0.7569500000000002  0.2720500000000001  0.8478600000000002  1.0000
  C   C10       1.0  0.79579  0.16443000000000005  0.2766200000000001  1.0000
  C   C11       1.0  0.9005200000000001  0.63205  0.07568  1.0000
  C   C12       1.0  0.9859700000000001  0.001910000000000068  0.36753000000000013  1.0000
  C   C13       1.0  0.21799  0.30454  0.57574  1.0000
  C   C14       1.0  0.8554799999999999  0.16114000000000006  0.34547  1.0000
  C   C15       1.0  0.8213900000000001  0.22650000000000003  0.252  1.0000
  C   C16       1.0  0.07252000000000006  0.023270000000000055  0.2821900000000001  1.0000
  C   C17       1.0  0.86748  0.3828700000000001  0.8674800000000001  1.0000
  C   C18       1.0  0.06079000000000001  0.86826  0.13833  1.0000
  C   C19       1.0  0.6843200000000004  0.4903600000000002  0.8434400000000002  1.0000
  C   C20       1.0  0.97643  0.9294599999999998  0.3009900000000001  1.0000
  C   C21       1.0  0.5257700000000002  0.4313000000000001  0.7517200000000003  1.0000
  C   C22       1.0  0.011650000000000016  0.8612  0.18509  1.0000
  C   C23       1.0  0.76413  0.23279000000000002  0.18032  1.0000
  C   C24       1.0  0.9679700000000001  0.27599000000000007  0.37280000000000013  1.0000
  C   C25       1.0  0.5986300000000002  0.40612000000000015  0.8729100000000002  1.0000
  C   C26       1.0  0.91222  0.28371  0.3056  1.0000
  C   C27       1.0  0.61178  0.48117  0.77509  1.0000
  C   C28       1.0  0.7714699999999999  0.07833000000000001  0.63806  1.0000
  C   C29       1.0  0.7595500000000001  0.2108600000000001  0.7809800000000002  1.0000
  C   C30       1.0  0.5232600000000002  0.39451000000000014  0.8062100000000002  1.0000
  C   C31       1.0  0.67003  0.16981  0.12016000000000003  1.0000
  C   C32       1.0  0.82559  0.1743600000000001  0.6850800000000002  1.0000
  C   C33       1.0  0.47674  0.6054900000000002  0.19379000000000005  1.0000
  C   C34       1.0  0.38821999999999995  0.51883  0.22491000000000003  1.0000
  C   C35       1.0  0.92137  0.9071100000000001  0.65073  1.0000
  C   C36       1.0  0.17441000000000004  0.8256499999999999  0.31492  1.0000
  C   C37       1.0  0.17861000000000016  0.7735000000000001  0.7480000000000002  1.0000
  C   C38       1.0  0.3299700000000001  0.8302000000000002  0.8798500000000002  1.0000
  C   C39       1.0  0.2282100000000001  0.6420800000000002  0.9252100000000002  1.0000
  C   C40       1.0  0.2042100000000002  0.8355800000000003  0.7233800000000002  1.0000
  C   C41       1.0  0.92748  0.97674  0.7178200000000002  1.0000
  C   C42       1.0  0.09947999999999997  0.36795  0.92432  1.0000
  C   C43       1.0  0.24045000000000008  0.7891400000000002  0.21903000000000006  1.0000
  C   C44       1.0  0.0235700000000001  0.07054000000000005  0.69901  1.0000
  C   C45       1.0  0.014030000000000088  0.99809  0.6324800000000003  1.0000
  C   C46       1.0  0.93921  0.13174000000000002  0.86168  1.0000
  C   C47       1.0  0.31567  0.50965  0.15656000000000006  1.0000
  C   C48       1.0  0.9883500000000001  0.13880000000000012  0.8149200000000002  1.0000
  C   C49       1.0  0.18088  0.7655  0.24646000000000007  1.0000
  C   C50       1.0  0.14452  0.8388600000000002  0.65453  1.0000
  C   C51       1.0  0.05439999999999997  0.82349  0.42367  1.0000
  C   C52       1.0  0.0877700000000001  0.7163000000000002  0.6944000000000002  1.0000
  C   C53       1.0  0.55222  0.583  0.3197  1.0000
  C   C54       1.0  0.47423000000000015  0.5687  0.24828000000000006  1.0000
  C   C55       1.0  0.9796000000000002  0.0638200000000001  0.7461700000000002  1.0000
  C   C56       1.0  0.13252  0.61714  0.13252000000000005  1.0000
  C   C57       1.0  0.03202000000000007  0.72401  0.6272000000000002  1.0000
  C   C58       1.0  0.24305000000000002  0.72795  0.15215000000000006  1.0000
  C   C59       1.0  0.12656  0.67427  0.19890000000000005  1.0000
  C   C60       1.0  0.40137000000000017  0.59388  0.1271  1.0000
  C   C61       1.0  0.22853  0.9216800000000002  0.36194  1.0000
  C   C62       1.0  0.78201  0.69546  0.42426000000000014  1.0000
  C   C63       1.0  0.55021  0.54908  0.3803600000000001  1.0000
  C   C64       1.0  0.23587000000000022  0.7672200000000003  0.8196900000000003  1.0000
  N   N1        1.0  0.37166000000000005  0.3707600000000001  0.66842  1.0000
  N   N2        1.0  0.9566600000000001  0.7842400000000002  0.16337000000000002  1.0000
  N   N3        1.0  0.74177  0.30118  0.09767  1.0000
  N   N4        1.0  0.86038  0.41144  0.13063  1.0000
  N   N5        1.0  0.79262  0.55802  0.09458  1.0000
  N   N6        1.0  0.0014000000000001381  0.2638100000000001  0.6318800000000002  1.0000
  N   N7        1.0  0.6806300000000001  0.45371000000000017  0.8940000000000001  1.0000
  N   N8        1.0  0.038460000000000126  0.3036100000000001  0.5954500000000003  1.0000
  N   N9        1.0  0.88596  0.14924000000000012  0.5968500000000002  1.0000
  N   N10       1.0  0.8104500000000002  0.3586600000000001  0.8934000000000002  1.0000
  N   N11       1.0  0.03687000000000004  0.08497000000000006  0.39412000000000014  1.0000
  N   N12       1.0  0.94229  0.21570000000000006  0.3952100000000001  1.0000
  N   N13       1.0  0.86879  0.63147  0.13110000000000005  1.0000
  N   N14       1.0  0.29732  0.3577300000000001  0.59875  1.0000
  N   N15       1.0  0.9002999999999997  0.44793  0.09393  1.0000
  N   N16       1.0  0.9482000000000002  0.71247  0.09640000000000003  1.0000
  N   N17       1.0  0.88127  0.20767000000000016  0.6639300000000002  1.0000
  N   N18       1.0  0.2202500000000001  0.2715700000000001  0.6315800000000003  1.0000
  N   N19       1.0  0.7981200000000002  0.29688  0.16782  1.0000
  N   N20       1.0  0.14736  0.19478000000000006  0.5949  1.0000
  N   N21       1.0  0.09970000000000012  0.5520700000000002  0.9060700000000003  1.0000
  N   N22       1.0  0.31937  0.54629  0.10600000000000002  1.0000
  N   N23       1.0  0.77975  0.72844  0.36842  1.0000
  N   N24       1.0  0.1312000000000002  0.3685400000000001  0.8689100000000002  1.0000
  N   N25       1.0  0.18955000000000005  0.6413500000000001  0.10660000000000003  1.0000
  N   N26       1.0  0.2582200000000001  0.6988200000000002  0.9023300000000002  1.0000
  N   N27       1.0  0.11404000000000004  0.8507700000000002  0.40316  1.0000
  N   N28       1.0  0.8526400000000001  0.8052300000000002  0.4051000000000001  1.0000
  N   N29       1.0  0.6283400000000001  0.6292400000000001  0.3315800000000001  1.0000
  N   N30       1.0  0.057700000000000175  0.7843000000000002  0.6047900000000003  1.0000
  N   N31       1.0  0.96313  0.91504  0.60588  1.0000
  N   N32       1.0  0.11873  0.79234  0.3360700000000001  1.0000
  N   N33       1.0  0.043340000000000135  0.21576000000000017  0.8366300000000002  1.0000
  N   N34       1.0  0.70268  0.64228  0.4012500000000001  1.0000
  N   N35       1.0  0.20738000000000018  0.4419800000000001  0.9054300000000002  1.0000
  N   N36       1.0  0.20187000000000016  0.70313  0.8321900000000002  1.0000
  N   N37       1.0  0.13962000000000013  0.5885600000000001  0.8693700000000002  1.0000
  N   N38       1.0  0.051800000000000054  0.2875400000000001  0.9036000000000001  1.0000
  N   N39       1.0  0.9986  0.7362000000000001  0.36812  1.0000
  N   N40       1.0  0.96154  0.6964  0.40455  1.0000
  O   O1        1.0  0.9512900000000001  0.12606000000000012  0.5138500000000003  1.0000
  O   O2        1.0  0.7226300000000002  0.3627900000000001  0.009940000000000003  1.0000
  O   O3        1.0  0.8884700000000001  0.56397  0.01293  1.0000
  O   O4        1.0  0.14857000000000012  0.2888900000000001  0.5107200000000002  1.0000
  O   O5        1.0  0.048710000000000114  0.8739500000000002  0.48615000000000014  1.0000
  O   O6        1.0  0.2773700000000001  0.6372100000000002  0.9900700000000002  1.0000
  O   O7        1.0  0.11153000000000016  0.4360400000000002  0.9870700000000002  1.0000
  O   O8        1.0  0.8514300000000001  0.7111100000000002  0.48929  1.0000
