data_image0
_chemical_formula_structural       Cd12H72C72O48
_chemical_formula_sum              "Cd12 H72 C72 O48"
_cell_length_a       12.1911
_cell_length_b       15.20279
_cell_length_c       16.74816
_cell_angle_alpha    89.99872
_cell_angle_beta     90.03420999999999
_cell_angle_gamma    91.37518

_symmetry_space_group_name_H-M    'P 1'
_symmetry_Int_Tables_number       1

loop_
  _symmetry_equiv_pos_as_xyz
  'x,y,z'

loop_
  _atom_site_type_symbol
  _atom_site_label
  _atom_site_symmetry_multiplicity
  _atom_site_fract_x
  _atom_site_fract_y
  _atom_site_fract_z
  _atom_site_occupancy
  Cd  Cd1       1.0  0.31288  0.28145  0.86893  1.0000
  Cd  Cd2       1.0  0.56789  0.20556  0.81441  1.0000
  Cd  Cd3       1.0  0.75845  0.9914899999999998  0.7066  1.0000
  Cd  Cd4       1.0  0.18673000000000006  0.21895  0.3681  1.0000
  Cd  Cd5       1.0  0.93196  0.29447  0.3142  1.0000
  Cd  Cd6       1.0  0.74132  0.50929  0.20703  1.0000
  Cd  Cd7       1.0  0.6871300000000002  0.71854  0.13107  1.0000
  Cd  Cd8       1.0  0.43212  0.79444  0.18559  1.0000
  Cd  Cd9       1.0  0.24155000000000001  0.00851  0.2934  1.0000
  Cd  Cd10      1.0  0.81328  0.78105  0.63189  1.0000
  Cd  Cd11      1.0  0.06805  0.70553  0.6858  1.0000
  Cd  Cd12      1.0  0.25868  0.49071  0.79297  1.0000
  H   H1        1.0  0.6650000000000001  0.38512  0.82118  1.0000
  H   H2        1.0  0.57775  0.42959  0.94663  1.0000
  H   H3        1.0  0.55488  0.53652  0.90838  1.0000
  H   H4        1.0  0.91487  0.13842  0.69827  1.0000
  H   H5        1.0  0.91251  0.33535  0.73683  1.0000
  H   H6        1.0  0.96455  0.25254  0.79942  1.0000
  H   H7        1.0  0.10902000000000003  0.21868  0.7045  1.0000
  H   H8        1.0  0.02318  0.3679199999999999  0.5999  1.0000
  H   H9        1.0  0.13484  0.30175999999999986  0.57734  1.0000
  H   H10       1.0  0.61742  0.5694899999999999  0.75729  1.0000
  H   H11       1.0  0.6772500000000002  0.48359999999999986  0.70347  1.0000
  H   H12       1.0  0.83977  0.48774  0.79502  1.0000
  H   H13       1.0  0.72246  0.63857  0.87838  1.0000
  H   H14       1.0  0.8563100000000002  0.6033  0.8998700000000002  1.0000
  H   H15       1.0  0.77798  0.45376  0.93776  1.0000
  H   H16       1.0  0.8132400000000001  0.17706  0.57433  1.0000
  H   H17       1.0  0.8216500000000001  0.2899599999999999  0.5999  1.0000
  H   H18       1.0  0.014890000000000004  0.17155  0.56082  1.0000
  H   H19       1.0  0.83473  0.11468999999999997  0.32174  1.0000
  H   H20       1.0  0.9226300000000001  0.07048  0.44703  1.0000
  H   H21       1.0  0.94597  0.96366  0.40866  1.0000
  H   H22       1.0  0.5842400000000001  0.3613999999999999  0.19851  1.0000
  H   H23       1.0  0.58769  0.16438999999999995  0.23695  1.0000
  H   H24       1.0  0.53456  0.24689  0.29935  1.0000
  H   H25       1.0  0.39013  0.27987  0.20436  1.0000
  H   H26       1.0  0.4768500000000001  0.13181  0.0988  1.0000
  H   H27       1.0  0.36493000000000003  0.19814  0.07674  1.0000
  H   H28       1.0  0.8835700000000001  0.93087  0.2575  1.0000
  H   H29       1.0  0.82325  0.016579999999999994  0.20373  1.0000
  H   H30       1.0  0.66096  0.01217  0.29518  1.0000
  H   H31       1.0  0.77789  0.8609599999999997  0.37878  1.0000
  H   H32       1.0  0.64415  0.89667  0.39985  1.0000
  H   H33       1.0  0.7225100000000002  0.0461  0.43745  1.0000
  H   H34       1.0  0.6864  0.3231299999999999  0.07480000000000002  1.0000
  H   H35       1.0  0.67794  0.21018999999999993  0.09999000000000002  1.0000
  H   H36       1.0  0.48456  0.3286  0.061090000000000005  1.0000
  H   H37       1.0  0.33501  0.61488  0.17882  1.0000
  H   H38       1.0  0.42225999999999997  0.5704  0.05337  1.0000
  H   H39       1.0  0.44512  0.4634699999999999  0.09161  1.0000
  H   H40       1.0  0.08513  0.86158  0.30173  1.0000
  H   H41       1.0  0.08750000000000001  0.66465  0.26317  1.0000
  H   H42       1.0  0.03546  0.7474599999999998  0.20058  1.0000
  H   H43       1.0  0.89099  0.78132  0.29550000000000004  1.0000
  H   H44       1.0  0.9768300000000002  0.63208  0.40010000000000007  1.0000
  H   H45       1.0  0.86517  0.6982399999999997  0.42266  1.0000
  H   H46       1.0  0.38258  0.43051  0.24270999999999998  1.0000
  H   H47       1.0  0.32276  0.5164  0.29653  1.0000
  H   H48       1.0  0.16024  0.51226  0.20498  1.0000
  H   H49       1.0  0.27755  0.36142  0.12160999999999998  1.0000
  H   H50       1.0  0.1437  0.3967  0.10013  1.0000
  H   H51       1.0  0.22203  0.54624  0.06224  1.0000
  H   H52       1.0  0.18677  0.8229399999999998  0.42566  1.0000
  H   H53       1.0  0.17836000000000005  0.7100399999999998  0.40010000000000007  1.0000
  H   H54       1.0  0.98512  0.8284499999999998  0.43917  1.0000
  H   H55       1.0  0.16528  0.88531  0.67826  1.0000
  H   H56       1.0  0.07738  0.92952  0.55297  1.0000
  H   H57       1.0  0.05404000000000001  0.03633  0.59134  1.0000
  H   H58       1.0  0.41577  0.63859  0.80149  1.0000
  H   H59       1.0  0.41232  0.8356099999999997  0.76305  1.0000
  H   H60       1.0  0.46544  0.75311  0.70065  1.0000
  H   H61       1.0  0.60988  0.72013  0.79564  1.0000
  H   H62       1.0  0.5231600000000001  0.86819  0.9012  1.0000
  H   H63       1.0  0.63508  0.8018599999999999  0.92325  1.0000
  H   H64       1.0  0.11644  0.06913  0.7425  1.0000
  H   H65       1.0  0.17676  0.98342  0.79627  1.0000
  H   H66       1.0  0.33905  0.98783  0.70481  1.0000
  H   H67       1.0  0.22212  0.13904  0.62122  1.0000
  H   H68       1.0  0.35586  0.10333  0.60015  1.0000
  H   H69       1.0  0.2775  0.9538899999999998  0.56255  1.0000
  H   H70       1.0  0.31361  0.67687  0.9252000000000001  1.0000
  H   H71       1.0  0.32206999999999997  0.78981  0.9000100000000002  1.0000
  H   H72       1.0  0.51545  0.6714  0.93891  1.0000
  C   C1        1.0  0.50003  0.42055  0.79566  1.0000
  C   C2        1.0  0.61673  0.4450099999999999  0.82021  1.0000
  C   C3        1.0  0.6108  0.48085  0.90652  1.0000
  C   C4        1.0  0.76646  0.20033  0.73307  1.0000
  C   C5        1.0  0.87844  0.20373  0.69352  1.0000
  C   C6        1.0  0.95304  0.27156999999999987  0.73679  1.0000
  C   C7        1.0  0.06542  0.28053  0.69503  1.0000
  C   C8        1.0  0.05398000000000002  0.30101  0.60592  1.0000
  C   C9        1.0  0.67029  0.5125  0.76327  1.0000
  C   C10       1.0  0.78348  0.54325  0.79342  1.0000
  C   C11       1.0  0.83732  0.61404  0.74064  1.0000
  C   C12       1.0  0.7751  0.5808799999999998  0.8787000000000003  1.0000
  C   C13       1.0  0.72555  0.5116  0.9354200000000003  1.0000
  C   C14       1.0  0.7165100000000001  0.5464899999999998  0.02059  1.0000
  C   C15       1.0  0.8644200000000002  0.22737  0.60429  1.0000
  C   C16       1.0  0.13319  0.35232  0.7361  1.0000
  C   C17       1.0  0.97605  0.2364  0.56238  1.0000
  C   C18       1.0  0.96494  0.2633499999999999  0.47506  1.0000
  C   C19       1.0  0.0  0.07939  0.29597  1.0000
  C   C20       1.0  0.88334  0.05504  0.32071  1.0000
  C   C21       1.0  0.88966  0.01907  0.407  1.0000
  C   C22       1.0  0.73272  0.30001  0.23375000000000007  1.0000
  C   C23       1.0  0.6210700000000001  0.29622  0.19389  1.0000
  C   C24       1.0  0.5467  0.22797999999999993  0.23676  1.0000
  C   C25       1.0  0.43439  0.21837  0.19486  1.0000
  C   C26       1.0  0.4457000000000001  0.19853  0.10562  1.0000
  C   C27       1.0  0.83023  0.9875399999999998  0.2635  1.0000
  C   C28       1.0  0.71715  0.95661  0.29352  1.0000
  C   C29       1.0  0.66282  0.88626  0.24045  1.0000
  C   C30       1.0  0.7255  0.91884  0.37888  1.0000
  C   C31       1.0  0.77488  0.9883  0.43565  1.0000
  C   C32       1.0  0.7821300000000001  0.95498  0.52146  1.0000
  C   C33       1.0  0.63522  0.27279  0.10472  1.0000
  C   C34       1.0  0.3674100000000001  0.14642  0.23613  1.0000
  C   C35       1.0  0.52363  0.2638  0.06276  1.0000
  C   C36       1.0  0.53586  0.23706999999999998  0.97562  1.0000
  C   C37       1.0  0.49997  0.57945  0.20434  1.0000
  C   C38       1.0  0.38327  0.55499  0.17979  1.0000
  C   C39       1.0  0.38921  0.51915  0.09348  1.0000
  C   C40       1.0  0.23355  0.79967  0.26692  1.0000
  C   C41       1.0  0.12157000000000003  0.79627  0.30648  1.0000
  C   C42       1.0  0.04697  0.72843  0.26321  1.0000
  C   C43       1.0  0.9345800000000001  0.71947  0.30496  1.0000
  C   C44       1.0  0.9460200000000002  0.69899  0.39408  1.0000
  C   C45       1.0  0.32971  0.4875  0.23672  1.0000
  C   C46       1.0  0.21653000000000006  0.45675  0.20658  1.0000
  C   C47       1.0  0.16268  0.38595  0.25936  1.0000
  C   C48       1.0  0.22491000000000003  0.41912  0.12130000000000002  1.0000
  C   C49       1.0  0.27446  0.4883999999999999  0.06458  1.0000
  C   C50       1.0  0.2835  0.45351  0.97941  1.0000
  C   C51       1.0  0.13559  0.77263  0.39571  1.0000
  C   C52       1.0  0.86681  0.64768  0.2639  1.0000
  C   C53       1.0  0.02395  0.76359  0.43762  1.0000
  C   C54       1.0  0.03507  0.73665  0.52494  1.0000
  C   C55       1.0  1.0000000000002467e-05  0.92061  0.70403  1.0000
  C   C56       1.0  0.11667  0.94496  0.67929  1.0000
  C   C57       1.0  0.11034999999999999  0.9809299999999997  0.593  1.0000
  C   C58       1.0  0.26729  0.69999  0.76625  1.0000
  C   C59       1.0  0.37894000000000005  0.70378  0.80611  1.0000
  C   C60       1.0  0.45331  0.7720199999999998  0.76323  1.0000
  C   C61       1.0  0.56562  0.78163  0.80514  1.0000
  C   C62       1.0  0.5543100000000001  0.80147  0.89437  1.0000
  C   C63       1.0  0.16978  0.01246  0.73649  1.0000
  C   C64       1.0  0.28286  0.04338999999999999  0.70648  1.0000
  C   C65       1.0  0.33719  0.11373  0.75955  1.0000
  C   C66       1.0  0.27451  0.08116  0.62112  1.0000
  C   C67       1.0  0.22513000000000002  0.0117  0.56435  1.0000
  C   C68       1.0  0.21788  0.04501  0.47854  1.0000
  C   C69       1.0  0.36478000000000005  0.7272099999999998  0.89528  1.0000
  C   C70       1.0  0.6326  0.85358  0.76387  1.0000
  C   C71       1.0  0.4763700000000001  0.73619  0.93724  1.0000
  C   C72       1.0  0.46415  0.7629299999999998  0.02438  1.0000
  O   O1        1.0  0.46647  0.33951  0.80184  1.0000
  O   O2        1.0  0.71989  0.2712499999999999  0.74992  1.0000
  O   O3        1.0  0.71722  0.12591  0.74992  1.0000
  O   O4        1.0  0.43897  0.4826  0.77402  1.0000
  O   O5        1.0  0.7730900000000003  0.66101  0.69901  1.0000
  O   O6        1.0  0.9413700000000002  0.6216499999999998  0.74604  1.0000
  O   O7        1.0  0.70041  0.62867  0.02806  1.0000
  O   O8        1.0  0.7229600000000003  0.48951  0.07603  1.0000
  O   O9        1.0  0.16146  0.34319  0.80993  1.0000
  O   O10       1.0  0.15788  0.42227999999999993  0.69792  1.0000
  O   O11       1.0  0.050429999999999996  0.2928  0.43708  1.0000
  O   O12       1.0  0.87205  0.2575  0.44081  1.0000
  O   O13       1.0  0.03362  0.1605  0.30162  1.0000
  O   O14       1.0  0.77873  0.22929999999999995  0.2521  1.0000
  O   O15       1.0  0.7827  0.3745  0.24955999999999998  1.0000
  O   O16       1.0  0.060770000000000005  0.0173  0.27431  1.0000
  O   O17       1.0  0.7267100000000002  0.83925  0.19868  1.0000
  O   O18       1.0  0.5587300000000001  0.8793  0.24589000000000003  1.0000
  O   O19       1.0  0.80037  0.8733499999999998  0.5309  1.0000
  O   O20       1.0  0.77134  0.012889999999999997  0.5757800000000001  1.0000
  O   O21       1.0  0.3385  0.15611  0.30973  1.0000
  O   O22       1.0  0.34374000000000005  0.0759  0.19842  1.0000
  O   O23       1.0  0.4502300000000001  0.20938  0.9366500000000002  1.0000
  O   O24       1.0  0.62938  0.24104  0.94245  1.0000
  O   O25       1.0  0.53353  0.66049  0.19816  1.0000
  O   O26       1.0  0.2801100000000001  0.72875  0.25007  1.0000
  O   O27       1.0  0.28279  0.8740899999999998  0.25007  1.0000
  O   O28       1.0  0.56104  0.5174  0.22598000000000004  1.0000
  O   O29       1.0  0.22692000000000004  0.33899  0.30099  1.0000
  O   O30       1.0  0.05864  0.37835  0.25396  1.0000
  O   O31       1.0  0.2995900000000001  0.37133  0.9719400000000001  1.0000
  O   O32       1.0  0.2770500000000001  0.51049  0.9239700000000002  1.0000
  O   O33       1.0  0.8385500000000002  0.65681  0.19007  1.0000
  O   O34       1.0  0.84212  0.57772  0.30208  1.0000
  O   O35       1.0  0.94958  0.7072  0.56292  1.0000
  O   O36       1.0  0.12796  0.7424999999999998  0.55919  1.0000
  O   O37       1.0  0.96639  0.8395  0.69838  1.0000
  O   O38       1.0  0.22127  0.7707  0.7479  1.0000
  O   O39       1.0  0.21730999999999998  0.6255  0.75044  1.0000
  O   O40       1.0  0.9392300000000001  0.98269  0.72569  1.0000
  O   O41       1.0  0.2733  0.16074999999999998  0.80132  1.0000
  O   O42       1.0  0.4412800000000001  0.1207  0.75411  1.0000
  O   O43       1.0  0.19964  0.12665  0.4691  1.0000
  O   O44       1.0  0.22867000000000004  0.98711  0.42422  1.0000
  O   O45       1.0  0.66151  0.84389  0.69027  1.0000
  O   O46       1.0  0.65627  0.9241  0.80158  1.0000
  O   O47       1.0  0.54978  0.7906199999999998  0.06334  1.0000
  O   O48       1.0  0.37063  0.75895  0.05755  1.0000
