data_image0
_chemical_formula_structural       Zn12H24C72O48
_chemical_formula_sum              "Zn12 H24 C72 O48"
_cell_length_a       12.62463
_cell_length_b       13.059100000000003
_cell_length_c       27.9191
_cell_angle_alpha    93.57685
_cell_angle_beta     90.05382
_cell_angle_gamma    90.02804

_space_group_name_H-M_alt    "P 1"
_space_group_IT_number       1

loop_
  _space_group_symop_operation_xyz
  'x, y, z'

loop_
  _atom_site_type_symbol
  _atom_site_label
  _atom_site_symmetry_multiplicity
  _atom_site_fract_x
  _atom_site_fract_y
  _atom_site_fract_z
  _atom_site_occupancy
  Zn  Zn1       1.0  0.9561899999999999  0.8895800000000001  0.8702299999999997  1.0000
  Zn  Zn2       1.0  0.8222399999999999  0.01202  0.80394  1.0000
  Zn  Zn3       1.0  0.43265  0.43854  0.97748  1.0000
  Zn  Zn4       1.0  0.45724  0.61017  0.62987  1.0000
  Zn  Zn5       1.0  0.32062999999999997  0.48789000000000005  0.6961599999999998  1.0000
  Zn  Zn6       1.0  0.9340799999999999  0.06203  0.52252  1.0000
  Zn  Zn7       1.0  0.04379999999999999  0.11041000000000001  0.12977  1.0000
  Zn  Zn8       1.0  0.17774  0.98797  0.19607  1.0000
  Zn  Zn9       1.0  0.56733  0.56145  0.02251999999999999  1.0000
  Zn  Zn10      1.0  0.54275  0.38982  0.37013  1.0000
  Zn  Zn11      1.0  0.67936  0.51211  0.30384  1.0000
  Zn  Zn12      1.0  0.06591  0.9379600000000001  0.47748  1.0000
  H   H1        1.0  0.69098  0.7107  0.90266  1.0000
  H   H2        1.0  0.4668  0.51054  0.8277399999999998  1.0000
  H   H3        1.0  0.63232  0.73904  0.75174  1.0000
  H   H4        1.0  0.04228  0.9204300000000001  0.03537  1.0000
  H   H5        1.0  0.31385  0.76038  0.08782  1.0000
  H   H6        1.0  0.20736999999999997  0.69991  0.9419899999999998  1.0000
  H   H7        1.0  0.19218999999999997  0.78926  0.59739  1.0000
  H   H8        1.0  0.96768  0.98956  0.67153  1.0000
  H   H9        1.0  0.13095  0.76025  0.7480199999999999  1.0000
  H   H10       1.0  0.54301  0.5792399999999999  0.46389999999999987  1.0000
  H   H11       1.0  0.81483  0.7402400000000001  0.41241  1.0000
  H   H12       1.0  0.7068099999999999  0.7997199999999999  0.55801  1.0000
  H   H13       1.0  0.30901  0.28929  0.09735  1.0000
  H   H14       1.0  0.53319  0.48945  0.17226  1.0000
  H   H15       1.0  0.36767  0.26095  0.24825999999999995  1.0000
  H   H16       1.0  0.9577099999999998  0.07956000000000002  0.96464  1.0000
  H   H17       1.0  0.68614  0.23962  0.91218  1.0000
  H   H18       1.0  0.79261  0.30009  0.058009999999999985  1.0000
  H   H19       1.0  0.8077999999999997  0.21073000000000003  0.4026199999999999  1.0000
  H   H20       1.0  0.03231  0.01043  0.32847  1.0000
  H   H21       1.0  0.86904  0.23974  0.2519799999999999  1.0000
  H   H22       1.0  0.45698  0.42076  0.5361  1.0000
  H   H23       1.0  0.18515  0.25975  0.58759  1.0000
  H   H24       1.0  0.29318  0.20028  0.44198999999999994  1.0000
  C   C1        1.0  0.66946  0.73368  0.82734  1.0000
  C   C2        1.0  0.6497199999999997  0.68527  0.86983  1.0000
  C   C3        1.0  0.57498  0.6063200000000002  0.87021  1.0000
  C   C4        1.0  0.52442  0.57228  0.8275599999999997  1.0000
  C   C5        1.0  0.54674  0.6184200000000001  0.78472  1.0000
  C   C6        1.0  0.61754  0.70112  0.7847099999999999  1.0000
  C   C7        1.0  0.7458099999999999  0.82087  0.8289799999999998  1.0000
  C   C8        1.0  0.54669  0.5602  0.91612  1.0000
  C   C9        1.0  0.49091  0.58093  0.7399  1.0000
  C   C10       1.0  0.11907  0.8143999999999998  0.9842199999999998  1.0000
  C   C11       1.0  0.10501  0.864  0.029689999999999994  1.0000
  C   C12       1.0  0.17471  0.84393  0.0671  1.0000
  C   C13       1.0  0.25832  0.77397  0.05913  1.0000
  C   C14       1.0  0.26834  0.71986  0.014519999999999998  1.0000
  C   C15       1.0  0.19879  0.74026  0.9770499999999998  1.0000
  C   C16       1.0  0.04928  0.84357  0.94391  1.0000
  C   C17       1.0  0.16129  0.8985200000000001  0.11462999999999997  1.0000
  C   C18       1.0  0.3533499999999999  0.64006  0.00749  1.0000
  C   C19       1.0  0.16976999999999998  0.76629  0.67264  1.0000
  C   C20       1.0  0.15075  0.8147200000000001  0.63011  1.0000
  C   C21       1.0  0.07625  0.89369  0.62957  1.0000
  C   C22       1.0  0.02494  0.9276  0.67199  1.0000
  C   C23       1.0  0.04615  0.88114  0.71487  1.0000
  C   C24       1.0  0.11686  0.7984  0.71505  1.0000
  C   C25       1.0  0.24576  0.67895  0.67111  1.0000
  C   C26       1.0  0.04861  0.93992  0.58367  1.0000
  C   C27       1.0  0.98956  0.9184500000000001  0.7594899999999998  1.0000
  C   C28       1.0  0.61854  0.68561  0.51524  1.0000
  C   C29       1.0  0.60561  0.6358300000000001  0.46974999999999995  1.0000
  C   C30       1.0  0.67591  0.6561  0.43267  1.0000
  C   C31       1.0  0.7589499999999998  0.72655  0.44092  1.0000
  C   C32       1.0  0.76819  0.78046  0.4856199999999999  1.0000
  C   C33       1.0  0.69832  0.75969  0.52286  1.0000
  C   C34       1.0  0.54698  0.6562500000000001  0.55483  1.0000
  C   C35       1.0  0.66351  0.60151  0.3851299999999999  1.0000
  C   C36       1.0  0.85345  0.85993  0.4927099999999999  1.0000
  C   C37       1.0  0.33053  0.26632  0.17266999999999993  1.0000
  C   C38       1.0  0.35026  0.31472  0.13017  1.0000
  C   C39       1.0  0.42501  0.39368  0.12978999999999996  1.0000
  C   C40       1.0  0.47557  0.42771  0.17244  1.0000
  C   C41       1.0  0.45324999999999993  0.38158  0.21527999999999997  1.0000
  C   C42       1.0  0.38245  0.29887  0.21529999999999996  1.0000
  C   C43       1.0  0.25417  0.17912000000000003  0.17101999999999998  1.0000
  C   C44       1.0  0.4532999999999999  0.4398  0.08387999999999997  1.0000
  C   C45       1.0  0.50908  0.41906  0.26009999999999994  1.0000
  C   C46       1.0  0.88092  0.1856  0.01578  1.0000
  C   C47       1.0  0.8949699999999998  0.13599  0.97031  1.0000
  C   C48       1.0  0.82528  0.15606  0.9329  1.0000
  C   C49       1.0  0.7416699999999998  0.22602000000000003  0.94087  1.0000
  C   C50       1.0  0.73165  0.28014  0.9854799999999998  1.0000
  C   C51       1.0  0.8012  0.25973  0.022949999999999998  1.0000
  C   C52       1.0  0.95071  0.15642  0.056089999999999994  1.0000
  C   C53       1.0  0.8387  0.10148  0.88537  1.0000
  C   C54       1.0  0.64664  0.35994  0.99252  1.0000
  C   C55       1.0  0.83022  0.23370999999999997  0.3273599999999999  1.0000
  C   C56       1.0  0.84924  0.18527  0.36989  1.0000
  C   C57       1.0  0.9237399999999999  0.1063  0.37044  1.0000
  C   C58       1.0  0.9750499999999999  0.07238999999999998  0.32801  1.0000
  C   C59       1.0  0.95384  0.11885999999999998  0.28514  1.0000
  C   C60       1.0  0.88313  0.20159  0.28495  1.0000
  C   C61       1.0  0.7542299999999998  0.32104  0.3288899999999999  1.0000
  C   C62       1.0  0.95138  0.060079999999999995  0.41633999999999993  1.0000
  C   C63       1.0  0.01043  0.08154  0.24051  1.0000
  C   C64       1.0  0.38144999999999996  0.31438  0.4847599999999999  1.0000
  C   C65       1.0  0.39438  0.36415999999999993  0.53025  1.0000
  C   C66       1.0  0.32408  0.3438899999999999  0.5673299999999999  1.0000
  C   C67       1.0  0.24102999999999997  0.27344  0.55909  1.0000
  C   C68       1.0  0.23179  0.21953999999999999  0.51439  1.0000
  C   C69       1.0  0.30167  0.2403  0.4771399999999999  1.0000
  C   C70       1.0  0.45301  0.34375  0.4451699999999999  1.0000
  C   C71       1.0  0.33647  0.39848  0.61488  1.0000
  C   C72       1.0  0.14654  0.14006  0.5073  1.0000
  O   O1        1.0  0.73514  0.8878400000000001  0.79756  1.0000
  O   O2        1.0  0.81497  0.8231800000000001  0.86224  1.0000
  O   O3        1.0  0.4765399999999999  0.48949  0.91396  1.0000
  O   O4        1.0  0.594  0.5961299999999999  0.9541699999999997  1.0000
  O   O5        1.0  0.50722  0.6253400000000001  0.70152  1.0000
  O   O6        1.0  0.42729999999999996  0.50412  0.74458  1.0000
  O   O7        1.0  0.9627899999999999  0.88987  0.95237  1.0000
  O   O8        1.0  0.08054999999999997  0.8223599999999998  0.9001199999999998  1.0000
  O   O9        1.0  0.23258  0.88825  0.14731  1.0000
  O   O10       1.0  0.07947  0.9548000000000001  0.12418  1.0000
  O   O11       1.0  0.32808  0.55688  0.9835299999999998  1.0000
  O   O12       1.0  0.44363  0.66146  0.02644  1.0000
  O   O13       1.0  0.23328  0.61166  0.70233  1.0000
  O   O14       1.0  0.31577  0.67668  0.63825  1.0000
  O   O15       1.0  0.97886  0.010850000000000005  0.58588  1.0000
  O   O16       1.0  0.09577  0.9038199999999998  0.54565  1.0000
  O   O17       1.0  0.00502  0.8740599999999998  0.7979599999999998  1.0000
  O   O18       1.0  0.92608  0.99532  0.7547199999999997  1.0000
  O   O19       1.0  0.46089  0.61027  0.54556  1.0000
  O   O20       1.0  0.57773  0.67727  0.5988699999999999  1.0000
  O   O21       1.0  0.73484  0.61215  0.3525599999999999  1.0000
  O   O22       1.0  0.58205  0.5446899999999999  0.3754399999999999  1.0000
  O   O23       1.0  0.82978  0.9431999999999999  0.51678  1.0000
  O   O24       1.0  0.9430899999999999  0.83804  0.4734  1.0000
  O   O25       1.0  0.26485  0.11216000000000001  0.20244  1.0000
  O   O26       1.0  0.18502  0.17681  0.13776  1.0000
  O   O27       1.0  0.52345  0.5105  0.08604  1.0000
  O   O28       1.0  0.40599  0.40386  0.04584  1.0000
  O   O29       1.0  0.49276  0.3746499999999999  0.2984899999999999  1.0000
  O   O30       1.0  0.57269  0.49587  0.25542  1.0000
  O   O31       1.0  0.03719  0.11012  0.04764  1.0000
  O   O32       1.0  0.91944  0.17763  0.09987999999999997  1.0000
  O   O33       1.0  0.76741  0.11174  0.8527  1.0000
  O   O34       1.0  0.92052  0.04519  0.87583  1.0000
  O   O35       1.0  0.67191  0.44311  0.01647  1.0000
  O   O36       1.0  0.55636  0.33853999999999995  0.9735599999999998  1.0000
  O   O37       1.0  0.76671  0.38834  0.29767  1.0000
  O   O38       1.0  0.68422  0.32331000000000004  0.3617599999999999  1.0000
  O   O39       1.0  0.02113  0.9891500000000001  0.41412  1.0000
  O   O40       1.0  0.90422  0.09616999999999996  0.45434999999999987  1.0000
  O   O41       1.0  0.99497  0.12593  0.20204999999999998  1.0000
  O   O42       1.0  0.07391  0.004669999999999994  0.24527999999999997  1.0000
  O   O43       1.0  0.5391  0.38973  0.45444  1.0000
  O   O44       1.0  0.42226  0.32272  0.4011299999999999  1.0000
  O   O45       1.0  0.2651399999999999  0.38785  0.64744  1.0000
  O   O46       1.0  0.4179399999999999  0.45529999999999987  0.62456  1.0000
  O   O47       1.0  0.17021  0.0568  0.48322  1.0000
  O   O48       1.0  0.0569  0.16195000000000004  0.52661  1.0000
