data_image0
_chemical_formula_structural       Mn4H60C104N12O24
_chemical_formula_sum              "Mn4 H60 C104 N12 O24"
_cell_length_a       6.69646
_cell_length_b       16.41051
_cell_length_c       23.75437
_cell_angle_alpha    90.0
_cell_angle_beta     89.98794
_cell_angle_gamma    90.0

_space_group_name_H-M_alt    "P 1"
_space_group_IT_number       1

loop_
  _space_group_symop_operation_xyz
  'x, y, z'

loop_
  _atom_site_type_symbol
  _atom_site_label
  _atom_site_symmetry_multiplicity
  _atom_site_fract_x
  _atom_site_fract_y
  _atom_site_fract_z
  _atom_site_occupancy
  Mn  Mn1       1.0  0.11588999999999998  0.11111000000000003  0.17349000000000003  1.0000
  Mn  Mn2       1.0  0.6122  0.88894  0.82645  1.0000
  Mn  Mn3       1.0  0.1159  0.3888900000000001  0.67349  1.0000
  Mn  Mn4       1.0  0.6122  0.61106  0.32645  1.0000
  H   H1        1.0  0.07149  0.27094  0.10105  1.0000
  H   H2        1.0  0.13156  0.46475  0.14879  1.0000
  H   H3        1.0  0.14067  0.58703  0.21091000000000004  1.0000
  H   H4        1.0  0.08428  0.31316  0.29537  1.0000
  H   H5        1.0  0.17606  0.54524  0.40457  1.0000
  H   H6        1.0  0.16325999999999996  0.50598  0.5052000000000001  1.0000
  H   H7        1.0  0.005309999999999999  0.26396  0.4538200000000001  1.0000
  H   H8        1.0  0.15742  0.19787000000000002  0.29597  1.0000
  H   H9        1.0  0.17550999999999994  0.15926  0.3978  1.0000
  H   H10       1.0  0.15598  0.01067  0.42402000000000006  1.0000
  H   H11       1.0  0.12414  0.86426  0.39143  1.0000
  H   H12       1.0  0.09362999999999999  0.7655  0.31393  1.0000
  H   H13       1.0  0.07189  0.73823  0.20959000000000005  1.0000
  H   H14       1.0  0.06553  0.79474  0.11095000000000001  1.0000
  H   H15       1.0  0.08579  0.94607  0.09741000000000001  1.0000
  H   H16       1.0  0.5754  0.72888  0.89896  1.0000
  H   H17       1.0  0.6321499999999999  0.53516  0.8511400000000001  1.0000
  H   H18       1.0  0.64008  0.4128700000000001  0.78904  1.0000
  H   H19       1.0  0.5852  0.68676  0.70456  1.0000
  H   H20       1.0  0.6762  0.45478  0.59535  1.0000
  H   H21       1.0  0.6621799999999999  0.49404000000000003  0.4947000000000001  1.0000
  H   H22       1.0  0.5054  0.73613  0.54628  1.0000
  H   H23       1.0  0.6571099999999997  0.80216  0.70403  1.0000
  H   H24       1.0  0.67563  0.84076  0.6021900000000001  1.0000
  H   H25       1.0  0.65603  0.9893400000000001  0.5759600000000001  1.0000
  H   H26       1.0  0.6241999999999998  0.13575  0.60855  1.0000
  H   H27       1.0  0.59365  0.23452  0.68605  1.0000
  H   H28       1.0  0.57213  0.26182  0.7904000000000002  1.0000
  H   H29       1.0  0.56576  0.2053  0.8890400000000003  1.0000
  H   H30       1.0  0.58526  0.05393  0.9025600000000003  1.0000
  H   H31       1.0  0.07149  0.22906  0.60105  1.0000
  H   H32       1.0  0.13156  0.03525  0.64879  1.0000
  H   H33       1.0  0.14068  0.91296  0.7109100000000002  1.0000
  H   H34       1.0  0.08428  0.18684  0.79537  1.0000
  H   H35       1.0  0.17606999999999995  0.95475  0.9045700000000001  1.0000
  H   H36       1.0  0.16325999999999996  0.99402  0.0052  1.0000
  H   H37       1.0  0.00531  0.23604000000000006  0.9538200000000002  1.0000
  H   H38       1.0  0.15742  0.30213  0.7959700000000001  1.0000
  H   H39       1.0  0.17552  0.34074000000000004  0.8978000000000003  1.0000
  H   H40       1.0  0.15598  0.48933000000000004  0.92402  1.0000
  H   H41       1.0  0.12414  0.63573  0.89143  1.0000
  H   H42       1.0  0.09363999999999997  0.73449  0.81393  1.0000
  H   H43       1.0  0.0719  0.76176  0.70959  1.0000
  H   H44       1.0  0.06553  0.70525  0.61095  1.0000
  H   H45       1.0  0.0858  0.55392  0.59741  1.0000
  H   H46       1.0  0.5754  0.77111  0.39896  1.0000
  H   H47       1.0  0.6321499999999999  0.96483  0.35114  1.0000
  H   H48       1.0  0.64008  0.08713000000000003  0.28904  1.0000
  H   H49       1.0  0.5852  0.8132300000000002  0.20456  1.0000
  H   H50       1.0  0.67619  0.04522  0.09535  1.0000
  H   H51       1.0  0.6621799999999999  0.00595  0.9947000000000003  1.0000
  H   H52       1.0  0.5054  0.76386  0.04628  1.0000
  H   H53       1.0  0.6571  0.69783  0.20403000000000002  1.0000
  H   H54       1.0  0.67563  0.65923  0.10219  1.0000
  H   H55       1.0  0.65603  0.51065  0.07596  1.0000
  H   H56       1.0  0.6241999999999998  0.36424  0.10855  1.0000
  H   H57       1.0  0.59365  0.26548  0.18605  1.0000
  H   H58       1.0  0.57213  0.23818  0.2904  1.0000
  H   H59       1.0  0.56576  0.2947  0.3890400000000001  1.0000
  H   H60       1.0  0.58526  0.44606  0.4025600000000001  1.0000
  C   C1        1.0  0.10292999999999998  0.3077000000000001  0.18178  1.0000
  C   C2        1.0  0.1081  0.38101  0.21823  1.0000
  C   C3        1.0  0.12358999999999998  0.4586900000000001  0.19432000000000002  1.0000
  C   C4        1.0  0.12784  0.5263800000000002  0.22922  1.0000
  C   C5        1.0  0.11526  0.51896  0.28791  1.0000
  C   C6        1.0  0.11452999999999999  0.59888  0.31895  1.0000
  C   C7        1.0  0.10172999999999999  0.44067  0.31277000000000005  1.0000
  C   C8        1.0  0.09832  0.37313  0.2766100000000001  1.0000
  C   C9        1.0  0.09338  0.42453  0.37435  1.0000
  C   C10       1.0  0.13431  0.48349  0.41581  1.0000
  C   C11       1.0  0.12855  0.46173000000000003  0.4724800000000001  1.0000
  C   C12       1.0  0.08149  0.38163  0.4875  1.0000
  C   C13       1.0  0.042829999999999986  0.32687  0.44345  1.0000
  C   C14       1.0  0.07843  0.35253  0.54722  1.0000
  C   C15       1.0  0.15028  0.13442  0.30898000000000003  1.0000
  C   C16       1.0  0.16038  0.11193000000000003  0.36602  1.0000
  C   C17       1.0  0.14923999999999996  0.03019  0.38023000000000007  1.0000
  C   C18       1.0  0.12949  0.9711400000000002  0.33731000000000005  1.0000
  C   C19       1.0  0.12197  0.99989  0.28078  1.0000
  C   C20       1.0  0.11808999999999997  0.88553  0.34807  1.0000
  C   C21       1.0  0.10188  0.83063  0.30498  1.0000
  C   C22       1.0  0.09578  0.85769  0.24775  1.0000
  C   C23       1.0  0.10546  0.94227  0.23540000000000003  1.0000
  C   C24       1.0  0.08036  0.80351  0.2016  1.0000
  C   C25       1.0  0.07635  0.83444  0.14751  1.0000
  C   C26       1.0  0.08752999999999998  0.91931  0.1394  1.0000
  C   C27       1.0  0.6066299999999999  0.69226  0.8181800000000002  1.0000
  C   C28       1.0  0.60934  0.61894  0.7817  1.0000
  C   C29       1.0  0.62408  0.54123  0.80562  1.0000
  C   C30       1.0  0.6273799999999999  0.47354  0.77075  1.0000
  C   C31       1.0  0.6146299999999999  0.48101  0.71208  1.0000
  C   C32       1.0  0.61321  0.40097  0.68136  1.0000
  C   C33       1.0  0.60154  0.55925  0.68718  1.0000
  C   C34       1.0  0.59891  0.62679  0.7233300000000001  1.0000
  C   C35       1.0  0.59343  0.57544  0.62561  1.0000
  C   C36       1.0  0.63445  0.51654  0.5841  1.0000
  C   C37       1.0  0.62795  0.53834  0.52743  1.0000
  C   C38       1.0  0.58042  0.61845  0.51251  1.0000
  C   C39       1.0  0.54277  0.67321  0.55663  1.0000
  C   C40       1.0  0.57391  0.6475100000000001  0.45281  1.0000
  C   C41       1.0  0.64995  0.8656  0.69101  1.0000
  C   C42       1.0  0.66025  0.88809  0.63397  1.0000
  C   C43       1.0  0.64912  0.96983  0.6197500000000001  1.0000
  C   C44       1.0  0.6292099999999999  0.02887  0.6626700000000001  1.0000
  C   C45       1.0  0.62163  0.00014  0.7192  1.0000
  C   C46       1.0  0.6178599999999999  0.11449  0.65191  1.0000
  C   C47       1.0  0.60164  0.16939  0.69499  1.0000
  C   C48       1.0  0.59554  0.14235  0.75222  1.0000
  C   C49       1.0  0.60515  0.057770000000000016  0.76458  1.0000
  C   C50       1.0  0.58038  0.19653  0.79838  1.0000
  C   C51       1.0  0.57637  0.16561  0.85248  1.0000
  C   C52       1.0  0.58728  0.08074  0.8605900000000001  1.0000
  C   C53       1.0  0.10292999999999998  0.1923  0.68178  1.0000
  C   C54       1.0  0.1081  0.11899000000000003  0.71823  1.0000
  C   C55       1.0  0.12358999999999998  0.04131  0.6943200000000002  1.0000
  C   C56       1.0  0.12784  0.9736100000000002  0.7292200000000001  1.0000
  C   C57       1.0  0.11526  0.9810400000000001  0.7879100000000002  1.0000
  C   C58       1.0  0.11452999999999999  0.90112  0.81895  1.0000
  C   C59       1.0  0.10172999999999999  0.05933  0.81277  1.0000
  C   C60       1.0  0.09832  0.12686  0.77661  1.0000
  C   C61       1.0  0.09339  0.07547  0.87435  1.0000
  C   C62       1.0  0.13431  0.01651  0.91581  1.0000
  C   C63       1.0  0.12855  0.03827  0.9724800000000002  1.0000
  C   C64       1.0  0.08149  0.11836  0.9875  1.0000
  C   C65       1.0  0.04284  0.17313000000000006  0.9434500000000001  1.0000
  C   C66       1.0  0.07843  0.14746  0.04722  1.0000
  C   C67       1.0  0.15028  0.36558  0.80898  1.0000
  C   C68       1.0  0.16038  0.38807  0.8660200000000001  1.0000
  C   C69       1.0  0.14924  0.46981  0.88023  1.0000
  C   C70       1.0  0.12949  0.52885  0.83731  1.0000
  C   C71       1.0  0.12197  0.50011  0.78078  1.0000
  C   C72       1.0  0.1181  0.61447  0.8480700000000001  1.0000
  C   C73       1.0  0.10188  0.66936  0.80498  1.0000
  C   C74       1.0  0.09578999999999999  0.6423  0.7477500000000001  1.0000
  C   C75       1.0  0.10546  0.5577300000000001  0.7354  1.0000
  C   C76       1.0  0.08036  0.69648  0.7016000000000001  1.0000
  C   C77       1.0  0.07635  0.66555  0.64751  1.0000
  C   C78       1.0  0.08752999999999998  0.58069  0.6394000000000001  1.0000
  C   C79       1.0  0.60662  0.80773  0.31818  1.0000
  C   C80       1.0  0.60934  0.88105  0.2817  1.0000
  C   C81       1.0  0.62408  0.95876  0.30562  1.0000
  C   C82       1.0  0.6273799999999999  0.026460000000000008  0.27075  1.0000
  C   C83       1.0  0.6146299999999999  0.01899  0.21208  1.0000
  C   C84       1.0  0.61321  0.09902  0.18136  1.0000
  C   C85       1.0  0.60153  0.94075  0.18718  1.0000
  C   C86       1.0  0.59891  0.8732  0.22333000000000003  1.0000
  C   C87       1.0  0.59343  0.92455  0.12561  1.0000
  C   C88       1.0  0.63444  0.9834499999999999  0.0841  1.0000
  C   C89       1.0  0.62795  0.96165  0.027430000000000003  1.0000
  C   C90       1.0  0.58042  0.8815500000000002  0.01251  1.0000
  C   C91       1.0  0.54277  0.8267900000000002  0.05663  1.0000
  C   C92       1.0  0.57392  0.85249  0.95281  1.0000
  C   C93       1.0  0.64995  0.6344  0.19101000000000007  1.0000
  C   C94       1.0  0.66025  0.6119  0.13397  1.0000
  C   C95       1.0  0.64912  0.53017  0.11975000000000001  1.0000
  C   C96       1.0  0.6292099999999999  0.47112  0.16267  1.0000
  C   C97       1.0  0.62163  0.49985999999999997  0.2192  1.0000
  C   C98       1.0  0.6178599999999999  0.38551  0.15191  1.0000
  C   C99       1.0  0.60164  0.33061  0.19499000000000002  1.0000
  C   C100      1.0  0.59554  0.35765  0.25222  1.0000
  C   C101      1.0  0.60515  0.44222  0.26458  1.0000
  C   C102      1.0  0.58038  0.30346  0.29838000000000003  1.0000
  C   C103      1.0  0.57637  0.33439000000000013  0.35248000000000007  1.0000
  C   C104      1.0  0.58728  0.41926  0.36059  1.0000
  N   N1        1.0  0.04924  0.34649  0.3889900000000001  1.0000
  N   N2        1.0  0.13091  0.08031  0.26736  1.0000
  N   N3        1.0  0.10101999999999997  0.97203  0.18190000000000003  1.0000
  N   N4        1.0  0.54945  0.65352  0.61106  1.0000
  N   N5        1.0  0.63056  0.9197100000000002  0.73263  1.0000
  N   N6        1.0  0.6007199999999998  0.028030000000000003  0.8180800000000003  1.0000
  N   N7        1.0  0.04924  0.15351  0.8889900000000001  1.0000
  N   N8        1.0  0.13091  0.41969  0.76736  1.0000
  N   N9        1.0  0.10101999999999997  0.52796  0.6819000000000002  1.0000
  N   N10       1.0  0.54945  0.84647  0.11106  1.0000
  N   N11       1.0  0.63056  0.58029  0.23263  1.0000
  N   N12       1.0  0.6007199999999998  0.47197  0.31808  1.0000
  O   O1        1.0  0.11041  0.23762  0.20275000000000004  1.0000
  O   O2        1.0  0.09055  0.32342  0.12792000000000003  1.0000
  O   O3        1.0  0.28331  0.63147  0.32877000000000006  1.0000
  O   O4        1.0  0.94718  0.63112  0.33035000000000003  1.0000
  O   O5        1.0  0.11971999999999998  0.40437  0.5856  1.0000
  O   O6        1.0  0.03615  0.27762  0.55425  1.0000
  O   O7        1.0  0.61537  0.76236  0.79724  1.0000
  O   O8        1.0  0.5953  0.67654  0.87206  1.0000
  O   O9        1.0  0.78118  0.36845  0.67079  1.0000
  O   O10       1.0  0.44471  0.36856  0.67131  1.0000
  O   O11       1.0  0.60668  0.59504  0.41424  1.0000
  O   O12       1.0  0.53662  0.72285  0.44586  1.0000
  O   O13       1.0  0.11041  0.26237  0.70275  1.0000
  O   O14       1.0  0.09055999999999999  0.17658000000000004  0.62792  1.0000
  O   O15       1.0  0.28331  0.86852  0.82877  1.0000
  O   O16       1.0  0.94718  0.86888  0.8303500000000001  1.0000
  O   O17       1.0  0.11971999999999998  0.09563  0.0856  1.0000
  O   O18       1.0  0.03614  0.22238  0.05425  1.0000
  O   O19       1.0  0.61537  0.73763  0.29724  1.0000
  O   O20       1.0  0.5953  0.82345  0.3720600000000001  1.0000
  O   O21       1.0  0.78118  0.13155  0.17079000000000003  1.0000
  O   O22       1.0  0.4447  0.13144000000000006  0.17131  1.0000
  O   O23       1.0  0.60669  0.9049600000000002  0.9142400000000002  1.0000
  O   O24       1.0  0.53662  0.77714  0.9458600000000003  1.0000
