data_image0
_chemical_formula_structural       Zn4H64C48N48
_chemical_formula_sum              "Zn4 H64 C48 N48"
_cell_length_a       7.99411
_cell_length_b       16.96526
_cell_length_c       12.070419999999999
_cell_angle_alpha    89.99998999999998
_cell_angle_beta     90.01357
_cell_angle_gamma    90.03648

_symmetry_space_group_name_H-M    'P 1'
_symmetry_Int_Tables_number       1

loop_
  _symmetry_equiv_pos_as_xyz
  'x,y,z'

loop_
  _atom_site_type_symbol
  _atom_site_label
  _atom_site_symmetry_multiplicity
  _atom_site_fract_x
  _atom_site_fract_y
  _atom_site_fract_z
  _atom_site_occupancy
  Zn  Zn1       1.0  0.63125  0.72705  0.77097  1.0000
  Zn  Zn2       1.0  0.86592  0.22773  0.27064  1.0000
  Zn  Zn3       1.0  0.36528  0.27203  0.26974  1.0000
  Zn  Zn4       1.0  0.13292  0.77244  0.77272  1.0000
  H   H1        1.0  0.03597  0.10781  0.62547  1.0000
  H   H2        1.0  0.11019999999999998  0.09549  0.83289  1.0000
  H   H3        1.0  0.3588  0.21713  0.61398  1.0000
  H   H4        1.0  0.6494299999999997  0.6386  0.5574  1.0000
  H   H5        1.0  0.16990999999999995  0.65319  0.57201  1.0000
  H   H6        1.0  0.96839  0.56375  0.39594  1.0000
  H   H7        1.0  0.8012899999999997  0.52104  0.4666  1.0000
  H   H8        1.0  0.26381  0.58018  0.09362  1.0000
  H   H9        1.0  0.17695  0.58796  0.2912  1.0000
  H   H10       1.0  0.4480399999999999  0.73445  0.39936000000000005  1.0000
  H   H11       1.0  0.75643  0.14855  0.52814  1.0000
  H   H12       1.0  0.27858  0.09851  0.38777  1.0000
  H   H13       1.0  0.52539  0.02507  0.61556  1.0000
  H   H14       1.0  0.67669  0.0005  0.51532  1.0000
  H   H15       1.0  0.96576  0.89208  0.12784  1.0000
  H   H16       1.0  0.88896  0.90353  0.33419000000000004  1.0000
  H   H17       1.0  0.63814  0.78174  0.11555  1.0000
  H   H18       1.0  0.34812  0.36214  0.056350000000000004  1.0000
  H   H19       1.0  0.8277199999999998  0.34739  0.07084  1.0000
  H   H20       1.0  0.03391  0.43781  0.8943099999999999  1.0000
  H   H21       1.0  0.19836999999999994  0.4798299999999999  0.96896  1.0000
  H   H22       1.0  0.73743  0.4212  0.59484  1.0000
  H   H23       1.0  0.8207299999999997  0.41178  0.79195  1.0000
  H   H24       1.0  0.55032  0.2655  0.8997300000000001  1.0000
  H   H25       1.0  0.23997999999999994  0.8527  0.027329999999999997  1.0000
  H   H26       1.0  0.7207  0.89941  0.89008  1.0000
  H   H27       1.0  0.47514  0.97466  0.11591  1.0000
  H   H28       1.0  0.32345  0.9994499999999998  0.01606  1.0000
  H   H29       1.0  0.76076  0.92069  0.09552  1.0000
  H   H30       1.0  0.67614  0.91158  0.29286  1.0000
  H   H31       1.0  0.9394899999999998  0.76531  0.40382  1.0000
  H   H32       1.0  0.25704  0.35214  0.52787  1.0000
  H   H33       1.0  0.7784499999999998  0.40037  0.38842999999999994  1.0000
  H   H34       1.0  0.02307  0.47492000000000006  0.61559  1.0000
  H   H35       1.0  0.17555  0.49948999999999993  0.51619  1.0000
  H   H36       1.0  0.53235  0.39227  0.62585  1.0000
  H   H37       1.0  0.6078899999999998  0.40411  0.8331600000000001  1.0000
  H   H38       1.0  0.8671799999999997  0.28228  0.61938  1.0000
  H   H39       1.0  0.14975999999999995  0.86157  0.55762  1.0000
  H   H40       1.0  0.66953  0.84537  0.57121  1.0000
  H   H41       1.0  0.4684399999999999  0.9359  0.39637  1.0000
  H   H42       1.0  0.30194  0.97902  0.46737  1.0000
  H   H43       1.0  0.24054999999999996  0.07796  0.59506  1.0000
  H   H44       1.0  0.32325  0.08787  0.79205  1.0000
  H   H45       1.0  0.06159  0.23405  0.90352  1.0000
  H   H46       1.0  0.73984  0.64708  0.02717  1.0000
  H   H47       1.0  0.21999999999999995  0.59958  0.88979  1.0000
  H   H48       1.0  0.97414  0.52434  0.11538000000000001  1.0000
  H   H49       1.0  0.8226399999999998  0.4996  0.01521  1.0000
  H   H50       1.0  0.4692199999999999  0.60749  0.12811  1.0000
  H   H51       1.0  0.38961  0.59596  0.33345  1.0000
  H   H52       1.0  0.132  0.7176  0.11821  1.0000
  H   H53       1.0  0.8484  0.13752  0.057690000000000005  1.0000
  H   H54       1.0  0.3287099999999999  0.15329  0.06894  1.0000
  H   H55       1.0  0.53372  0.06202  0.8953099999999999  1.0000
  H   H56       1.0  0.6989199999999998  0.02019  0.96927  1.0000
  H   H57       1.0  0.83187  0.01797  0.7184200000000001  1.0000
  H   H58       1.0  0.32063999999999987  0.9558800000000001  0.74076  1.0000
  H   H59       1.0  0.66681  0.51632  0.21913  1.0000
  H   H60       1.0  0.17613  0.45617  0.23946  1.0000
  H   H61       1.0  0.16659  0.9826999999999999  0.22125000000000003  1.0000
  H   H62       1.0  0.67663  0.04374  0.24114  1.0000
  H   H63       1.0  0.32938  0.48395999999999995  0.71748  1.0000
  H   H64       1.0  0.82068  0.54362  0.73986  1.0000
  C   C1        1.0  0.28978  0.24106000000000002  0.68362  1.0000
  C   C2        1.0  0.75856  0.63183  0.61279  1.0000
  C   C3        1.0  0.03892  0.65836  0.59265  1.0000
  C   C4        1.0  0.92753  0.54476  0.47867  1.0000
  C   C5        1.0  0.36981999999999987  0.75071  0.3292  1.0000
  C   C6        1.0  0.64045  0.15522  0.48392  1.0000
  C   C7        1.0  0.3942999999999999  0.12675  0.41526  1.0000
  C   C8        1.0  0.54565  0.01808  0.52617  1.0000
  C   C9        1.0  0.70852  0.75798  0.1849  1.0000
  C   C10       1.0  0.23891  0.36839  0.11170000000000001  1.0000
  C   C11       1.0  0.95882  0.34157  0.09121  1.0000
  C   C12       1.0  0.07195  0.4556  0.97826  1.0000
  C   C13       1.0  0.6287099999999998  0.24930000000000002  0.82971  1.0000
  C   C14       1.0  0.35626  0.84516  0.98402  1.0000
  C   C15       1.0  0.60426  0.87176  0.91728  1.0000
  C   C16       1.0  0.45441  0.98166  0.02661  1.0000
  C   C17       1.0  0.8649  0.74901  0.33196  1.0000
  C   C18       1.0  0.14092999999999994  0.34511  0.48391  1.0000
  C   C19       1.0  0.89401  0.37242  0.41617000000000004  1.0000
  C   C20       1.0  0.044409999999999984  0.4819  0.52634  1.0000
  C   C21       1.0  0.79298  0.25838  0.6867  1.0000
  C   C22       1.0  0.2586  0.86829  0.61341  1.0000
  C   C23       1.0  0.53882  0.84091  0.59232  1.0000
  C   C24       1.0  0.42799  0.9550100000000001  0.4792199999999999  1.0000
  C   C25       1.0  0.13545  0.2502  0.83142  1.0000
  C   C26       1.0  0.85635  0.65444  0.98394  1.0000
  C   C27       1.0  0.10393  0.62734  0.91706  1.0000
  C   C28       1.0  0.9534699999999998  0.51757  0.026  1.0000
  C   C29       1.0  0.20580999999999994  0.74157  0.18588  1.0000
  C   C30       1.0  0.7390899999999998  0.13112  0.11307  1.0000
  C   C31       1.0  0.4592299999999999  0.15864  0.09014999999999998  1.0000
  C   C32       1.0  0.57237  0.04405  0.97902  1.0000
  C   C33       1.0  0.9396499999999998  0.97998  0.72959  1.0000
  C   C34       1.0  0.20407999999999996  0.92961  0.70677  1.0000
  C   C35       1.0  0.14176  0.07333  0.65704  1.0000
  C   C36       1.0  0.19992  0.11041  0.76769  1.0000
  C   C37       1.0  0.55865  0.47891  0.22949  1.0000
  C   C38       1.0  0.2926899999999999  0.42979  0.20569000000000004  1.0000
  C   C39       1.0  0.36031  0.57388  0.15716  1.0000
  C   C40       1.0  0.30059  0.61074  0.26758  1.0000
  C   C41       1.0  0.05874999999999998  0.02011  0.23129  1.0000
  C   C42       1.0  0.7932599999999997  0.06984  0.20695  1.0000
  C   C43       1.0  0.8584599999999998  0.92601  0.15826  1.0000
  C   C44       1.0  0.7994199999999998  0.88885  0.26867  1.0000
  C   C45       1.0  0.4383  0.52084  0.7287700000000001  1.0000
  C   C46       1.0  0.70425  0.57014  0.7062  1.0000
  C   C47       1.0  0.63907  0.42635  0.65708  1.0000
  C   C48       1.0  0.6973199999999998  0.38922  0.76772  1.0000
  N   N1        1.0  0.2680799999999999  0.317  0.7044900000000001  1.0000
  N   N2        1.0  0.8065199999999998  0.70816  0.66052  1.0000
  N   N3        1.0  0.97989  0.71328  0.65829  1.0000
  N   N4        1.0  0.9112899999999998  0.61168  0.55127  1.0000
  N   N5        1.0  0.33518  0.82351  0.29669  1.0000
  N   N6        1.0  0.58307  0.22071  0.43971  1.0000
  N   N7        1.0  0.42872  0.20169  0.39565000000000006  1.0000
  N   N8        1.0  0.52645  0.09523  0.47268  1.0000
  N   N9        1.0  0.7314699999999997  0.68206  0.20549000000000003  1.0000
  N   N10       1.0  0.19098  0.29181  0.159  1.0000
  N   N11       1.0  0.01753  0.28692  0.15655  1.0000
  N   N12       1.0  0.08671  0.38798  0.04964  1.0000
  N   N13       1.0  0.66431  0.17645  0.79774  1.0000
  N   N14       1.0  0.41223  0.77912  0.94067  1.0000
  N   N15       1.0  0.56825  0.79696  0.8976899999999999  1.0000
  N   N16       1.0  0.47204  0.90439  0.97347  1.0000
  N   N17       1.0  0.8318199999999998  0.67616  0.29883  1.0000
  N   N18       1.0  0.08379999999999997  0.27926  0.44062  1.0000
  N   N19       1.0  0.929  0.29768  0.3968  1.0000
  N   N20       1.0  0.026  0.40465  0.4729400000000001  1.0000
  N   N21       1.0  0.76996  0.18246  0.70703  1.0000
  N   N22       1.0  0.30647999999999986  0.79202  0.66105  1.0000
  N   N23       1.0  0.4795099999999999  0.78604  0.65772  1.0000
  N   N24       1.0  0.41176  0.88837  0.55232  1.0000
  N   N25       1.0  0.16880999999999993  0.32306  0.79826  1.0000
  N   N26       1.0  0.91328  0.72029  0.94077  1.0000
  N   N27       1.0  0.06909  0.70226  0.8979  1.0000
  N   N28       1.0  0.97135  0.59498  0.9731900000000001  1.0000
  N   N29       1.0  0.22963999999999996  0.81752  0.20589  1.0000
  N   N30       1.0  0.6908099999999998  0.20734  0.1609  1.0000
  N   N31       1.0  0.51798  0.2134  0.15612  1.0000
  N   N32       1.0  0.58703  0.11139  0.05083  1.0000
  N   N33       1.0  0.94623  0.92141  0.79754  1.0000
  N   N34       1.0  0.10577999999999997  0.88783  0.79378  1.0000
  N   N35       1.0  0.08769  0.9917  0.66675  1.0000
  N   N36       1.0  0.20908999999999994  0.19645  0.76161  1.0000
  N   N37       1.0  0.54993  0.42008  0.29724  1.0000
  N   N38       1.0  0.38966  0.38738  0.29327  1.0000
  N   N39       1.0  0.41082999999999986  0.49168999999999996  0.16682  1.0000
  N   N40       1.0  0.2910899999999999  0.69689  0.26175  1.0000
  N   N41       1.0  0.050549999999999984  0.07937  0.29873  1.0000
  N   N42       1.0  0.89108  0.11245  0.294  1.0000
  N   N43       1.0  0.91087  0.00782  0.16843  1.0000
  N   N44       1.0  0.7899299999999998  0.80275  0.26257  1.0000
  N   N45       1.0  0.4465599999999999  0.57935  0.79714  1.0000
  N   N46       1.0  0.60712  0.61182  0.7939699999999998  1.0000
  N   N47       1.0  0.58666  0.50826  0.66652  1.0000
  N   N48       1.0  0.70675  0.30308  0.76204  1.0000
