data_image0
_chemical_formula_structural       Ag14H40C60N50
_chemical_formula_sum              "Ag14 H40 C60 N50"
_cell_length_a       12.33199
_cell_length_b       13.27597
_cell_length_c       20.6035
_cell_angle_alpha    88.84827
_cell_angle_beta     107.81303
_cell_angle_gamma    108.0939

_symmetry_space_group_name_H-M    'P 1'
_symmetry_Int_Tables_number       1

loop_
  _symmetry_equiv_pos_as_xyz
  'x,y,z'

loop_
  _atom_site_type_symbol
  _atom_site_label
  _atom_site_symmetry_multiplicity
  _atom_site_fract_x
  _atom_site_fract_y
  _atom_site_fract_z
  _atom_site_occupancy
  Ag  Ag1       1.0  0.6871100000000002  0.9239100000000002  0.06892  1.0000
  Ag  Ag2       1.0  0.5378500000000002  0.3380900000000001  0.20807  1.0000
  Ag  Ag3       1.0  0.19242000000000004  0.7191700000000002  0.59602  1.0000
  Ag  Ag4       1.0  0.11695000000000001  0.4121  0.32304  1.0000
  Ag  Ag5       1.0  0.6078600000000001  0.17793  0.44010000000000005  1.0000
  Ag  Ag6       1.0  0.61406  0.34554  0.36025  1.0000
  Ag  Ag7       1.0  0.9991300000000002  0.59179  0.41863  1.0000
  Ag  Ag8       1.0  0.3149600000000001  0.07598000000000003  0.93018  1.0000
  Ag  Ag9       1.0  0.46054  0.66133  0.7910100000000001  1.0000
  Ag  Ag10      1.0  0.8051100000000001  0.27787  0.40443000000000007  1.0000
  Ag  Ag11      1.0  0.8825700000000001  0.5887900000000003  0.6761100000000002  1.0000
  Ag  Ag12      1.0  0.3903700000000001  0.8207400000000001  0.5611400000000001  1.0000
  Ag  Ag13      1.0  0.3846200000000002  0.65243  0.6397000000000003  1.0000
  Ag  Ag14      1.0  0.9997200000000002  0.40769000000000005  0.5806  1.0000
  H   H1        1.0  0.7096900000000002  0.8368900000000002  0.38526  1.0000
  H   H2        1.0  0.58026  0.9522500000000002  0.37714  1.0000
  H   H3        1.0  0.93302  0.005910000000000004  0.58108  1.0000
  H   H4        1.0  0.79592  0.11499  0.56452  1.0000
  H   H5        1.0  0.06809000000000003  0.3992100000000001  0.17608  1.0000
  H   H6        1.0  0.86218  0.02402  0.21795  1.0000
  H   H7        1.0  0.48945000000000005  0.44228000000000006  0.5764100000000001  1.0000
  H   H8        1.0  0.64273  0.12674  0.05210000000000001  1.0000
  H   H9        1.0  0.61087  0.33062  0.56212  1.0000
  H   H10       1.0  0.18851  0.36197  0.013  1.0000
  H   H11       1.0  0.33881000000000006  0.54447  0.03617000000000001  1.0000
  H   H12       1.0  0.9110000000000003  0.19034  0.29047  1.0000
  H   H13       1.0  0.08042  0.09995  0.04563  1.0000
  H   H14       1.0  0.68654  0.29793  0.11693000000000002  1.0000
  H   H15       1.0  0.20228000000000002  0.2556000000000001  0.40258  1.0000
  H   H16       1.0  0.25448000000000004  0.18393000000000007  0.14844  1.0000
  H   H17       1.0  0.25163  0.31161  0.83216  1.0000
  H   H18       1.0  0.4093899999999999  0.48645999999999995  0.84974  1.0000
  H   H19       1.0  0.9031500000000001  0.30715  0.07086  1.0000
  H   H20       1.0  0.33578  0.15168  0.39498000000000005  1.0000
  H   H21       1.0  0.29096000000000016  0.16390000000000005  0.6158100000000002  1.0000
  H   H22       1.0  0.4199  0.048490000000000026  0.62442  1.0000
  H   H23       1.0  0.06925999999999989  0.99622  0.41958  1.0000
  H   H24       1.0  0.20544000000000018  0.8868200000000005  0.4359700000000001  1.0000
  H   H25       1.0  0.9313  0.60281  0.82323  1.0000
  H   H26       1.0  0.14019  0.97569  0.7811600000000002  1.0000
  H   H27       1.0  0.5113800000000001  0.5587600000000003  0.42358  1.0000
  H   H28       1.0  0.35676000000000013  0.87159  0.9477800000000001  1.0000
  H   H29       1.0  0.38864000000000004  0.66853  0.43816  1.0000
  H   H30       1.0  0.81213  0.63818  0.9879000000000001  1.0000
  H   H31       1.0  0.66168  0.45558  0.96437  1.0000
  H   H32       1.0  0.09075999999999998  0.8094  0.70899  1.0000
  H   H33       1.0  0.91884  0.90202  0.95372  1.0000
  H   H34       1.0  0.3119700000000002  0.7001400000000001  0.8833200000000001  1.0000
  H   H35       1.0  0.79746  0.7457100000000002  0.59787  1.0000
  H   H36       1.0  0.74527  0.81832  0.85043  1.0000
  H   H37       1.0  0.74899  0.6873  0.16895000000000004  1.0000
  H   H38       1.0  0.5914200000000001  0.5122800000000001  0.15111  1.0000
  H   H39       1.0  0.09581999999999999  0.6941500000000002  0.929  1.0000
  H   H40       1.0  0.6632  0.84851  0.60527  1.0000
  C   C1        1.0  0.73165  0.89818  0.42576  1.0000
  C   C2        1.0  0.6593000000000001  0.9615700000000003  0.4215  1.0000
  C   C3        1.0  0.8330200000000002  0.9127000000000002  0.48384  1.0000
  C   C4        1.0  0.8553500000000002  0.99107  0.5353200000000001  1.0000
  C   C5        1.0  0.77856  0.05143  0.52643  1.0000
  C   C6        1.0  0.07424  0.33284  0.1488  1.0000
  C   C7        1.0  0.27371000000000006  0.3477900000000001  0.23427000000000003  1.0000
  C   C8        1.0  0.82523  0.08673  0.19753000000000004  1.0000
  C   C9        1.0  0.45153000000000004  0.3780400000000001  0.53588  1.0000
  C   C10       1.0  0.7017500000000001  0.14339  0.1048  1.0000
  C   C11       1.0  0.51933  0.31549  0.52804  1.0000
  C   C12       1.0  0.23784  0.39319000000000004  0.97724  1.0000
  C   C13       1.0  0.3360400000000001  0.35931  0.48916000000000004  1.0000
  C   C14       1.0  0.17517  0.29808  0.17205  1.0000
  C   C15       1.0  0.47454  0.63835  0.95535  1.0000
  C   C16       1.0  0.2610800000000001  0.4230100000000001  0.49399000000000004  1.0000
  C   C17       1.0  0.8261999999999999  0.35944  0.24588000000000002  1.0000
  C   C18       1.0  0.32209000000000015  0.49488000000000004  0.99049  1.0000
  C   C19       1.0  0.85334  0.18036000000000005  0.23744000000000004  1.0000
  C   C20       1.0  0.90952  0.8461  0.4906400000000001  1.0000
  C   C21       1.0  0.3860500000000001  0.53202  0.94414  1.0000
  C   C22       1.0  0.08012000000000001  0.16634000000000002  0.07581000000000002  1.0000
  C   C23       1.0  0.7257  0.23852000000000007  0.14115  1.0000
  C   C24       1.0  0.2933400000000001  0.27597000000000005  0.43789000000000006  1.0000
  C   C25       1.0  0.17795  0.21329000000000006  0.13368  1.0000
  C   C26       1.0  0.80283  0.2587400000000001  0.20887  1.0000
  C   C27       1.0  0.2732800000000002  0.36425  0.8774700000000001  1.0000
  C   C28       1.0  0.36124000000000017  0.46346000000000004  0.8868300000000001  1.0000
  C   C29       1.0  0.9817800000000001  0.28086  0.08997  1.0000
  C   C30       1.0  0.36651000000000006  0.21674000000000002  0.43435000000000007  1.0000
  C   C31       1.0  0.26939  0.10294  0.57519  1.0000
  C   C32       1.0  0.34143000000000007  0.039140000000000015  0.5797000000000001  1.0000
  C   C33       1.0  0.16865  0.08883  0.51687  1.0000
  C   C34       1.0  0.14662000000000008  0.010580000000000016  0.4654200000000001  1.0000
  C   C35       1.0  0.22304000000000004  0.9498800000000001  0.4744700000000001  1.0000
  C   C36       1.0  0.9254600000000002  0.6692500000000001  0.8506100000000001  1.0000
  C   C37       1.0  0.72607  0.65349  0.7652800000000002  1.0000
  C   C38       1.0  0.17632  0.91266  0.80193  1.0000
  C   C39       1.0  0.5487900000000001  0.6227400000000002  0.46423000000000003  1.0000
  C   C40       1.0  0.2980700000000001  0.8552200000000002  0.89501  1.0000
  C   C41       1.0  0.4803600000000002  0.6845800000000002  0.47220000000000006  1.0000
  C   C42       1.0  0.7626600000000001  0.60677  0.023560000000000005  1.0000
  C   C43       1.0  0.66432  0.6416100000000001  0.51092  1.0000
  C   C44       1.0  0.82462  0.70404  0.82727  1.0000
  C   C45       1.0  0.52586  0.36125  0.04463  1.0000
  C   C46       1.0  0.73899  0.57776  0.50572  1.0000
  C   C47       1.0  0.17288000000000017  0.6387800000000002  0.7539500000000001  1.0000
  C   C48       1.0  0.6784600000000001  0.50507  0.01011  1.0000
  C   C49       1.0  0.14764000000000005  0.81877  0.76216  1.0000
  C   C50       1.0  0.09182  0.15515  0.50956  1.0000
  C   C51       1.0  0.61447  0.4675700000000001  0.05639000000000001  1.0000
  C   C52       1.0  0.91926  0.8356300000000002  0.92356  1.0000
  C   C53       1.0  0.27343000000000006  0.75976  0.8588000000000001  1.0000
  C   C54       1.0  0.70651  0.7248  0.56232  1.0000
  C   C55       1.0  0.8218  0.78899  0.86545  1.0000
  C   C56       1.0  0.1968700000000001  0.7397200000000002  0.7909500000000002  1.0000
  C   C57       1.0  0.7272  0.63498  0.12346000000000001  1.0000
  C   C58       1.0  0.6393200000000001  0.53567  0.11392000000000001  1.0000
  C   C59       1.0  0.01751000000000005  0.72085  0.90966  1.0000
  C   C60       1.0  0.6328  0.78357  0.56583  1.0000
  N   N1        1.0  0.75051  0.06759  0.1322  1.0000
  N   N2        1.0  0.44743000000000005  0.4003100000000001  0.31154  1.0000
  N   N3        1.0  0.38814000000000004  0.34867  0.24829  1.0000
  N   N4        1.0  0.26349  0.39775  0.28774  1.0000
  N   N5        1.0  0.74239  0.40824000000000005  0.23811000000000002  1.0000
  N   N6        1.0  0.79715  0.5002200000000001  0.27801  1.0000
  N   N7        1.0  0.18196000000000018  0.44843000000000016  0.4397800000000001  1.0000
  N   N8        1.0  0.17123000000000002  0.50688  0.53518  1.0000
  N   N9        1.0  0.60043  0.7827400000000003  0.9373000000000001  1.0000
  N   N10       1.0  0.37352000000000013  0.42979  0.3352700000000001  1.0000
  N   N11       1.0  0.91061  0.50741  0.30865  1.0000
  N   N12       1.0  0.2567600000000001  0.4595900000000001  0.55335  1.0000
  N   N13       1.0  0.98822  0.7371900000000001  0.46556000000000003  1.0000
  N   N14       1.0  0.9841400000000001  0.8306400000000002  0.55091  1.0000
  N   N15       1.0  0.98198  0.1977  0.05374  1.0000
  N   N16       1.0  0.68136  0.03808000000000002  0.47050000000000003  1.0000
  N   N17       1.0  0.21158000000000013  0.32780000000000004  0.9214500000000002  1.0000
  N   N18       1.0  0.5274400000000001  0.68635  0.9086800000000003  1.0000
  N   N19       1.0  0.47867  0.23566  0.47815  1.0000
  N   N20       1.0  0.9317  0.41945000000000005  0.28972  1.0000
  N   N21       1.0  0.12752000000000005  0.50138  0.4672700000000001  1.0000
  N   N22       1.0  0.91066  0.78895  0.4374400000000001  1.0000
  N   N23       1.0  0.5124  0.7035100000000001  0.012560000000000002  1.0000
  N   N24       1.0  0.59049  0.79133  0.9995200000000001  1.0000
  N   N25       1.0  0.031500000000000014  0.7615  0.534  1.0000
  N   N26       1.0  0.25058000000000014  0.9316500000000001  0.8673700000000002  1.0000
  N   N27       1.0  0.55195  0.59809  0.68853  1.0000
  N   N28       1.0  0.61125  0.65138  0.75132  1.0000
  N   N29       1.0  0.7365900000000002  0.6027400000000002  0.71223  1.0000
  N   N30       1.0  0.2562300000000002  0.5894400000000001  0.7617400000000002  1.0000
  N   N31       1.0  0.20117000000000002  0.49777  0.72153  1.0000
  N   N32       1.0  0.8188600000000001  0.55292  0.5597600000000001  1.0000
  N   N33       1.0  0.8278  0.49305  0.46426  1.0000
  N   N34       1.0  0.39892  0.21667  0.061600000000000016  1.0000
  N   N35       1.0  0.6263200000000002  0.56892  0.6650300000000002  1.0000
  N   N36       1.0  0.08793  0.49123000000000006  0.69075  1.0000
  N   N37       1.0  0.74215  0.54021  0.44627  1.0000
  N   N38       1.0  0.01087999999999998  0.26261  0.53391  1.0000
  N   N39       1.0  0.01682  0.16945  0.44907  1.0000
  N   N40       1.0  0.01703000000000008  0.8037800000000003  0.94599  1.0000
  N   N41       1.0  0.31963  0.9626200000000003  0.53071  1.0000
  N   N42       1.0  0.7888  0.67185  0.07949  1.0000
  N   N43       1.0  0.4714900000000001  0.31297  0.09064  1.0000
  N   N44       1.0  0.5205  0.7643  0.5221  1.0000
  N   N45       1.0  0.06732999999999999  0.57938  0.70985  1.0000
  N   N46       1.0  0.8727  0.49949  0.53217  1.0000
  N   N47       1.0  0.08962000000000009  0.21220000000000006  0.5624400000000002  1.0000
  N   N48       1.0  0.4893300000000001  0.29639000000000004  0.9874100000000001  1.0000
  N   N49       1.0  0.41057000000000005  0.20843  0.99978  1.0000
  N   N50       1.0  0.9679900000000001  0.23770000000000005  0.46553000000000005  1.0000
