data_image0
_chemical_formula_structural       Sm6H70C66N44
_chemical_formula_sum              "Sm6 H70 C66 N44"
_cell_length_a       13.18578
_cell_length_b       13.680590000000002
_cell_length_c       16.466009999999997
_cell_angle_alpha    81.71077
_cell_angle_beta     72.78261
_cell_angle_gamma    60.89919999999999

_symmetry_space_group_name_H-M    'P 1'
_symmetry_Int_Tables_number       1

loop_
  _symmetry_equiv_pos_as_xyz
  'x,y,z'

loop_
  _atom_site_type_symbol
  _atom_site_label
  _atom_site_symmetry_multiplicity
  _atom_site_fract_x
  _atom_site_fract_y
  _atom_site_fract_z
  _atom_site_occupancy
  Sm  Sm1       1.0  0.5740099999999999  0.3461900000000001  0.6784799999999997  1.0000
  Sm  Sm2       1.0  0.013190000000000045  0.3471  0.8277  1.0000
  Sm  Sm3       1.0  0.04901000000000015  0.84455  0.7567899999999997  1.0000
  Sm  Sm4       1.0  0.9200000000000005  0.65569  0.17769999999999994  1.0000
  Sm  Sm5       1.0  0.36265  0.65203  0.32875  1.0000
  Sm  Sm6       1.0  0.89211  0.15741000000000002  0.2560099999999999  1.0000
  H   H1        1.0  0.70278  0.68294  0.53092  1.0000
  H   H2        1.0  0.19682000000000002  0.31002  0.4678799999999999  1.0000
  H   H3        1.0  0.8066800000000004  0.4117100000000001  0.7013799999999998  1.0000
  H   H4        1.0  0.5805300000000001  0.32075  0.8980899999999998  1.0000
  H   H5        1.0  0.74586  0.3325  0.9615499999999998  1.0000
  H   H6        1.0  0.47494000000000036  0.56442  0.5211599999999997  1.0000
  H   H7        1.0  0.40532000000000007  0.28888  0.5627  1.0000
  H   H8        1.0  0.33096999999999993  0.4077900000000001  0.4219299999999999  1.0000
  H   H9        1.0  0.26410000000000017  0.39536  0.6983199999999998  1.0000
  H   H10       1.0  0.48323000000000016  0.20216  0.86115  1.0000
  H   H11       1.0  0.2544900000000001  0.22480000000000003  0.9317199999999998  1.0000
  H   H12       1.0  0.8274800000000003  0.15006  0.7723699999999998  1.0000
  H   H13       1.0  0.5891  0.07472  0.70606  1.0000
  H   H14       1.0  0.7826400000000003  0.8775700000000001  0.73165  1.0000
  H   H15       1.0  0.6321700000000001  0.28958  0.44725  1.0000
  H   H16       1.0  0.8649199999999999  0.10896000000000003  0.60447  1.0000
  H   H17       1.0  0.99012  0.04704000000000001  0.4383999999999999  1.0000
  H   H18       1.0  0.57374  0.61938  0.65284  1.0000
  H   H19       1.0  0.81341  0.34471000000000007  0.48798999999999987  1.0000
  H   H20       1.0  0.8547  0.5239  0.42503999999999986  1.0000
  H   H21       1.0  0.9591600000000005  0.11543  0.8392299999999998  1.0000
  H   H22       1.0  0.28861999999999993  0.10885  0.70991  1.0000
  H   H23       1.0  0.29964000000000013  0.90736  0.6843499999999998  1.0000
  H   H24       1.0  0.06882999999999993  0.57636  0.83169  1.0000
  H   H25       1.0  0.91242  0.5532400000000001  0.65206  1.0000
  H   H26       1.0  0.9381300000000004  0.7451000000000001  0.6216499999999998  1.0000
  H   H27       1.0  0.16115000000000013  0.40229  0.6039599999999998  1.0000
  H   H28       1.0  0.9652600000000005  0.22044  0.6617  1.0000
  H   H29       1.0  0.08243000000000007  0.19555  0.4911299999999999  1.0000
  H   H30       1.0  0.2834400000000001  0.56892  0.68826  1.0000
  H   H31       1.0  0.29680000000000006  0.77164  0.8494699999999997  1.0000
  H   H32       1.0  0.5086500000000003  0.5717  0.82146  1.0000
  H   H33       1.0  0.19568000000000013  0.67038  0.5586199999999998  1.0000
  H   H34       1.0  0.12069  0.00356  0.58116  1.0000
  H   H35       1.0  0.25995  0.92673  0.4191999999999999  1.0000
  H   H36       1.0  0.38501  0.31755  0.03121  1.0000
  H   H37       1.0  0.5069400000000001  0.68979  0.9679799999999997  1.0000
  H   H38       1.0  0.21877999999999997  0.5881900000000001  0.20120999999999994  1.0000
  H   H39       1.0  0.9010700000000001  0.67933  0.3980299999999999  1.0000
  H   H40       1.0  0.07839000000000004  0.66802  0.46128999999999987  1.0000
  H   H41       1.0  0.040150000000000005  0.43474  0.021019999999999994  1.0000
  H   H42       1.0  0.6938100000000003  0.71101  0.06293  1.0000
  H   H43       1.0  0.7391400000000001  0.59213  0.9214099999999997  1.0000
  H   H44       1.0  0.6598800000000001  0.60528  0.19797  1.0000
  H   H45       1.0  0.6853999999999999  0.7976600000000001  0.3608999999999999  1.0000
  H   H46       1.0  0.47929  0.7755700000000002  0.4316599999999999  1.0000
  H   H47       1.0  0.9778400000000004  0.8497800000000001  0.2719  1.0000
  H   H48       1.0  0.6634899999999999  0.9243700000000002  0.20606999999999995  1.0000
  H   H49       1.0  0.6594700000000002  0.12208  0.23108999999999993  1.0000
  H   H50       1.0  0.9214500000000003  0.7112200000000001  0.9462899999999997  1.0000
  H   H51       1.0  0.9747300000000003  0.8903700000000001  0.10327  1.0000
  H   H52       1.0  0.03631000000000002  0.9532100000000001  0.93788  1.0000
  H   H53       1.0  0.19324  0.38048  0.15325999999999995  1.0000
  H   H54       1.0  0.15704000000000007  0.65571  0.9887399999999997  1.0000
  H   H55       1.0  0.3772  0.4767200000000001  0.9254899999999998  1.0000
  H   H56       1.0  0.07265999999999985  0.8862300000000002  0.3391699999999999  1.0000
  H   H57       1.0  0.3961100000000002  0.89159  0.20989999999999995  1.0000
  H   H58       1.0  0.2061300000000001  0.09356000000000003  0.18458  1.0000
  H   H59       1.0  0.6455899999999999  0.4222400000000001  0.33234999999999987  1.0000
  H   H60       1.0  0.46691999999999995  0.4466000000000001  0.15142999999999995  1.0000
  H   H61       1.0  0.68327  0.25351  0.12223999999999997  1.0000
  H   H62       1.0  0.56385  0.5973200000000001  0.10433999999999997  1.0000
  H   H63       1.0  0.18525999999999995  0.77975  0.16187  1.0000
  H   H64       1.0  0.27786  0.8044400000000003  0.9908699999999998  1.0000
  H   H65       1.0  0.8533900000000002  0.43024000000000007  0.18845999999999993  1.0000
  H   H66       1.0  0.06939999999999996  0.22795  0.3504  1.0000
  H   H67       1.0  0.08114999999999993  0.4282900000000001  0.32122  1.0000
  H   H68       1.0  0.8664600000000002  0.32963  0.057509999999999985  1.0000
  H   H69       1.0  0.12459999999999996  0.9957900000000001  0.07973  1.0000
  H   H70       1.0  0.18823000000000006  0.07377  0.9179799999999998  1.0000
  C   C1        1.0  0.7678700000000002  0.38765000000000005  0.76367  1.0000
  C   C2        1.0  0.6515799999999999  0.34221000000000007  0.86613  1.0000
  C   C3        1.0  0.7349300000000002  0.34678000000000003  0.8977199999999997  1.0000
  C   C4        1.0  0.44565  0.50547  0.51352  1.0000
  C   C5        1.0  0.4078200000000001  0.3647100000000001  0.53426  1.0000
  C   C6        1.0  0.37110000000000004  0.4235300000000001  0.46393  1.0000
  C   C7        1.0  0.2924  0.3456900000000001  0.75234  1.0000
  C   C8        1.0  0.4031500000000001  0.24733  0.8381199999999998  1.0000
  C   C9        1.0  0.2895300000000001  0.25809  0.87292  1.0000
  C   C10       1.0  0.7898600000000002  0.10243000000000002  0.7572499999999998  1.0000
  C   C11       1.0  0.6679700000000001  0.06177  0.7230699999999998  1.0000
  C   C12       1.0  0.7650799999999999  0.9631200000000002  0.7351799999999997  1.0000
  C   C13       1.0  0.7128200000000001  0.23327000000000006  0.4675499999999999  1.0000
  C   C14       1.0  0.8343000000000003  0.13979  0.5473899999999998  1.0000
  C   C15       1.0  0.8972100000000002  0.10866000000000002  0.4640499999999999  1.0000
  C   C16       1.0  0.64413  0.56823  0.60027  1.0000
  C   C17       1.0  0.7698200000000002  0.42862  0.5133  1.0000
  C   C18       1.0  0.79157  0.51631  0.4815799999999999  1.0000
  C   C19       1.0  0.05021000000000001  0.08613  0.79976  1.0000
  C   C20       1.0  0.22159999999999996  0.08041  0.73279  1.0000
  C   C21       1.0  0.22686999999999985  0.9806500000000002  0.71971  1.0000
  C   C22       1.0  0.029500000000000047  0.59628  0.7785999999999997  1.0000
  C   C23       1.0  0.9488100000000002  0.58608  0.68537  1.0000
  C   C24       1.0  0.9616499999999999  0.6817000000000002  0.6700599999999998  1.0000
  C   C25       1.0  0.12328999999999996  0.3493300000000001  0.59918  1.0000
  C   C26       1.0  0.023230000000000115  0.25521  0.6250299999999998  1.0000
  C   C27       1.0  0.08183999999999998  0.2407  0.54007  1.0000
  C   C28       1.0  0.31616  0.59699  0.7281599999999998  1.0000
  C   C29       1.0  0.32496  0.7  0.8117799999999997  1.0000
  C   C30       1.0  0.43057000000000006  0.60102  0.7975599999999998  1.0000
  C   C31       1.0  0.19382  0.7508100000000001  0.5425699999999998  1.0000
  C   C32       1.0  0.15605000000000033  0.9225800000000001  0.5530199999999997  1.0000
  C   C33       1.0  0.2264400000000002  0.8837  0.4719599999999999  1.0000
  C   C34       1.0  0.15627000000000002  0.6121100000000002  0.2635099999999999  1.0000
  C   C35       1.0  0.9939400000000004  0.6576100000000001  0.36615  1.0000
  C   C36       1.0  0.08204999999999996  0.65331  0.3975199999999999  1.0000
  C   C37       1.0  0.95144  0.49377000000000004  0.013549999999999996  1.0000
  C   C38       1.0  0.7722300000000005  0.6351  0.03424999999999999  1.0000
  C   C39       1.0  0.7946400000000002  0.57663  0.9637499999999998  1.0000
  C   C40       1.0  0.63836  0.65499  0.25190999999999997  1.0000
  C   C41       1.0  0.6504999999999999  0.7528100000000001  0.33789999999999987  1.0000
  C   C42       1.0  0.54767  0.74229  0.3728  1.0000
  C   C43       1.0  0.8926200000000001  0.89716  0.25635999999999987  1.0000
  C   C44       1.0  0.72905  0.9379400000000001  0.22286  1.0000
  C   C45       1.0  0.7274100000000001  0.03628  0.23434999999999995  1.0000
  C   C46       1.0  0.9450700000000002  0.7677600000000001  0.9664799999999998  1.0000
  C   C47       1.0  0.9749199999999999  0.85969  0.04622  1.0000
  C   C48       1.0  0.0054099999999999955  0.8916400000000002  0.9632099999999998  1.0000
  C   C49       1.0  0.21133  0.43226  0.10114999999999998  1.0000
  C   C50       1.0  0.19670000000000004  0.57229  0.014309999999999996  1.0000
  C   C51       1.0  0.30692  0.4841300000000001  0.9819899999999998  1.0000
  C   C52       1.0  0.13426000000000002  0.9155700000000002  0.29981999999999986  1.0000
  C   C53       1.0  0.30027000000000004  0.92023  0.23297999999999994  1.0000
  C   C54       1.0  0.20554  0.02079  0.22012  1.0000
  C   C55       1.0  0.62649  0.40194000000000013  0.2792499999999999  1.0000
  C   C56       1.0  0.53584  0.41344000000000003  0.18529  1.0000
  C   C57       1.0  0.6436700000000001  0.31678  0.17064999999999994  1.0000
  C   C58       1.0  0.47284  0.65051  0.09945  1.0000
  C   C59       1.0  0.27794  0.7449700000000001  0.1252  1.0000
  C   C60       1.0  0.32204  0.7595800000000003  0.04005  1.0000
  C   C61       1.0  0.91409  0.40234  0.22851999999999995  1.0000
  C   C62       1.0  0.02608000000000002  0.29977  0.31261  1.0000
  C   C63       1.0  0.03269000000000001  0.39844  0.29775  1.0000
  C   C64       1.0  0.9453000000000001  0.24902000000000002  0.04131999999999999  1.0000
  C   C65       1.0  0.07883000000000001  0.07684  0.05143  1.0000
  C   C66       1.0  0.11111000000000006  0.11624  0.9707099999999997  1.0000
  N   N1        1.0  0.6729600000000002  0.3680500000000001  0.77994  1.0000
  N   N2        1.0  0.8100500000000002  0.37533000000000005  0.8319799999999998  1.0000
  N   N3        1.0  0.45504000000000006  0.41739  0.56652  1.0000
  N   N4        1.0  0.39491999999999994  0.5133500000000001  0.4505999999999999  1.0000
  N   N5        1.0  0.40539000000000003  0.30336  0.76056  1.0000
  N   N6        1.0  0.21846000000000007  0.32059000000000004  0.8179599999999998  1.0000
  N   N7        1.0  0.6829600000000003  0.15059000000000003  0.7375  1.0000
  N   N8        1.0  0.8437600000000006  0.98883  0.7566999999999998  1.0000
  N   N9        1.0  0.71657  0.21950000000000003  0.55009  1.0000
  N   N10       1.0  0.8194500000000002  0.16823000000000002  0.41289  1.0000
  N   N11       1.0  0.6769700000000001  0.4617600000000001  0.58778  1.0000
  N   N12       1.0  0.71232  0.60369  0.53756  1.0000
  N   N13       1.0  0.10911000000000001  0.14714000000000002  0.7841  1.0000
  N   N14       1.0  0.11729999999999999  0.9842100000000003  0.76204  1.0000
  N   N15       1.0  0.9929200000000005  0.5309  0.7545499999999998  1.0000
  N   N16       1.0  0.013309999999999933  0.6886  0.72971  1.0000
  N   N17       1.0  0.048559999999999964  0.32354000000000005  0.66144  1.0000
  N   N18       1.0  0.14517999999999998  0.30094000000000004  0.52454  1.0000
  N   N19       1.0  0.2516899999999999  0.6974900000000003  0.76746  1.0000
  N   N20       1.0  0.42519000000000046  0.53511  0.7439299999999998  1.0000
  N   N21       1.0  0.13482000000000005  0.8375600000000001  0.5983599999999998  1.0000
  N   N22       1.0  0.25061  0.7744400000000001  0.46497  1.0000
  N   N23       1.0  0.04158999999999996  0.63133  0.28004  1.0000
  N   N24       1.0  0.186  0.62487  0.33179  1.0000
  N   N25       1.0  0.8725100000000002  0.58186  0.06662999999999997  1.0000
  N   N26       1.0  0.90878  0.48624  0.9505499999999998  1.0000
  N   N27       1.0  0.7085800000000003  0.69734  0.2599999999999999  1.0000
  N   N28       1.0  0.5393700000000003  0.68003  0.31795  1.0000
  N   N29       1.0  0.8337200000000003  0.84912  0.23729999999999996  1.0000
  N   N30       1.0  0.83218  0.010770000000000002  0.25541  1.0000
  N   N31       1.0  0.9366400000000001  0.78064  0.048829999999999985  1.0000
  N   N32       1.0  0.9858300000000001  0.8331200000000001  0.9120999999999998  1.0000
  N   N33       1.0  0.13726000000000005  0.53908  0.08882  1.0000
  N   N34       1.0  0.31571999999999995  0.3961100000000001  0.03791  1.0000
  N   N35       1.0  0.25468000000000024  0.85365  0.2840199999999999  1.0000
  N   N36       1.0  0.09895000000000007  0.018020000000000005  0.26262999999999986  1.0000
  N   N37       1.0  0.5249800000000001  0.46836  0.25441999999999987  1.0000
  N   N38       1.0  0.7020100000000002  0.30901000000000006  0.23088999999999996  1.0000
  N   N39       1.0  0.37224  0.67641  0.16163999999999995  1.0000
  N   N40       1.0  0.44642000000000004  0.69898  0.024529999999999993  1.0000
  N   N41       1.0  0.9504200000000003  0.30205  0.2685  1.0000
  N   N42       1.0  0.9611700000000002  0.46416  0.24378999999999995  1.0000
  N   N43       1.0  0.9724100000000002  0.16192  0.09681999999999998  1.0000
  N   N44       1.0  0.02608000000000009  0.22596  0.9639599999999998  1.0000
