data_image0
_chemical_formula_structural       Co4H64C96N8O16
_chemical_formula_sum              "Co4 H64 C96 N8 O16"
_cell_length_a       9.57602
_cell_length_b       11.38493
_cell_length_c       25.98688
_cell_angle_alpha    87.35488
_cell_angle_beta     83.58164
_cell_angle_gamma    65.08109

_symmetry_space_group_name_H-M    'P 1'
_symmetry_Int_Tables_number       1

loop_
  _symmetry_equiv_pos_as_xyz
  'x,y,z'

loop_
  _atom_site_type_symbol
  _atom_site_label
  _atom_site_symmetry_multiplicity
  _atom_site_fract_x
  _atom_site_fract_y
  _atom_site_fract_z
  _atom_site_occupancy
  Co  Co1       1.0  0.10080999999999994  0.6047400000000002  0.95639  1.0000
  Co  Co2       1.0  0.29464  0.60469  0.54312  1.0000
  Co  Co3       1.0  0.89919  0.39525000000000005  0.04361000000000002  1.0000
  Co  Co4       1.0  0.70536  0.39530000000000004  0.45689  1.0000
  H   H1        1.0  0.50375  0.72177  0.9017800000000001  1.0000
  H   H2        1.0  0.69014  0.74893  0.8348300000000002  1.0000
  H   H3        1.0  0.3986000000000001  0.76006  0.71775  1.0000
  H   H4        1.0  0.22022  0.72238  0.7849000000000003  1.0000
  H   H5        1.0  0.96017  0.49483  0.15741000000000005  1.0000
  H   H6        1.0  0.010499999999999992  0.52057  0.24695  1.0000
  H   H7        1.0  0.34873000000000004  0.6614  0.18668  1.0000
  H   H8        1.0  0.28745000000000004  0.64759  0.09732000000000002  1.0000
  H   H9        1.0  0.9821199999999999  0.8562200000000001  0.02075  1.0000
  H   H10       1.0  0.7699  0.07864  0.02169  1.0000
  H   H11       1.0  0.60263  0.95694  0.8947900000000002  1.0000
  H   H12       1.0  0.8222499999999998  0.74132  0.9003700000000002  1.0000
  H   H13       1.0  0.61785  0.26317  0.010830000000000003  1.0000
  H   H14       1.0  0.39461  0.47442  0.00698  1.0000
  H   H15       1.0  0.20714000000000005  0.3454  0.89843  1.0000
  H   H16       1.0  0.4137  0.12412000000000001  0.9000500000000002  1.0000
  H   H17       1.0  0.77418  0.72162  0.59815  1.0000
  H   H18       1.0  0.5609299999999999  0.7490000000000001  0.66526  1.0000
  H   H19       1.0  0.8424099999999998  0.75971  0.78201  1.0000
  H   H20       1.0  0.05825000000000002  0.72184  0.7147100000000002  1.0000
  H   H21       1.0  0.54534  0.49455  0.3422  1.0000
  H   H22       1.0  0.4689999999999998  0.52051  0.25266  1.0000
  H   H23       1.0  0.9898999999999999  0.66123  0.3131600000000001  1.0000
  H   H24       1.0  0.06527  0.64694  0.40249  1.0000
  H   H25       1.0  0.16184999999999997  0.8558800000000001  0.4790800000000001  1.0000
  H   H26       1.0  0.1517  0.07818  0.47827  1.0000
  H   H27       1.0  0.44018000000000007  0.95659  0.60526  1.0000
  H   H28       1.0  0.43613000000000013  0.7411  0.59955  1.0000
  H   H29       1.0  0.11885999999999998  0.26249  0.48929  1.0000
  H   H30       1.0  0.13078999999999988  0.47362000000000004  0.4929100000000001  1.0000
  H   H31       1.0  0.44727  0.34545  0.60144  1.0000
  H   H32       1.0  0.4620399999999999  0.12422000000000001  0.6000100000000002  1.0000
  H   H33       1.0  0.4962500000000001  0.27822  0.09822  1.0000
  H   H34       1.0  0.30986  0.25106000000000006  0.16517  1.0000
  H   H35       1.0  0.6014000000000002  0.23993  0.28225000000000006  1.0000
  H   H36       1.0  0.7797800000000003  0.27761  0.2151  1.0000
  H   H37       1.0  0.039830000000000025  0.50516  0.8426  1.0000
  H   H38       1.0  0.9895  0.47942  0.75305  1.0000
  H   H39       1.0  0.65127  0.33859  0.81332  1.0000
  H   H40       1.0  0.7125500000000001  0.3524  0.9026800000000001  1.0000
  H   H41       1.0  0.01787999999999998  0.14377  0.97925  1.0000
  H   H42       1.0  0.2300999999999998  0.9213500000000001  0.97831  1.0000
  H   H43       1.0  0.3973699999999999  0.04305  0.10521000000000003  1.0000
  H   H44       1.0  0.17774999999999994  0.25867  0.09963  1.0000
  H   H45       1.0  0.38215000000000005  0.73682  0.98917  1.0000
  H   H46       1.0  0.6053899999999999  0.5255700000000001  0.99302  1.0000
  H   H47       1.0  0.79286  0.65459  0.10157  1.0000
  H   H48       1.0  0.5863000000000003  0.87587  0.09995  1.0000
  H   H49       1.0  0.22581999999999997  0.27837000000000006  0.4018500000000001  1.0000
  H   H50       1.0  0.43906999999999996  0.25099  0.33474  1.0000
  H   H51       1.0  0.15759  0.24028  0.21799000000000002  1.0000
  H   H52       1.0  0.9417499999999998  0.27814  0.28529000000000004  1.0000
  H   H53       1.0  0.45465999999999995  0.5054400000000001  0.6578  1.0000
  H   H54       1.0  0.5310000000000001  0.47948  0.74734  1.0000
  H   H55       1.0  0.010099999999999967  0.33876  0.6868400000000001  1.0000
  H   H56       1.0  0.93473  0.35305000000000003  0.59752  1.0000
  H   H57       1.0  0.8381500000000002  0.14411  0.52092  1.0000
  H   H58       1.0  0.8483  0.92181  0.52173  1.0000
  H   H59       1.0  0.55982  0.0434  0.39474  1.0000
  H   H60       1.0  0.56387  0.25889  0.4004500000000001  1.0000
  H   H61       1.0  0.88114  0.7375  0.5107100000000001  1.0000
  H   H62       1.0  0.86921  0.52637  0.50709  1.0000
  H   H63       1.0  0.55273  0.65454  0.39856000000000014  1.0000
  H   H64       1.0  0.5379599999999999  0.87577  0.39999  1.0000
  C   C1        1.0  0.24916999999999997  0.6835300000000001  0.88697  1.0000
  C   C2        1.0  0.35021  0.7186400000000001  0.8476800000000001  1.0000
  C   C3        1.0  0.48111000000000004  0.73092  0.86135  1.0000
  C   C4        1.0  0.5853199999999998  0.74764  0.82326  1.0000
  C   C5        1.0  0.56185  0.75577  0.77038  1.0000
  C   C6        1.0  0.4241999999999999  0.75206  0.7577700000000003  1.0000
  C   C7        1.0  0.32200000000000006  0.73152  0.79549  1.0000
  C   C8        1.0  0.09206  0.5537  0.06787  1.0000
  C   C9        1.0  0.12106  0.56979  0.12162000000000002  1.0000
  C   C10       1.0  0.04217000000000002  0.53463  0.16401  1.0000
  C   C11       1.0  0.07049  0.54901  0.21420000000000006  1.0000
  C   C12       1.0  0.18375000000000002  0.59173  0.22328  1.0000
  C   C13       1.0  0.26211999999999996  0.62664  0.18047000000000005  1.0000
  C   C14       1.0  0.22895999999999997  0.61841  0.13034  1.0000
  C   C15       1.0  0.8948399999999997  0.88407  0.9936100000000002  1.0000
  C   C16       1.0  0.7752399999999998  0.008000000000000002  0.9937700000000002  1.0000
  C   C17       1.0  0.6649499999999998  0.03947  0.9579500000000002  1.0000
  C   C18       1.0  0.68238  0.9409900000000001  0.9237600000000002  1.0000
  C   C19       1.0  0.8050399999999999  0.8198500000000001  0.92621  1.0000
  C   C20       1.0  0.5365999999999999  0.17057  0.9560500000000002  1.0000
  C   C21       1.0  0.52937  0.2735  0.98573  1.0000
  C   C22       1.0  0.40513999999999994  0.39398  0.9834500000000003  1.0000
  C   C23       1.0  0.29887999999999987  0.32214  0.9234900000000001  1.0000
  C   C24       1.0  0.41705999999999993  0.19800000000000004  0.9242900000000002  1.0000
  C   C25       1.0  0.06538  0.68421  0.61174  1.0000
  C   C26       1.0  0.9311999999999999  0.71843  0.65189  1.0000
  C   C27       1.0  0.7877299999999999  0.7307200000000001  0.63857  1.0000
  C   C28       1.0  0.6671399999999997  0.74751  0.6767800000000002  1.0000
  C   C29       1.0  0.68303  0.7556200000000001  0.7296200000000002  1.0000
  C   C30       1.0  0.82477  0.7515800000000001  0.7420000000000001  1.0000
  C   C31       1.0  0.94737  0.7309  0.70409  1.0000
  C   C32       1.0  0.3539399999999998  0.55375  0.43194  1.0000
  C   C33       1.0  0.30952000000000013  0.56922  0.37813  1.0000
  C   C34       1.0  0.42346000000000006  0.5343  0.33566  1.0000
  C   C35       1.0  0.3806100000000001  0.54879  0.28547  1.0000
  C   C36       1.0  0.22453000000000004  0.59157  0.27644  1.0000
  C   C37       1.0  0.11135999999999996  0.62633  0.31933  1.0000
  C   C38       1.0  0.1529399999999998  0.6179100000000001  0.36944  1.0000
  C   C39       1.0  0.2211699999999998  0.8838000000000001  0.5062600000000002  1.0000
  C   C40       1.0  0.21694999999999995  0.007590000000000001  0.50618  1.0000
  C   C41       1.0  0.29556  0.03912  0.54207  1.0000
  C   C42       1.0  0.3764899999999999  0.9406500000000001  0.57624  1.0000
  C   C43       1.0  0.37491999999999986  0.8196100000000001  0.5737200000000001  1.0000
  C   C44       1.0  0.29271999999999987  0.17022  0.54404  1.0000
  C   C45       1.0  0.19696999999999995  0.27296  0.51435  1.0000
  C   C46       1.0  0.20073999999999997  0.39339  0.51649  1.0000
  C   C47       1.0  0.37878999999999996  0.32204000000000005  0.57642  1.0000
  C   C48       1.0  0.38475000000000004  0.19793  0.57574  1.0000
  C   C49       1.0  0.75083  0.31646  0.11303  1.0000
  C   C50       1.0  0.64979  0.28135  0.15232000000000004  1.0000
  C   C51       1.0  0.51889  0.26907  0.13865  1.0000
  C   C52       1.0  0.41467999999999994  0.2523500000000001  0.17674  1.0000
  C   C53       1.0  0.43814999999999993  0.24422000000000002  0.22962000000000002  1.0000
  C   C54       1.0  0.5758  0.24793  0.24223  1.0000
  C   C55       1.0  0.6780000000000002  0.26847  0.20451  1.0000
  C   C56       1.0  0.9079399999999999  0.44629  0.9321300000000001  1.0000
  C   C57       1.0  0.8789400000000003  0.4302  0.87838  1.0000
  C   C58       1.0  0.95783  0.46536  0.8359900000000002  1.0000
  C   C59       1.0  0.92951  0.45098000000000005  0.7858  1.0000
  C   C60       1.0  0.8162499999999997  0.40826000000000007  0.7767200000000002  1.0000
  C   C61       1.0  0.73788  0.37335000000000007  0.81953  1.0000
  C   C62       1.0  0.77104  0.38158000000000003  0.8696600000000002  1.0000
  C   C63       1.0  0.10516000000000002  0.11592  0.006390000000000002  1.0000
  C   C64       1.0  0.22475999999999993  0.9919900000000001  0.00623  1.0000
  C   C65       1.0  0.3350499999999999  0.9605200000000002  0.04205  1.0000
  C   C66       1.0  0.31762  0.059  0.07624  1.0000
  C   C67       1.0  0.19496000000000002  0.18014  0.07379  1.0000
  C   C68       1.0  0.46339999999999987  0.8294200000000002  0.04395  1.0000
  C   C69       1.0  0.47062999999999994  0.72649  0.014270000000000003  1.0000
  C   C70       1.0  0.59485  0.60601  0.01655  1.0000
  C   C71       1.0  0.7011200000000001  0.67785  0.07651  1.0000
  C   C72       1.0  0.58294  0.80199  0.07571  1.0000
  C   C73       1.0  0.9346099999999998  0.31578  0.3882600000000001  1.0000
  C   C74       1.0  0.06879999999999997  0.28156  0.3481100000000001  1.0000
  C   C75       1.0  0.21226999999999996  0.26927  0.36143  1.0000
  C   C76       1.0  0.33285999999999993  0.25248  0.3232200000000001  1.0000
  C   C77       1.0  0.31697  0.24437  0.27038  1.0000
  C   C78       1.0  0.17523  0.24841  0.258  1.0000
  C   C79       1.0  0.052629999999999955  0.26909000000000005  0.29591  1.0000
  C   C80       1.0  0.6460599999999999  0.4462400000000001  0.56807  1.0000
  C   C81       1.0  0.69048  0.43077  0.62187  1.0000
  C   C82       1.0  0.5765400000000002  0.46569  0.66434  1.0000
  C   C83       1.0  0.6193899999999999  0.45120000000000005  0.71453  1.0000
  C   C84       1.0  0.77547  0.40842  0.7235600000000001  1.0000
  C   C85       1.0  0.8886399999999999  0.37366000000000005  0.68067  1.0000
  C   C86       1.0  0.8470599999999998  0.38208000000000003  0.63056  1.0000
  C   C87       1.0  0.7788300000000001  0.11619  0.49374  1.0000
  C   C88       1.0  0.7830499999999999  0.9924  0.49382  1.0000
  C   C89       1.0  0.70444  0.96087  0.4579300000000001  1.0000
  C   C90       1.0  0.6235099999999998  0.059340000000000004  0.4237600000000001  1.0000
  C   C91       1.0  0.6250899999999999  0.18038000000000004  0.42628  1.0000
  C   C92       1.0  0.7072800000000001  0.82977  0.45596  1.0000
  C   C93       1.0  0.8030299999999999  0.72703  0.48565  1.0000
  C   C94       1.0  0.79926  0.6066  0.4835100000000001  1.0000
  C   C95       1.0  0.62121  0.67795  0.4235800000000001  1.0000
  C   C96       1.0  0.6152499999999999  0.8020600000000001  0.4242600000000001  1.0000
  N   N1        1.0  0.9106299999999998  0.7906500000000001  0.9604100000000001  1.0000
  N   N2        1.0  0.29025999999999996  0.4194700000000001  0.95313  1.0000
  N   N3        1.0  0.29873  0.7904000000000001  0.53943  1.0000
  N   N4        1.0  0.29026  0.41911  0.54666  1.0000
  N   N5        1.0  0.08936999999999999  0.20934  0.03959  1.0000
  N   N6        1.0  0.70974  0.58052  0.04687  1.0000
  N   N7        1.0  0.7012700000000001  0.20959  0.46057  1.0000
  N   N8        1.0  0.7097399999999999  0.5808800000000001  0.4533400000000001  1.0000
  O   O1        1.0  0.25059000000000003  0.70229  0.93526  1.0000
  O   O2        1.0  0.16555999999999996  0.63073  0.8728200000000003  1.0000
  O   O3        1.0  0.11935  0.62555  0.0325  1.0000
  O   O4        1.0  0.043329999999999994  0.46874000000000005  0.059740000000000015  1.0000
  O   O5        1.0  0.04302  0.70348  0.56367  1.0000
  O   O6        1.0  0.2030099999999999  0.63085  0.6250000000000002  1.0000
  O   O7        1.0  0.25399999999999995  0.62618  0.46709000000000006  1.0000
  O   O8        1.0  0.48731  0.4686  0.44038000000000005  1.0000
  O   O9        1.0  0.74941  0.2977000000000001  0.06474  1.0000
  O   O10       1.0  0.83444  0.36926  0.12718  1.0000
  O   O11       1.0  0.8806499999999998  0.37444  0.9675  1.0000
  O   O12       1.0  0.9566699999999998  0.53125  0.94026  1.0000
  O   O13       1.0  0.9569799999999999  0.29651  0.4363300000000001  1.0000
  O   O14       1.0  0.79698  0.3691400000000001  0.375  1.0000
  O   O15       1.0  0.74599  0.37381  0.53291  1.0000
  O   O16       1.0  0.5126900000000003  0.53139  0.55962  1.0000
