data_image0
_chemical_formula_structural       Mn6Cr4H48C84N36
_chemical_formula_sum              "Mn6 Cr4 H48 C84 N36"
_cell_length_a       11.69595
_cell_length_b       16.01439
_cell_length_c       18.28651
_cell_angle_alpha    90.01791
_cell_angle_beta     90.0
_cell_angle_gamma    90.0

_space_group_name_H-M_alt    "P 1"
_space_group_IT_number       1

loop_
  _space_group_symop_operation_xyz
  'x, y, z'

loop_
  _atom_site_type_symbol
  _atom_site_label
  _atom_site_symmetry_multiplicity
  _atom_site_fract_x
  _atom_site_fract_y
  _atom_site_fract_z
  _atom_site_occupancy
  Mn  Mn1       1.0  0.5  0.88658  0.1648  1.0000
  Mn  Mn2       1.0  0.5  0.1138  0.83523  1.0000
  Mn  Mn3       1.0  0.5  0.61364  0.66477  1.0000
  Mn  Mn4       1.0  0.5  0.38631  0.33515  1.0000
  Mn  Mn5       1.0  0.5  0.5012599999999998  0.0019499999999999997  1.0000
  Mn  Mn6       1.0  0.5  0.9987599999999999  0.5019  1.0000
  Cr  Cr1       1.0  0.5  0.7991  0.88938  1.0000
  Cr  Cr2       1.0  0.5  0.20193999999999995  0.11052999999999999  1.0000
  Cr  Cr3       1.0  0.5  0.70135  0.3893  1.0000
  Cr  Cr4       1.0  0.5  0.2986  0.61056  1.0000
  H   H1        1.0  0.7059  0.8033899999999998  0.26272  1.0000
  H   H2        1.0  0.91317  0.80432  0.27117  1.0000
  H   H3        1.0  0.9140100000000001  0.9990699999999999  0.10561999999999999  1.0000
  H   H4        1.0  0.70457  0.99064  0.10566  1.0000
  H   H5        1.0  0.70622  0.61984  0.9555799999999999  1.0000
  H   H6        1.0  0.91348  0.6255299999999998  0.95408  1.0000
  H   H7        1.0  0.7059500000000001  0.19673  0.7372999999999998  1.0000
  H   H8        1.0  0.9132  0.19570999999999994  0.7288  1.0000
  H   H9        1.0  0.9139700000000001  0.0009499999999999997  0.8943599999999999  1.0000
  H   H10       1.0  0.70454  0.00948  0.89435  1.0000
  H   H11       1.0  0.70619  0.37999  0.04404  1.0000
  H   H12       1.0  0.9134500000000001  0.37444  0.04592  1.0000
  H   H13       1.0  0.294  0.69679  0.76231  1.0000
  H   H14       1.0  0.08674  0.6957599999999998  0.77079  1.0000
  H   H15       1.0  0.08602000000000001  0.50097  0.60518  1.0000
  H   H16       1.0  0.29546  0.5095299999999998  0.60519  1.0000
  H   H17       1.0  0.29374  0.88002  0.4557800000000001  1.0000
  H   H18       1.0  0.08650000000000001  0.8744599999999998  0.45399999999999996  1.0000
  H   H19       1.0  0.29401  0.30324  0.23763  1.0000
  H   H20       1.0  0.08676  0.30423  0.22918  1.0000
  H   H21       1.0  0.08605  0.499  0.39482  1.0000
  H   H22       1.0  0.29549  0.4904699999999999  0.39476999999999995  1.0000
  H   H23       1.0  0.29378  0.11989  0.54433  1.0000
  H   H24       1.0  0.08653  0.12559  0.5459  1.0000
  H   H25       1.0  0.29406  0.19673  0.7372999999999998  1.0000
  H   H26       1.0  0.0868  0.19570999999999994  0.7288  1.0000
  H   H27       1.0  0.08603  0.0009499999999999997  0.8943599999999999  1.0000
  H   H28       1.0  0.29546  0.00948  0.89435  1.0000
  H   H29       1.0  0.29381  0.37999  0.04404  1.0000
  H   H30       1.0  0.08656  0.37444  0.04592  1.0000
  H   H31       1.0  0.2941  0.8033899999999998  0.26272  1.0000
  H   H32       1.0  0.08683000000000002  0.80432  0.27117  1.0000
  H   H33       1.0  0.08599  0.9990699999999999  0.10561999999999999  1.0000
  H   H34       1.0  0.29543  0.99064  0.10566  1.0000
  H   H35       1.0  0.29378  0.61984  0.9555799999999999  1.0000
  H   H36       1.0  0.08652000000000001  0.6255299999999998  0.95408  1.0000
  H   H37       1.0  0.7059900000000001  0.30324  0.23763  1.0000
  H   H38       1.0  0.91324  0.30423  0.22918  1.0000
  H   H39       1.0  0.91395  0.499  0.39482  1.0000
  H   H40       1.0  0.7045100000000001  0.4904699999999999  0.39476999999999995  1.0000
  H   H41       1.0  0.70622  0.11989  0.54433  1.0000
  H   H42       1.0  0.91347  0.12559  0.5459  1.0000
  H   H43       1.0  0.7060000000000001  0.69679  0.76231  1.0000
  H   H44       1.0  0.91326  0.6957599999999998  0.77079  1.0000
  H   H45       1.0  0.91398  0.50097  0.60518  1.0000
  H   H46       1.0  0.70454  0.5095299999999998  0.60519  1.0000
  H   H47       1.0  0.70626  0.88002  0.4557800000000001  1.0000
  H   H48       1.0  0.9135  0.8744599999999998  0.45399999999999996  1.0000
  C   C1        1.0  0.6729600000000001  0.7883  0.88964  1.0000
  C   C2        1.0  0.75446  0.84579  0.22821999999999998  1.0000
  C   C3        1.0  0.8732  0.8467399999999998  0.23237  1.0000
  C   C4        1.0  0.93654  0.9007899999999998  0.18731  1.0000
  C   C5        1.0  0.8730000000000001  0.95374  0.14124  1.0000
  C   C6        1.0  0.75431  0.94938  0.14066  1.0000
  C   C7        1.0  0.75475  0.56649  0.9753  1.0000
  C   C8        1.0  0.8734500000000001  0.5689299999999998  0.97473  1.0000
  C   C9        1.0  0.67299  0.21229999999999993  0.11019999999999999  1.0000
  C   C10       1.0  0.7545  0.15432  0.77179  1.0000
  C   C11       1.0  0.8732300000000001  0.15331  0.7676  1.0000
  C   C12       1.0  0.93654  0.09922999999999997  0.8126599999999999  1.0000
  C   C13       1.0  0.87298  0.04629  0.85875  1.0000
  C   C14       1.0  0.7543000000000001  0.05072  0.85935  1.0000
  C   C15       1.0  0.75472  0.43332  0.02432  1.0000
  C   C16       1.0  0.8734300000000002  0.43105  0.02528  1.0000
  C   C17       1.0  0.32703  0.71198  0.38964  1.0000
  C   C18       1.0  0.24546000000000004  0.65438  0.7277999999999999  1.0000
  C   C19       1.0  0.12674  0.6533799999999997  0.73197  1.0000
  C   C20       1.0  0.06345  0.59929  0.68689  1.0000
  C   C21       1.0  0.127  0.54634  0.64079  1.0000
  C   C22       1.0  0.24568  0.5507699999999998  0.6402  1.0000
  C   C23       1.0  0.24522000000000005  0.93336  0.47555  1.0000
  C   C24       1.0  0.12652  0.93105  0.47469  1.0000
  C   C25       1.0  0.32703  0.28799  0.61029  1.0000
  C   C26       1.0  0.24548000000000003  0.34564  0.27215  1.0000
  C   C27       1.0  0.12675  0.3466199999999999  0.268  1.0000
  C   C28       1.0  0.06346  0.40069  0.3131  1.0000
  C   C29       1.0  0.12702  0.4536399999999999  0.35919  1.0000
  C   C30       1.0  0.24571000000000004  0.44923  0.35976  1.0000
  C   C31       1.0  0.24525  0.06654  0.5246  1.0000
  C   C32       1.0  0.12654  0.06895  0.52528  1.0000
  C   C33       1.0  0.32701  0.21229999999999993  0.11019999999999999  1.0000
  C   C34       1.0  0.24551  0.15432  0.77179  1.0000
  C   C35       1.0  0.12677  0.15331  0.7676  1.0000
  C   C36       1.0  0.06346  0.09922999999999997  0.8126599999999999  1.0000
  C   C37       1.0  0.12702  0.04629  0.85875  1.0000
  C   C38       1.0  0.24570000000000003  0.05072  0.85935  1.0000
  C   C39       1.0  0.24528  0.43332  0.02432  1.0000
  C   C40       1.0  0.12657  0.43105  0.02528  1.0000
  C   C41       1.0  0.32705  0.7883  0.88964  1.0000
  C   C42       1.0  0.24554  0.84579  0.22821999999999998  1.0000
  C   C43       1.0  0.1268  0.8467399999999998  0.23237  1.0000
  C   C44       1.0  0.06346  0.9007899999999998  0.18731  1.0000
  C   C45       1.0  0.127  0.95374  0.14124  1.0000
  C   C46       1.0  0.24569000000000002  0.94938  0.14066  1.0000
  C   C47       1.0  0.24525  0.56649  0.9753  1.0000
  C   C48       1.0  0.12655  0.5689299999999998  0.97473  1.0000
  C   C49       1.0  0.67297  0.28799  0.61029  1.0000
  C   C50       1.0  0.7545200000000001  0.34564  0.27215  1.0000
  C   C51       1.0  0.87325  0.3466199999999999  0.268  1.0000
  C   C52       1.0  0.93655  0.40069  0.3131  1.0000
  C   C53       1.0  0.87298  0.4536399999999999  0.35919  1.0000
  C   C54       1.0  0.7543000000000001  0.44923  0.35976  1.0000
  C   C55       1.0  0.75475  0.06654  0.5246  1.0000
  C   C56       1.0  0.87346  0.06895  0.52528  1.0000
  C   C57       1.0  0.67297  0.71198  0.38964  1.0000
  C   C58       1.0  0.75454  0.65438  0.7277999999999999  1.0000
  C   C59       1.0  0.8732600000000001  0.6533799999999997  0.73197  1.0000
  C   C60       1.0  0.93655  0.59929  0.68689  1.0000
  C   C61       1.0  0.8730000000000001  0.54634  0.64079  1.0000
  C   C62       1.0  0.75432  0.5507699999999998  0.6402  1.0000
  C   C63       1.0  0.7547800000000001  0.93336  0.47555  1.0000
  C   C64       1.0  0.8734800000000001  0.93105  0.47469  1.0000
  C   C65       1.0  0.5  0.84202  0.9935699999999998  1.0000
  C   C66       1.0  0.5  0.68144  0.9282999999999999  1.0000
  C   C67       1.0  0.5  0.75197  0.78748  1.0000
  C   C68       1.0  0.5  0.91578  0.84815  1.0000
  C   C69       1.0  0.5  0.15940999999999994  0.00619  1.0000
  C   C70       1.0  0.5  0.3212099999999999  0.07497  1.0000
  C   C71       1.0  0.5  0.24778999999999995  0.21287  1.0000
  C   C72       1.0  0.5  0.08493  0.15127  1.0000
  C   C73       1.0  0.5  0.65899  0.49361  1.0000
  C   C74       1.0  0.5  0.81971  0.42659  1.0000
  C   C75       1.0  0.5  0.74777  0.28711  1.0000
  C   C76       1.0  0.5  0.58454  0.34834  1.0000
  C   C77       1.0  0.5  0.34106  0.5063099999999999  1.0000
  C   C78       1.0  0.5  0.18  0.57367  1.0000
  C   C79       1.0  0.5  0.25232  0.71278  1.0000
  C   C80       1.0  0.5  0.41542  0.6515  1.0000
  C   C81       1.0  0.93659  0.5000099999999997  5.9999999999999995e-05  1.0000
  C   C82       1.0  0.06341  1.0000000000000004e-05  0.49998  1.0000
  C   C83       1.0  0.06341  0.5000099999999997  5.9999999999999995e-05  1.0000
  C   C84       1.0  0.93659  1.0000000000000004e-05  0.49998  1.0000
  N   N1        1.0  0.7716900000000001  0.7734199999999998  0.8893  1.0000
  N   N2        1.0  0.69431  0.8955699999999998  0.18268  1.0000
  N   N3        1.0  0.77184  0.22679  0.11059000000000001  1.0000
  N   N4        1.0  0.6943400000000001  0.10457  0.81735  1.0000
  N   N5        1.0  0.22825000000000004  0.7266999999999998  0.38937  1.0000
  N   N6        1.0  0.30562  0.60462  0.68223  1.0000
  N   N7        1.0  0.22824000000000003  0.2732799999999999  0.61056  1.0000
  N   N8        1.0  0.30565  0.3953899999999999  0.31772  1.0000
  N   N9        1.0  0.22817  0.22679  0.11059000000000001  1.0000
  N   N10       1.0  0.30566  0.10457  0.81735  1.0000
  N   N11       1.0  0.22831  0.7734199999999998  0.8893  1.0000
  N   N12       1.0  0.30569  0.8955699999999998  0.18268  1.0000
  N   N13       1.0  0.77176  0.2732799999999999  0.61056  1.0000
  N   N14       1.0  0.69436  0.3953899999999999  0.31772  1.0000
  N   N15       1.0  0.77176  0.7266999999999998  0.38937  1.0000
  N   N16       1.0  0.6943800000000001  0.60462  0.68223  1.0000
  N   N17       1.0  0.5  0.86296  0.055099999999999996  1.0000
  N   N18       1.0  0.5  0.61301  0.9515999999999999  1.0000
  N   N19       1.0  0.5  0.71763  0.73071  1.0000
  N   N20       1.0  0.5  0.9845099999999998  0.8257399999999998  1.0000
  N   N21       1.0  0.5  0.13782  0.94483  1.0000
  N   N22       1.0  0.5  0.3911999999999999  0.05544  1.0000
  N   N23       1.0  0.5  0.28177  0.26981  1.0000
  N   N24       1.0  0.5  0.01616  0.17358  1.0000
  N   N25       1.0  0.5  0.6378  0.55507  1.0000
  N   N26       1.0  0.5  0.88883  0.44833  1.0000
  N   N27       1.0  0.5  0.78192  0.23025  1.0000
  N   N28       1.0  0.5  0.51577  0.32596  1.0000
  N   N29       1.0  0.5  0.3623899999999999  0.44489  1.0000
  N   N30       1.0  0.5  0.11055  0.55272  1.0000
  N   N31       1.0  0.5  0.21824  0.7696699999999999  1.0000
  N   N32       1.0  0.5  0.48420999999999986  0.67384  1.0000
  N   N33       1.0  0.69446  0.49981999999999993  0.9996299999999999  1.0000
  N   N34       1.0  0.30550000000000005  0.9998899999999998  0.50018  1.0000
  N   N35       1.0  0.30555  0.49981999999999993  0.9996299999999999  1.0000
  N   N36       1.0  0.6945  0.9998899999999998  0.50018  1.0000
