data_image0
_chemical_formula_structural       Cd12Si4H48C100O48
_chemical_formula_sum              "Cd12 Si4 H48 C100 O48"
_cell_length_a       10.34297
_cell_length_b       13.26411
_cell_length_c       27.29974
_cell_angle_alpha    90.0
_cell_angle_beta     90.0
_cell_angle_gamma    102.0591

_space_group_name_H-M_alt    "P 1"
_space_group_IT_number       1

loop_
  _space_group_symop_operation_xyz
  'x, y, z'

loop_
  _atom_site_type_symbol
  _atom_site_label
  _atom_site_symmetry_multiplicity
  _atom_site_fract_x
  _atom_site_fract_y
  _atom_site_fract_z
  _atom_site_occupancy
  Cd  Cd1       1.0  0.97223  0.61546  0.9326399999999998  1.0000
  Cd  Cd2       1.0  0.69492  0.18213999999999997  0.10786999999999997  1.0000
  Cd  Cd3       1.0  0.78254  0.84524  0.81104  1.0000
  Cd  Cd4       1.0  0.52777  0.8845399999999999  0.43265  1.0000
  Cd  Cd5       1.0  0.80508  0.3178599999999999  0.6078699999999999  1.0000
  Cd  Cd6       1.0  0.71746  0.6547599999999998  0.3110499999999999  1.0000
  Cd  Cd7       1.0  0.027769999999999975  0.38454  0.06735  1.0000
  Cd  Cd8       1.0  0.30508  0.81786  0.89213  1.0000
  Cd  Cd9       1.0  0.21746  0.15476  0.18895  1.0000
  Cd  Cd10      1.0  0.47223  0.11545999999999998  0.5673499999999999  1.0000
  Cd  Cd11      1.0  0.19492  0.68214  0.39212999999999987  1.0000
  Cd  Cd12      1.0  0.28254  0.34524  0.6889499999999998  1.0000
  Si  Si1       1.0  0.35169  0.18816999999999995  0.9509499999999997  1.0000
  Si  Si2       1.0  0.14831  0.31182999999999994  0.45095999999999997  1.0000
  Si  Si3       1.0  0.6483100000000002  0.81183  0.049039999999999986  1.0000
  Si  Si4       1.0  0.85169  0.6881699999999998  0.54904  1.0000
  H   H1        1.0  0.4194300000000001  0.05096  0.9994099999999999  1.0000
  H   H2        1.0  0.39363  0.15274  0.03807  1.0000
  H   H3        1.0  0.54239  0.16725  0.0024699999999999995  1.0000
  H   H4        1.0  0.3376799999999999  0.27116  0.85265  1.0000
  H   H5        1.0  0.46399999999999997  0.05719  0.7556699999999997  1.0000
  H   H6        1.0  0.47168  0.00866  0.91193  1.0000
  H   H7        1.0  0.14916  0.06525  0.8852999999999998  1.0000
  H   H8        1.0  0.78715  0.0321  0.96481  1.0000
  H   H9        1.0  0.14544  0.21215999999999996  0.02656  1.0000
  H   H10       1.0  0.19930999999999996  0.36175999999999997  0.9422999999999999  1.0000
  H   H11       1.0  0.51251  0.62952  0.9277299999999998  1.0000
  H   H12       1.0  0.6082800000000002  0.33499  0.9532999999999998  1.0000
  H   H13       1.0  0.08057000000000003  0.44904  0.4994099999999999  1.0000
  H   H14       1.0  0.10636999999999999  0.34725999999999996  0.53806  1.0000
  H   H15       1.0  0.95761  0.33275  0.50247  1.0000
  H   H16       1.0  0.16232  0.22884  0.35265  1.0000
  H   H17       1.0  0.03599999999999997  0.4428099999999999  0.25567  1.0000
  H   H18       1.0  0.02831999999999999  0.49133999999999994  0.41193  1.0000
  H   H19       1.0  0.35083  0.43474999999999997  0.3853  1.0000
  H   H20       1.0  0.7128399999999999  0.4679099999999999  0.46481  1.0000
  H   H21       1.0  0.35455999999999993  0.28784  0.52655  1.0000
  H   H22       1.0  0.30069  0.13824  0.4423  1.0000
  H   H23       1.0  0.98749  0.8704799999999999  0.42772999999999994  1.0000
  H   H24       1.0  0.89171  0.16501  0.45329999999999987  1.0000
  H   H25       1.0  0.58057  0.94904  0.00059  1.0000
  H   H26       1.0  0.60637  0.84726  0.96193  1.0000
  H   H27       1.0  0.45761  0.83275  0.9975299999999998  1.0000
  H   H28       1.0  0.66232  0.72884  0.14735  1.0000
  H   H29       1.0  0.536  0.94281  0.24433  1.0000
  H   H30       1.0  0.52832  0.99134  0.08806999999999997  1.0000
  H   H31       1.0  0.8508299999999999  0.93475  0.1147  1.0000
  H   H32       1.0  0.21284999999999996  0.9678999999999998  0.03519  1.0000
  H   H33       1.0  0.85456  0.7878399999999998  0.97344  1.0000
  H   H34       1.0  0.80069  0.63824  0.05769999999999999  1.0000
  H   H35       1.0  0.4874899999999999  0.37048  0.07227  1.0000
  H   H36       1.0  0.39172  0.66501  0.046699999999999985  1.0000
  H   H37       1.0  0.91943  0.55096  0.50059  1.0000
  H   H38       1.0  0.89363  0.6527399999999998  0.46193  1.0000
  H   H39       1.0  0.04238999999999994  0.6672499999999998  0.49752999999999986  1.0000
  H   H40       1.0  0.8376799999999999  0.77116  0.64735  1.0000
  H   H41       1.0  0.964  0.55719  0.74433  1.0000
  H   H42       1.0  0.97168  0.50866  0.5880699999999998  1.0000
  H   H43       1.0  0.64916  0.56525  0.6147  1.0000
  H   H44       1.0  0.28716  0.53209  0.53519  1.0000
  H   H45       1.0  0.64544  0.71216  0.47343999999999997  1.0000
  H   H46       1.0  0.6993099999999999  0.8617599999999997  0.55769  1.0000
  H   H47       1.0  0.012509999999999995  0.12952  0.57226  1.0000
  H   H48       1.0  0.10828999999999994  0.8349899999999999  0.5466899999999999  1.0000
  C   C1        1.0  0.43543999999999994  0.13516999999999998  0.00279  1.0000
  C   C2        1.0  0.3996199999999999  0.14358  0.88927  1.0000
  C   C3        1.0  0.37511  0.20081  0.84833  1.0000
  C   C4        1.0  0.39609  0.16965999999999998  0.8004  1.0000
  C   C5        1.0  0.44560999999999995  0.08065  0.79276  1.0000
  C   C6        1.0  0.46957000000000004  0.02153  0.8330399999999998  1.0000
  C   C7        1.0  0.44695999999999997  0.053099999999999994  0.88092  1.0000
  C   C8        1.0  0.5247  0.9274399999999999  0.82447  1.0000
  C   C9        1.0  0.35983999999999994  0.23137999999999997  0.75853  1.0000
  C   C10       1.0  0.16677  0.14559  0.95514  1.0000
  C   C11       1.0  0.09798  0.08406  0.9177399999999998  1.0000
  C   C12       1.0  0.96251  0.04154999999999998  0.92127  1.0000
  C   C13       1.0  0.89208  0.06493  0.9617299999999998  1.0000
  C   C14       1.0  0.95753  0.12943  0.9987499999999999  1.0000
  C   C15       1.0  0.09475999999999997  0.16793999999999995  0.99592  1.0000
  C   C16       1.0  0.8973300000000001  0.96783  0.88281  1.0000
  C   C17       1.0  0.8794999999999998  0.15027  0.0414  1.0000
  C   C18       1.0  0.39765  0.33277999999999996  0.94861  1.0000
  C   C19       1.0  0.30478999999999995  0.3952  0.9422499999999998  1.0000
  C   C20       1.0  0.34549  0.50206  0.93529  1.0000
  C   C21       1.0  0.48051999999999995  0.54717  0.9338099999999998  1.0000
  C   C22       1.0  0.57431  0.48633999999999994  0.94053  1.0000
  C   C23       1.0  0.53251  0.38004  0.9481899999999998  1.0000
  C   C24       1.0  0.24773  0.56936  0.9293199999999998  1.0000
  C   C25       1.0  0.71792  0.53293  0.93991  1.0000
  C   C26       1.0  0.06455999999999999  0.36482999999999993  0.50279  1.0000
  C   C27       1.0  0.10038  0.35642  0.3892799999999999  1.0000
  C   C28       1.0  0.12489000000000001  0.29919  0.34832999999999986  1.0000
  C   C29       1.0  0.10390999999999997  0.3303399999999999  0.3004  1.0000
  C   C30       1.0  0.05438999999999997  0.4193499999999999  0.29276  1.0000
  C   C31       1.0  0.030430000000000016  0.47847  0.33304  1.0000
  C   C32       1.0  0.05303999999999996  0.4468999999999999  0.38091999999999987  1.0000
  C   C33       1.0  0.9752999999999998  0.57256  0.32447  1.0000
  C   C34       1.0  0.14016  0.26862  0.25853  1.0000
  C   C35       1.0  0.33322  0.35441  0.45514  1.0000
  C   C36       1.0  0.4020199999999999  0.41593999999999987  0.41775  1.0000
  C   C37       1.0  0.53748  0.45845  0.42127999999999993  1.0000
  C   C38       1.0  0.60791  0.43507  0.46174  1.0000
  C   C39       1.0  0.54247  0.37057  0.4987599999999999  1.0000
  C   C40       1.0  0.40524  0.33206  0.49592  1.0000
  C   C41       1.0  0.60267  0.53217  0.38281  1.0000
  C   C42       1.0  0.6205  0.34973  0.5414  1.0000
  C   C43       1.0  0.10234999999999998  0.16722  0.44862  1.0000
  C   C44       1.0  0.19521  0.1048  0.44224999999999987  1.0000
  C   C45       1.0  0.15451000000000004  0.99794  0.43529  1.0000
  C   C46       1.0  0.019479999999999997  0.95283  0.43381  1.0000
  C   C47       1.0  0.9256800000000001  0.01366  0.44052999999999987  1.0000
  C   C48       1.0  0.9674799999999999  0.11995999999999998  0.4481999999999999  1.0000
  C   C49       1.0  0.25226999999999994  0.9306399999999999  0.42931999999999987  1.0000
  C   C50       1.0  0.78208  0.9670699999999999  0.43990999999999997  1.0000
  C   C51       1.0  0.56456  0.86483  0.99721  1.0000
  C   C52       1.0  0.60038  0.85642  0.11071999999999999  1.0000
  C   C53       1.0  0.6248899999999998  0.7991899999999998  0.15167  1.0000
  C   C54       1.0  0.60391  0.83034  0.1996  1.0000
  C   C55       1.0  0.55439  0.9193499999999998  0.20723999999999995  1.0000
  C   C56       1.0  0.5304299999999998  0.9784699999999997  0.16694999999999993  1.0000
  C   C57       1.0  0.5530399999999999  0.9468999999999997  0.11908  1.0000
  C   C58       1.0  0.47529999999999994  0.07256  0.17552  1.0000
  C   C59       1.0  0.64016  0.7686199999999999  0.24145999999999998  1.0000
  C   C60       1.0  0.8332200000000001  0.85441  0.04485999999999998  1.0000
  C   C61       1.0  0.9020199999999999  0.91594  0.08225  1.0000
  C   C62       1.0  0.03748  0.95845  0.07872  1.0000
  C   C63       1.0  0.10791999999999996  0.93507  0.038259999999999995  1.0000
  C   C64       1.0  0.04246999999999996  0.87057  0.0012399999999999996  1.0000
  C   C65       1.0  0.90524  0.83206  0.00408  1.0000
  C   C66       1.0  0.10267  0.03217  0.11718999999999997  1.0000
  C   C67       1.0  0.1205  0.84973  0.9585899999999998  1.0000
  C   C68       1.0  0.60235  0.66722  0.05137999999999999  1.0000
  C   C69       1.0  0.69521  0.6048  0.05774999999999999  1.0000
  C   C70       1.0  0.65451  0.4979399999999999  0.06471  1.0000
  C   C71       1.0  0.5194799999999998  0.4528299999999999  0.06619  1.0000
  C   C72       1.0  0.42569000000000007  0.51366  0.05947  1.0000
  C   C73       1.0  0.46749  0.61996  0.0518  1.0000
  C   C74       1.0  0.75227  0.43064  0.07068  1.0000
  C   C75       1.0  0.28208  0.46707  0.060089999999999984  1.0000
  C   C76       1.0  0.93544  0.6351699999999998  0.49721  1.0000
  C   C77       1.0  0.89962  0.6435799999999999  0.6107199999999999  1.0000
  C   C78       1.0  0.87511  0.70081  0.65167  1.0000
  C   C79       1.0  0.89609  0.6696599999999998  0.6996  1.0000
  C   C80       1.0  0.9456099999999998  0.58065  0.70724  1.0000
  C   C81       1.0  0.96957  0.52153  0.66695  1.0000
  C   C82       1.0  0.94696  0.5531  0.6190699999999998  1.0000
  C   C83       1.0  0.024699999999999965  0.4274399999999999  0.6755199999999999  1.0000
  C   C84       1.0  0.8598399999999999  0.73138  0.74146  1.0000
  C   C85       1.0  0.66677  0.64559  0.54486  1.0000
  C   C86       1.0  0.59798  0.58406  0.58225  1.0000
  C   C87       1.0  0.46251999999999993  0.54155  0.57872  1.0000
  C   C88       1.0  0.39208  0.56493  0.53826  1.0000
  C   C89       1.0  0.45753  0.62943  0.50124  1.0000
  C   C90       1.0  0.59476  0.66794  0.50408  1.0000
  C   C91       1.0  0.39733  0.4678299999999999  0.6171899999999998  1.0000
  C   C92       1.0  0.37949999999999995  0.6502699999999998  0.4585899999999999  1.0000
  C   C93       1.0  0.8976500000000001  0.8327799999999997  0.55138  1.0000
  C   C94       1.0  0.80479  0.8952  0.5577399999999999  1.0000
  C   C95       1.0  0.84548  0.00206  0.56471  1.0000
  C   C96       1.0  0.98052  0.04716999999999999  0.5661899999999999  1.0000
  C   C97       1.0  0.07430999999999997  0.98634  0.55946  1.0000
  C   C98       1.0  0.03251  0.88004  0.5518  1.0000
  C   C99       1.0  0.74773  0.06936  0.57068  1.0000
  C   C100      1.0  0.21791999999999997  0.03293  0.56009  1.0000
  O   O1        1.0  0.31775  0.3128399999999999  0.76913  1.0000
  O   O2        1.0  0.36888999999999994  0.20125  0.71438  1.0000
  O   O3        1.0  0.61942  0.93426  0.7950399999999999  1.0000
  O   O4        1.0  0.47633000000000003  0.84173  0.8474699999999998  1.0000
  O   O5        1.0  0.96162  0.96008  0.8435399999999997  1.0000
  O   O6        1.0  0.78086  0.9143099999999997  0.8906099999999998  1.0000
  O   O7        1.0  0.75971  0.10061  0.04514999999999999  1.0000
  O   O8        1.0  0.92819  0.21596  0.07524999999999997  1.0000
  O   O9        1.0  0.12455999999999999  0.52553  0.92803  1.0000
  O   O10       1.0  0.29262999999999995  0.6661099999999999  0.92654  1.0000
  O   O11       1.0  0.75766  0.62585  0.92389  1.0000
  O   O12       1.0  0.79977  0.47973  0.9549399999999998  1.0000
  O   O13       1.0  0.18224999999999997  0.18715999999999997  0.26913  1.0000
  O   O14       1.0  0.1311  0.29876  0.21437999999999996  1.0000
  O   O15       1.0  0.88058  0.5657399999999999  0.29505  1.0000
  O   O16       1.0  0.023680000000000003  0.65827  0.34747  1.0000
  O   O17       1.0  0.53837  0.53992  0.3435499999999999  1.0000
  O   O18       1.0  0.7191399999999999  0.5856899999999999  0.39061  1.0000
  O   O19       1.0  0.74028  0.39939  0.54514  1.0000
  O   O20       1.0  0.5718  0.28404  0.57524  1.0000
  O   O21       1.0  0.37543999999999994  0.9744699999999997  0.42803  1.0000
  O   O22       1.0  0.20737000000000003  0.83389  0.4265399999999999  1.0000
  O   O23       1.0  0.7423299999999999  0.8741499999999999  0.42389  1.0000
  O   O24       1.0  0.70022  0.020269999999999996  0.45494  1.0000
  O   O25       1.0  0.68225  0.68716  0.23085999999999995  1.0000
  O   O26       1.0  0.63111  0.79875  0.28562  1.0000
  O   O27       1.0  0.38058000000000003  0.06574  0.20495  1.0000
  O   O28       1.0  0.52367  0.15827  0.15251999999999993  1.0000
  O   O29       1.0  0.03838  0.03991999999999999  0.15644999999999995  1.0000
  O   O30       1.0  0.21914  0.08568999999999999  0.10937999999999998  1.0000
  O   O31       1.0  0.24027999999999997  0.89939  0.9548499999999999  1.0000
  O   O32       1.0  0.07181  0.78404  0.92475  1.0000
  O   O33       1.0  0.8754399999999999  0.47447  0.07197  1.0000
  O   O34       1.0  0.7073700000000002  0.33389  0.07345  1.0000
  O   O35       1.0  0.24234  0.37415  0.07611  1.0000
  O   O36       1.0  0.20022999999999996  0.52027  0.04505999999999999  1.0000
  O   O37       1.0  0.8177499999999999  0.8128399999999998  0.7308599999999998  1.0000
  O   O38       1.0  0.8688900000000002  0.70124  0.7856099999999998  1.0000
  O   O39       1.0  0.11941999999999998  0.43426  0.70495  1.0000
  O   O40       1.0  0.9763199999999999  0.34173  0.65252  1.0000
  O   O41       1.0  0.46162  0.46008  0.6564499999999998  1.0000
  O   O42       1.0  0.28086  0.41430999999999996  0.60938  1.0000
  O   O43       1.0  0.25972  0.60061  0.45485  1.0000
  O   O44       1.0  0.42819  0.71596  0.4247499999999999  1.0000
  O   O45       1.0  0.62456  0.02553  0.57197  1.0000
  O   O46       1.0  0.79263  0.16611  0.57345  1.0000
  O   O47       1.0  0.25767  0.12585  0.57611  1.0000
  O   O48       1.0  0.29977  0.97973  0.5450599999999999  1.0000
