data_image0
_chemical_formula_structural       Zn8H36C68N8O36
_chemical_formula_sum              "Zn8 H36 C68 N8 O36"
_cell_length_a       14.00425
_cell_length_b       16.72573
_cell_length_c       16.72576
_cell_angle_alpha    103.56758
_cell_angle_beta     109.85089
_cell_angle_gamma    109.85092

_symmetry_space_group_name_H-M    'P 1'
_symmetry_Int_Tables_number       1

loop_
  _symmetry_equiv_pos_as_xyz
  'x,y,z'

loop_
  _atom_site_type_symbol
  _atom_site_label
  _atom_site_symmetry_multiplicity
  _atom_site_fract_x
  _atom_site_fract_y
  _atom_site_fract_z
  _atom_site_occupancy
  Zn  Zn1       1.0  0.28587  0.3338000000000001  0.20266  1.0000
  Zn  Zn2       1.0  0.5392100000000001  0.3610000000000001  0.27573  1.0000
  Zn  Zn3       1.0  0.21414000000000014  0.79734  0.6662  1.0000
  Zn  Zn4       1.0  0.9608  0.72427  0.63901  1.0000
  Zn  Zn5       1.0  0.71414  0.6662000000000001  0.79734  1.0000
  Zn  Zn6       1.0  0.4607999999999998  0.6390099999999999  0.7242699999999997  1.0000
  Zn  Zn7       1.0  0.78587  0.20266  0.3338  1.0000
  Zn  Zn8       1.0  0.03921000000000003  0.27573  0.361  1.0000
  H   H1        1.0  0.66042  0.50487  0.12783  1.0000
  H   H2        1.0  0.12601  0.060780000000000015  0.04199  1.0000
  H   H3        1.0  0.3536000000000002  0.4845700000000001  0.55351  1.0000
  H   H4        1.0  0.06058000000000003  0.34659000000000006  0.16503999999999996  1.0000
  H   H5        1.0  0.8568  0.25335  0.04086  1.0000
  H   H6        1.0  0.9758  0.11471000000000006  0.87469  1.0000
  H   H7        1.0  0.17557000000000003  0.21832000000000004  0.00256  1.0000
  H   H8        1.0  0.28262  0.40021  0.02926  1.0000
  H   H9        1.0  0.50595  0.16358000000000006  0.13964  1.0000
  H   H10       1.0  0.8395900000000001  0.8721700000000002  0.49514  1.0000
  H   H11       1.0  0.37399  0.95801  0.93923  1.0000
  H   H12       1.0  0.14640000000000003  0.44649  0.51543  1.0000
  H   H13       1.0  0.43943000000000004  0.8349600000000003  0.65341  1.0000
  H   H14       1.0  0.6432100000000002  0.9591400000000001  0.7466499999999998  1.0000
  H   H15       1.0  0.52421  0.12531000000000006  0.8853  1.0000
  H   H16       1.0  0.32444000000000006  0.9974400000000003  0.78169  1.0000
  H   H17       1.0  0.21738999999999997  0.97074  0.5998  1.0000
  H   H18       1.0  0.9940599999999999  0.86037  0.83643  1.0000
  H   H19       1.0  0.33959  0.49514  0.87217  1.0000
  H   H20       1.0  0.874  0.93923  0.9580099999999998  1.0000
  H   H21       1.0  0.6464  0.51543  0.44649  1.0000
  H   H22       1.0  0.9394299999999999  0.65341  0.8349599999999998  1.0000
  H   H23       1.0  0.14321  0.74665  0.95914  1.0000
  H   H24       1.0  0.024200000000000076  0.8853000000000002  0.12531  1.0000
  H   H25       1.0  0.82444  0.78169  0.99744  1.0000
  H   H26       1.0  0.71739  0.5998  0.97074  1.0000
  H   H27       1.0  0.49405000000000016  0.8364300000000002  0.86037  1.0000
  H   H28       1.0  0.16042000000000006  0.12783000000000008  0.50487  1.0000
  H   H29       1.0  0.6260100000000002  0.04199000000000001  0.06077999999999999  1.0000
  H   H30       1.0  0.8536100000000001  0.5535100000000002  0.48457  1.0000
  H   H31       1.0  0.56058  0.16504  0.34659  1.0000
  H   H32       1.0  0.3568  0.04087000000000001  0.25335  1.0000
  H   H33       1.0  0.4758  0.87469  0.11471  1.0000
  H   H34       1.0  0.67557  0.0025600000000000054  0.21832  1.0000
  H   H35       1.0  0.78262  0.029259999999999984  0.40021  1.0000
  H   H36       1.0  0.005950000000000017  0.13964000000000004  0.16358  1.0000
  C   C1        1.0  0.46124000000000004  0.4194900000000001  0.12798  1.0000
  C   C2        1.0  0.4795400000000002  0.4615100000000001  0.06226  1.0000
  C   C3        1.0  0.59052  0.50291  0.07174  1.0000
  C   C4        1.0  0.38726999999999995  0.45880000000000004  0.9894899999999998  1.0000
  C   C5        1.0  0.34681  0.17959  0.14878999999999995  1.0000
  C   C6        1.0  0.29916  0.09103  0.0696  1.0000
  C   C7        1.0  0.18001000000000003  0.03838000000000001  0.01885  1.0000
  C   C8        1.0  0.37061  0.061520000000000005  0.041069999999999995  1.0000
  C   C9        1.0  0.25917  0.38101  0.37703  1.0000
  C   C10       1.0  0.3834  0.44142000000000003  0.43707  1.0000
  C   C11       1.0  0.4669600000000001  0.4489400000000001  0.4054  1.0000
  C   C12       1.0  0.4186900000000001  0.49185000000000023  0.53053  1.0000
  C   C13       1.0  0.03801000000000001  0.29656  0.09857  1.0000
  C   C14       1.0  0.9255200000000001  0.24439000000000005  0.03024  1.0000
  C   C15       1.0  0.9012500000000001  0.17598000000000003  0.94867  1.0000
  C   C16       1.0  0.99221  0.16716000000000006  0.93713  1.0000
  C   C17       1.0  0.10279000000000003  0.22383  0.00832  1.0000
  C   C18       1.0  0.038770000000000145  0.8720200000000004  0.58051  1.0000
  C   C19       1.0  0.020470000000000144  0.9377400000000002  0.53849  1.0000
  C   C20       1.0  0.90949  0.92826  0.49709  1.0000
  C   C21       1.0  0.11274  0.010510000000000012  0.5412  1.0000
  C   C22       1.0  0.15320000000000006  0.8512100000000001  0.82041  1.0000
  C   C23       1.0  0.2008500000000003  0.9304000000000004  0.90898  1.0000
  C   C24       1.0  0.31999999999999995  0.9811500000000001  0.96162  1.0000
  C   C25       1.0  0.12940000000000015  0.9589300000000002  0.93849  1.0000
  C   C26       1.0  0.24084000000000008  0.6229800000000002  0.61899  1.0000
  C   C27       1.0  0.1166100000000001  0.5629300000000003  0.55858  1.0000
  C   C28       1.0  0.03304999999999997  0.5946  0.55106  1.0000
  C   C29       1.0  0.08132000000000006  0.4694800000000001  0.50816  1.0000
  C   C30       1.0  0.46199000000000007  0.9014300000000002  0.70344  1.0000
  C   C31       1.0  0.5744900000000002  0.9697700000000002  0.75562  1.0000
  C   C32       1.0  0.5987600000000001  0.051340000000000025  0.82402  1.0000
  C   C33       1.0  0.5077999999999999  0.06286999999999995  0.8328499999999998  1.0000
  C   C34       1.0  0.39722000000000013  0.9916900000000002  0.77617  1.0000
  C   C35       1.0  0.5387700000000002  0.5805100000000002  0.87202  1.0000
  C   C36       1.0  0.52047  0.53849  0.9377399999999998  1.0000
  C   C37       1.0  0.40948999999999997  0.49709000000000003  0.92826  1.0000
  C   C38       1.0  0.61274  0.5412  0.01051  1.0000
  C   C39       1.0  0.6532000000000001  0.8204100000000002  0.85121  1.0000
  C   C40       1.0  0.70085  0.90898  0.9304  1.0000
  C   C41       1.0  0.8200000000000003  0.9616200000000005  0.98115  1.0000
  C   C42       1.0  0.6294  0.93849  0.95893  1.0000
  C   C43       1.0  0.74084  0.61899  0.62298  1.0000
  C   C44       1.0  0.61661  0.55858  0.56293  1.0000
  C   C45       1.0  0.53305  0.55106  0.5946  1.0000
  C   C46       1.0  0.58132  0.50816  0.46948  1.0000
  C   C47       1.0  0.9619900000000002  0.7034400000000002  0.90143  1.0000
  C   C48       1.0  0.07449000000000014  0.7556200000000002  0.96977  1.0000
  C   C49       1.0  0.09876000000000008  0.8240200000000002  0.05134  1.0000
  C   C50       1.0  0.007790000000000103  0.8328500000000002  0.06287  1.0000
  C   C51       1.0  0.8972200000000001  0.7761700000000002  0.99169  1.0000
  C   C52       1.0  0.96124  0.12798  0.41949  1.0000
  C   C53       1.0  0.97954  0.062259999999999975  0.46151  1.0000
  C   C54       1.0  0.09052000000000003  0.07174000000000005  0.50291  1.0000
  C   C55       1.0  0.8872700000000003  0.9894900000000004  0.4588  1.0000
  C   C56       1.0  0.84681  0.14879  0.17959  1.0000
  C   C57       1.0  0.7991600000000002  0.06960000000000002  0.09103  1.0000
  C   C58       1.0  0.68001  0.018850000000000006  0.03838  1.0000
  C   C59       1.0  0.87061  0.041070000000000016  0.06152  1.0000
  C   C60       1.0  0.7591700000000001  0.3770300000000001  0.38101  1.0000
  C   C61       1.0  0.8834000000000001  0.4370700000000001  0.44142  1.0000
  C   C62       1.0  0.96696  0.4054000000000001  0.44894  1.0000
  C   C63       1.0  0.91869  0.5305300000000001  0.49185  1.0000
  C   C64       1.0  0.53802  0.09857  0.29656  1.0000
  C   C65       1.0  0.42552  0.030239999999999982  0.24438999999999994  1.0000
  C   C66       1.0  0.40125000000000005  0.9486600000000002  0.17598  1.0000
  C   C67       1.0  0.49221000000000004  0.9371300000000002  0.16715  1.0000
  C   C68       1.0  0.60279  0.008320000000000001  0.22383  1.0000
  N   N1        1.0  0.12582  0.28611  0.08884  1.0000
  N   N2        1.0  0.78976  0.10985000000000004  0.87766  1.0000
  N   N3        1.0  0.37419000000000013  0.9111600000000002  0.71389  1.0000
  N   N4        1.0  0.71025  0.12235000000000006  0.89015  1.0000
  N   N5        1.0  0.8741900000000004  0.71389  0.91116  1.0000
  N   N6        1.0  0.21025000000000005  0.89015  0.12234  1.0000
  N   N7        1.0  0.62582  0.08883999999999999  0.28611  1.0000
  N   N8        1.0  0.2897600000000001  0.8776600000000002  0.10985  1.0000
  O   O1        1.0  0.35973  0.38617000000000007  0.12208  1.0000
  O   O2        1.0  0.5466200000000001  0.4173400000000001  0.18546999999999994  1.0000
  O   O3        1.0  0.2778100000000001  0.4199500000000001  0.97673  1.0000
  O   O4        1.0  0.2787700000000001  0.20579000000000006  0.16649  1.0000
  O   O5        1.0  0.45754  0.22611000000000006  0.19478  1.0000
  O   O6        1.0  0.48652  0.10776  0.08714  1.0000
  O   O7        1.0  0.44019  0.40076  0.31687  1.0000
  O   O8        1.0  0.21385000000000007  0.3447100000000001  0.28878  1.0000
  O   O9        1.0  0.19748999999999997  0.36738000000000004  0.41934999999999995  1.0000
  O   O10       1.0  0.14028000000000002  0.87792  0.61384  1.0000
  O   O11       1.0  0.9533900000000001  0.8145400000000005  0.58266  1.0000
  O   O12       1.0  0.22219999999999995  0.023269999999999992  0.58005  1.0000
  O   O13       1.0  0.22122999999999987  0.83352  0.79422  1.0000
  O   O14       1.0  0.042470000000000015  0.80522  0.7739  1.0000
  O   O15       1.0  0.013479999999999999  0.9128700000000001  0.89224  1.0000
  O   O16       1.0  0.05982000000000007  0.6831400000000002  0.59924  1.0000
  O   O17       1.0  0.28616  0.7112200000000002  0.6553  1.0000
  O   O18       1.0  0.3025200000000002  0.5806600000000002  0.63263  1.0000
  O   O19       1.0  0.6402800000000001  0.61384  0.8779199999999999  1.0000
  O   O20       1.0  0.45339  0.58266  0.81454  1.0000
  O   O21       1.0  0.7222000000000001  0.5800500000000002  0.02327  1.0000
  O   O22       1.0  0.7212400000000001  0.7942200000000003  0.83352  1.0000
  O   O23       1.0  0.54247  0.7739  0.80522  1.0000
  O   O24       1.0  0.5134799999999999  0.8922399999999999  0.9128699999999997  1.0000
  O   O25       1.0  0.5598200000000001  0.5992400000000002  0.68314  1.0000
  O   O26       1.0  0.7861600000000002  0.6553000000000002  0.71122  1.0000
  O   O27       1.0  0.80252  0.63263  0.58066  1.0000
  O   O28       1.0  0.8597300000000001  0.12208  0.38617  1.0000
  O   O29       1.0  0.04661000000000001  0.18547  0.41734  1.0000
  O   O30       1.0  0.77781  0.9767299999999999  0.41995  1.0000
  O   O31       1.0  0.77877  0.16649000000000005  0.20579  1.0000
  O   O32       1.0  0.95754  0.19478  0.22610999999999995  1.0000
  O   O33       1.0  0.9865300000000002  0.08714000000000001  0.10775999999999997  1.0000
  O   O34       1.0  0.94019  0.31687  0.40076  1.0000
  O   O35       1.0  0.7138500000000003  0.2887800000000001  0.34471  1.0000
  O   O36       1.0  0.6974900000000002  0.41935000000000006  0.36738  1.0000
