data_image0
_chemical_formula_structural       Mn2H60C72N24
_chemical_formula_sum              "Mn2 H60 C72 N24"
_cell_length_a       8.16638
_cell_length_b       13.33879
_cell_length_c       21.88553
_cell_angle_alpha    89.94633
_cell_angle_beta     90.10835
_cell_angle_gamma    102.94287

_symmetry_space_group_name_H-M    'P 1'
_symmetry_Int_Tables_number       1

loop_
  _symmetry_equiv_pos_as_xyz
  'x,y,z'

loop_
  _atom_site_type_symbol
  _atom_site_label
  _atom_site_symmetry_multiplicity
  _atom_site_fract_x
  _atom_site_fract_y
  _atom_site_fract_z
  _atom_site_occupancy
  Mn  Mn1       1.0  0.0009899999999999941  0.49931  0.00042000000000000007  1.0000
  Mn  Mn2       1.0  0.49826000000000004  0.99958  0.50071  1.0000
  H   H1        1.0  0.032790000000000055  0.37941000000000014  0.86644  1.0000
  H   H2        1.0  0.30893  0.36308  0.02785  1.0000
  H   H3        1.0  0.4006  0.23404000000000005  0.9407600000000002  1.0000
  H   H4        1.0  0.9686800000000002  0.22362000000000007  0.8070500000000002  1.0000
  H   H5        1.0  0.98674  0.12828  0.71177  1.0000
  H   H6        1.0  0.51741  0.15215000000000004  0.7439800000000002  1.0000
  H   H7        1.0  0.50043  0.25144  0.8377100000000001  1.0000
  H   H8        1.0  0.51045  0.1283  0.63671  1.0000
  H   H9        1.0  0.007490000000000098  0.9696700000000001  0.6711  1.0000
  H   H10       1.0  0.12483000000000005  0.89285  0.566  1.0000
  H   H11       1.0  0.13904000000000008  0.7569300000000002  0.022600000000000002  1.0000
  H   H12       1.0  0.3384  0.56954  0.90174  1.0000
  H   H13       1.0  0.54184  0.76689  0.8985700000000001  1.0000
  H   H14       1.0  0.5428700000000001  0.9436800000000002  0.8942000000000001  1.0000
  H   H15       1.0  0.3361  0.87813  0.07573  1.0000
  H   H16       1.0  0.4679399999999999  0.12038  0.36610000000000004  1.0000
  H   H17       1.0  0.19313999999999998  0.13531  0.52756  1.0000
  H   H18       1.0  0.10064  0.26503  0.44087  1.0000
  H   H19       1.0  0.53153  0.27605  0.30699  1.0000
  H   H20       1.0  0.513  0.37148  0.21171  1.0000
  H   H21       1.0  0.9825099999999999  0.34816  0.24376  1.0000
  H   H22       1.0  0.00017999999999999028  0.24937  0.33765  1.0000
  H   H23       1.0  0.98826  0.3716  0.13655  1.0000
  H   H24       1.0  0.4923  0.5295  0.1702  1.0000
  H   H25       1.0  0.37334999999999996  0.6062900000000001  0.06512  1.0000
  H   H26       1.0  0.36023  0.74272  0.52228  1.0000
  H   H27       1.0  0.16023000000000007  0.9306200000000002  0.40143  1.0000
  H   H28       1.0  0.95651  0.73317  0.39819  1.0000
  H   H29       1.0  0.95733  0.55592  0.3935900000000001  1.0000
  H   H30       1.0  0.16337  0.62172  0.57543  1.0000
  H   H31       1.0  0.96598  0.61925  0.13413  1.0000
  H   H32       1.0  0.6915  0.63658  0.97258  1.0000
  H   H33       1.0  0.60168  0.76706  0.059320000000000005  1.0000
  H   H34       1.0  0.03160000000000001  0.7768400000000001  0.19322000000000006  1.0000
  H   H35       1.0  0.012860000000000024  0.87187  0.28868  1.0000
  H   H36       1.0  0.48279000000000005  0.8488200000000002  0.25574  1.0000
  H   H37       1.0  0.49998999999999993  0.74878  0.16224  1.0000
  H   H38       1.0  0.49035999999999996  0.86936  0.36433  1.0000
  H   H39       1.0  0.99018  0.03207  0.32842  1.0000
  H   H40       1.0  0.87292  0.10709  0.4342900000000001  1.0000
  H   H41       1.0  0.85969  0.2433  0.9776400000000001  1.0000
  H   H42       1.0  0.65968  0.43030000000000007  0.09851000000000001  1.0000
  H   H43       1.0  0.45711  0.23274  0.10182  1.0000
  H   H44       1.0  0.45771000000000006  0.05599  0.10629  1.0000
  H   H45       1.0  0.66437  0.12146  0.92474  1.0000
  H   H46       1.0  0.53294  0.87962  0.6342800000000001  1.0000
  H   H47       1.0  0.8094  0.86606  0.47304000000000007  1.0000
  H   H48       1.0  0.89853  0.73409  0.55907  1.0000
  H   H49       1.0  0.46804000000000007  0.7226000000000002  0.69296  1.0000
  H   H50       1.0  0.48756  0.62764  0.78842  1.0000
  H   H51       1.0  0.01806000000000001  0.65192  0.7561800000000001  1.0000
  H   H52       1.0  0.99957  0.7507  0.66223  1.0000
  H   H53       1.0  0.012359999999999994  0.62934  0.8636400000000001  1.0000
  H   H54       1.0  0.5093799999999999  0.4698000000000001  0.8297500000000002  1.0000
  H   H55       1.0  0.62823  0.3941600000000001  0.93515  1.0000
  H   H56       1.0  0.6393  0.25668  0.47740000000000005  1.0000
  H   H57       1.0  0.8399  0.06954  0.59851  1.0000
  H   H58       1.0  0.043369999999999985  0.26693  0.6014800000000001  1.0000
  H   H59       1.0  0.04227  0.44378  0.60597  1.0000
  H   H60       1.0  0.83625  0.37801  0.42419  1.0000
  C   C1        1.0  0.11796000000000005  0.35755000000000003  0.8991400000000002  1.0000
  C   C2        1.0  0.26409000000000005  0.34715000000000007  0.9815200000000002  1.0000
  C   C3        1.0  0.31534  0.28539  0.93865  1.0000
  C   C4        1.0  0.23257  0.24141  0.8300100000000002  1.0000
  C   C5        1.0  0.08832  0.20816  0.7931300000000002  1.0000
  C   C6        1.0  0.09801  0.15332  0.74002  1.0000
  C   C7        1.0  0.25167  0.13014  0.7222  1.0000
  C   C8        1.0  0.3976  0.16755  0.75767  1.0000
  C   C9        1.0  0.38782  0.22237  0.8108  1.0000
  C   C10       1.0  0.39246  0.07289  0.6317800000000001  1.0000
  C   C11       1.0  0.12632000000000007  0.9917500000000001  0.64751  1.0000
  C   C12       1.0  0.18833000000000003  0.9524400000000001  0.59668  1.0000
  C   C13       1.0  0.22058999999999995  0.73097  0.9903200000000002  1.0000
  C   C14       1.0  0.32554  0.63822  0.92574  1.0000
  C   C15       1.0  0.4278  0.73549  0.92354  1.0000
  C   C16       1.0  0.43044  0.89736  0.9825600000000001  1.0000
  C   C17       1.0  0.52632  0.9674300000000001  0.94083  1.0000
  C   C18       1.0  0.40563  0.9316  0.04243  1.0000
  C   C19       1.0  0.3828299999999999  0.14183  0.3988200000000001  1.0000
  C   C20       1.0  0.23748000000000002  0.15159  0.48126  1.0000
  C   C21       1.0  0.18588  0.2137  0.43855  1.0000
  C   C22       1.0  0.26779  0.2586  0.32999  1.0000
  C   C23       1.0  0.41188  0.29168  0.2930400000000001  1.0000
  C   C24       1.0  0.40188  0.34657  0.23993000000000003  1.0000
  C   C25       1.0  0.24822999999999998  0.36986  0.22193000000000002  1.0000
  C   C26       1.0  0.10239  0.33267  0.25748  1.0000
  C   C27       1.0  0.11262  0.27811  0.31072  1.0000
  C   C28       1.0  0.10634000000000006  0.4268200000000001  0.13148000000000004  1.0000
  C   C29       1.0  0.37309  0.50747  0.14673  1.0000
  C   C30       1.0  0.3103  0.54687  0.09596000000000002  1.0000
  C   C31       1.0  0.27838000000000007  0.7688200000000001  0.49002  1.0000
  C   C32       1.0  0.17304  0.86183  0.42543000000000003  1.0000
  C   C33       1.0  0.07078000000000009  0.7645300000000002  0.42315  1.0000
  C   C34       1.0  0.06892  0.60243  0.48215  1.0000
  C   C35       1.0  0.9736199999999998  0.53224  0.4403  1.0000
  C   C36       1.0  0.09398  0.56821  0.54207  1.0000
  C   C37       1.0  0.88103  0.64142  0.10145  1.0000
  C   C38       1.0  0.73609  0.65254  0.01894  1.0000
  C   C39       1.0  0.6858099999999999  0.71502  0.06162000000000001  1.0000
  C   C40       1.0  0.7677999999999998  0.75868  0.17033000000000004  1.0000
  C   C41       1.0  0.9118100000000002  0.7920800000000002  0.20715000000000006  1.0000
  C   C42       1.0  0.9018299999999999  0.84678  0.26032  1.0000
  C   C43       1.0  0.74792  0.86984  0.27794  1.0000
  C   C44       1.0  0.6025000000000001  0.8329800000000002  0.24228000000000002  1.0000
  C   C45       1.0  0.6123799999999998  0.77786  0.18925000000000003  1.0000
  C   C46       1.0  0.60755  0.9256400000000001  0.36896000000000007  1.0000
  C   C47       1.0  0.87217  0.008860000000000002  0.35244000000000003  1.0000
  C   C48       1.0  0.81008  0.04738  0.40357000000000004  1.0000
  C   C49       1.0  0.7781  0.26909  0.00997  1.0000
  C   C50       1.0  0.67287  0.36166  0.07455000000000002  1.0000
  C   C51       1.0  0.571  0.26426  0.0768  1.0000
  C   C52       1.0  0.56939  0.10237000000000003  0.01785  1.0000
  C   C53       1.0  0.47397  0.03224  0.05964  1.0000
  C   C54       1.0  0.59462  0.06806  0.95803  1.0000
  C   C55       1.0  0.61782  0.8581500000000002  0.60149  1.0000
  C   C56       1.0  0.76409  0.8491400000000002  0.5191800000000001  1.0000
  C   C57       1.0  0.81413  0.78591  0.56157  1.0000
  C   C58       1.0  0.73182  0.7405  0.66998  1.0000
  C   C59       1.0  0.5879  0.7072600000000001  0.7069100000000001  1.0000
  C   C60       1.0  0.59847  0.65267  0.76011  1.0000
  C   C61       1.0  0.75243  0.6298  0.7780100000000001  1.0000
  C   C62       1.0  0.8980099999999998  0.66713  0.7424500000000002  1.0000
  C   C63       1.0  0.8873299999999998  0.72161  0.6892  1.0000
  C   C64       1.0  0.89467  0.5737500000000001  0.86873  1.0000
  C   C65       1.0  0.62848  0.4922400000000001  0.85327  1.0000
  C   C66       1.0  0.6912000000000001  0.45351  0.9042600000000001  1.0000
  C   C67       1.0  0.72119  0.23082  0.50974  1.0000
  C   C68       1.0  0.82679  0.13821000000000003  0.5744700000000001  1.0000
  C   C69       1.0  0.92904  0.23549  0.5765600000000001  1.0000
  C   C70       1.0  0.93064  0.39736  0.5174300000000001  1.0000
  C   C71       1.0  0.025930000000000054  0.4675300000000001  0.55927  1.0000
  C   C72       1.0  0.90559  0.43156000000000005  0.45752  1.0000
  N   N1        1.0  0.14127  0.39148  0.9568900000000001  1.0000
  N   N2        1.0  0.2223  0.2926  0.8858200000000002  1.0000
  N   N3        1.0  0.25746  0.0691  0.6700100000000001  1.0000
  N   N4        1.0  0.3533  0.00278  0.58708  1.0000
  N   N5        1.0  0.19754  0.63569  0.96718  1.0000
  N   N6        1.0  0.36136999999999997  0.79473  0.9655400000000002  1.0000
  N   N7        1.0  0.3600400000000001  0.10736  0.45654  1.0000
  N   N8        1.0  0.27837  0.20696  0.38563000000000003  1.0000
  N   N9        1.0  0.24206000000000008  0.43039000000000016  0.16955  1.0000
  N   N10       1.0  0.14493000000000003  0.49691000000000013  0.08662  1.0000
  N   N11       1.0  0.3012100000000001  0.8641900000000002  0.4669800000000001  1.0000
  N   N12       1.0  0.1375000000000001  0.7051600000000001  0.4651600000000001  1.0000
  N   N13       1.0  0.85744  0.60733  0.04383  1.0000
  N   N14       1.0  0.7781899999999999  0.70735  0.11451  1.0000
  N   N15       1.0  0.74183  0.9308  0.33025  1.0000
  N   N16       1.0  0.6459999999999999  0.9957300000000002  0.41354  1.0000
  N   N17       1.0  0.8008499999999998  0.36433  0.03308  1.0000
  N   N18       1.0  0.63772  0.20515  0.03481  1.0000
  N   N19       1.0  0.6418  0.89347  0.544  1.0000
  N   N20       1.0  0.72122  0.79231  0.61439  1.0000
  N   N21       1.0  0.75915  0.56943  0.83047  1.0000
  N   N22       1.0  0.85625  0.50408  0.91377  1.0000
  N   N23       1.0  0.69834  0.13562  0.53301  1.0000
  N   N24       1.0  0.86211  0.29461  0.53448  1.0000
