data_image0
_chemical_formula_structural       Mn4H60C92O32
_chemical_formula_sum              "Mn4 H60 C92 O32"
_cell_length_a       13.26625
_cell_length_b       13.26035
_cell_length_c       16.11171
_cell_angle_alpha    97.92994
_cell_angle_beta     97.87292
_cell_angle_gamma    109.59953

_symmetry_space_group_name_H-M    'P 1'
_symmetry_Int_Tables_number       1

loop_
  _symmetry_equiv_pos_as_xyz
  'x,y,z'

loop_
  _atom_site_type_symbol
  _atom_site_label
  _atom_site_symmetry_multiplicity
  _atom_site_fract_x
  _atom_site_fract_y
  _atom_site_fract_z
  _atom_site_occupancy
  Mn  Mn1       1.0  0.05799000000000001  0.042  0.3679000000000001  1.0000
  Mn  Mn2       1.0  0.95823  0.9422399999999997  0.13280000000000006  1.0000
  Mn  Mn3       1.0  0.9421199999999998  0.9581899999999998  0.6327500000000003  1.0000
  Mn  Mn4       1.0  0.042269999999999995  0.058  0.86801  1.0000
  H   H1        1.0  0.2634  0.48424  0.38277  1.0000
  H   H2        1.0  0.24679999999999996  0.6299899999999999  0.30489  1.0000
  H   H3        1.0  0.98303  0.38827  0.11781000000000003  1.0000
  H   H4        1.0  0.99951  0.24326999999999996  0.19697  1.0000
  H   H5        1.0  0.5706  0.9870499999999998  0.9434000000000002  1.0000
  H   H6        1.0  0.75386  0.018840000000000003  0.90763  1.0000
  H   H7        1.0  0.60565  0.83224  0.65385  1.0000
  H   H8        1.0  0.42125  0.79301  0.6911700000000002  1.0000
  H   H9        1.0  0.32452  0.66396  0.006340000000000002  1.0000
  H   H10       1.0  0.2014800000000001  0.8836100000000001  0.8853600000000003  1.0000
  H   H11       1.0  0.04895  0.73667  0.07836  1.0000
  H   H12       1.0  0.02255999999999999  0.5757  0.11529000000000003  1.0000
  H   H13       1.0  0.11576999999999996  0.68092  0.19926000000000005  1.0000
  H   H14       1.0  0.37292  0.9458499999999999  0.8787300000000002  1.0000
  H   H15       1.0  0.30878  0.84206  0.7854400000000002  1.0000
  H   H16       1.0  0.51575  0.7364799999999998  0.11692000000000002  1.0000
  H   H17       1.0  0.37013  0.75314  0.19490000000000005  1.0000
  H   H18       1.0  0.61199  0.01685999999999998  0.38231  1.0000
  H   H19       1.0  0.75671  0.00015999999999999971  0.30298  1.0000
  H   H20       1.0  0.013060000000000032  0.42906  0.5567100000000003  1.0000
  H   H21       1.0  0.98099  0.24572999999999995  0.59263  1.0000
  H   H22       1.0  0.16773  0.39429  0.84617  1.0000
  H   H23       1.0  0.20739  0.57885  0.80865  1.0000
  H   H24       1.0  0.33605  0.6757699999999998  0.4936200000000001  1.0000
  H   H25       1.0  0.11609999999999997  0.7981999999999999  0.61471  1.0000
  H   H26       1.0  0.26302  0.95132  0.4218400000000001  1.0000
  H   H27       1.0  0.42423  0.97756  0.3846000000000001  1.0000
  H   H28       1.0  0.31924999999999987  0.8841099999999997  0.3005400000000001  1.0000
  H   H29       1.0  0.054330000000000024  0.6267099999999999  0.6212900000000002  1.0000
  H   H30       1.0  0.1580599999999999  0.6911099999999998  0.71449  1.0000
  H   H31       1.0  0.73686  0.51594  0.6171200000000002  1.0000
  H   H32       1.0  0.75316  0.3701  0.6951  1.0000
  H   H33       1.0  0.01688000000000002  0.6117499999999999  0.8823400000000002  1.0000
  H   H34       1.0  0.0006199999999999601  0.7567599999999998  0.8031000000000003  1.0000
  H   H35       1.0  0.42928  0.013009999999999999  0.05665000000000001  1.0000
  H   H36       1.0  0.24607999999999988  0.9809699999999998  0.09235  1.0000
  H   H37       1.0  0.39413000000000004  0.1677  0.34621  1.0000
  H   H38       1.0  0.57852  0.20709999999999995  0.3089500000000001  1.0000
  H   H39       1.0  0.67565  0.33602  0.9936800000000002  1.0000
  H   H40       1.0  0.79841  0.11634000000000001  0.11488000000000002  1.0000
  H   H41       1.0  0.95123  0.26305  0.92189  1.0000
  H   H42       1.0  0.9774399999999999  0.42423  0.8845900000000002  1.0000
  H   H43       1.0  0.8841000000000001  0.31904  0.8006300000000002  1.0000
  H   H44       1.0  0.62683  0.05412000000000001  0.12129000000000002  1.0000
  H   H45       1.0  0.69112  0.15796  0.21456000000000006  1.0000
  H   H46       1.0  0.48414000000000007  0.2636  0.8831300000000002  1.0000
  H   H47       1.0  0.6297400000000002  0.2468  0.8050600000000001  1.0000
  H   H48       1.0  0.3879  0.9831599999999998  0.6177100000000002  1.0000
  H   H49       1.0  0.2430799999999999  0.9998499999999999  0.69709  1.0000
  H   H50       1.0  0.9872400000000001  0.5706699999999999  0.4433300000000001  1.0000
  H   H51       1.0  0.018770000000000033  0.75391  0.40755  1.0000
  H   H52       1.0  0.8320699999999999  0.6054399999999999  0.15394  1.0000
  H   H53       1.0  0.7929200000000001  0.42088  0.19120000000000006  1.0000
  H   H54       1.0  0.6638400000000002  0.32442  0.5063400000000001  1.0000
  H   H55       1.0  0.8837  0.2016  0.3854300000000001  1.0000
  H   H56       1.0  0.73701  0.048920000000000054  0.5784200000000003  1.0000
  H   H57       1.0  0.57541  0.022469999999999997  0.61529  1.0000
  H   H58       1.0  0.68053  0.11573000000000008  0.6993600000000002  1.0000
  H   H59       1.0  0.9456200000000001  0.37280999999999986  0.3787300000000001  1.0000
  H   H60       1.0  0.84184  0.30859  0.2855200000000001  1.0000
  C   C1        1.0  0.20203000000000004  0.46458000000000005  0.3249200000000001  1.0000
  C   C2        1.0  0.19235000000000002  0.5455700000000001  0.2810800000000001  1.0000
  C   C3        1.0  0.11364999999999993  0.5182899999999999  0.20602  1.0000
  C   C4        1.0  0.04422000000000002  0.40927  0.17600000000000005  1.0000
  C   C5        1.0  0.05272000000000002  0.32807  0.21991000000000005  1.0000
  C   C6        1.0  0.13199  0.35554  0.29472  1.0000
  C   C7        1.0  0.5778699999999999  0.9522299999999999  0.8802500000000002  1.0000
  C   C8        1.0  0.6805100000000001  0.9708999999999998  0.8605900000000002  1.0000
  C   C9        1.0  0.69065  0.9296399999999999  0.7784800000000002  1.0000
  C   C10       1.0  0.5969799999999998  0.8656699999999999  0.71694  1.0000
  C   C11       1.0  0.49417  0.84407  0.7381200000000002  1.0000
  C   C12       1.0  0.48389  0.8886499999999998  0.8192100000000002  1.0000
  C   C13       1.0  0.26699  0.7057499999999998  0.9987800000000001  1.0000
  C   C14       1.0  0.27416  0.7758999999999998  0.9405900000000001  1.0000
  C   C15       1.0  0.19952  0.8297199999999998  0.9305900000000003  1.0000
  C   C16       1.0  0.11934999999999996  0.8141899999999999  0.98066  1.0000
  C   C17       1.0  0.1116  0.74557  0.04004  1.0000
  C   C18       1.0  0.18610999999999994  0.6908499999999999  0.0483  1.0000
  C   C19       1.0  0.14305  0.26847  0.3414300000000001  1.0000
  C   C20       1.0  0.80237  0.95703  0.7592700000000002  1.0000
  C   C21       1.0  0.04216  0.8743199999999999  0.9693600000000002  1.0000
  C   C22       1.0  0.10346999999999999  0.60362  0.15681000000000006  1.0000
  C   C23       1.0  0.3743699999999999  0.8699999999999999  0.84243  1.0000
  C   C24       1.0  0.5354199999999999  0.7977799999999999  0.17490000000000006  1.0000
  C   C25       1.0  0.45450000000000007  0.80759  0.21878000000000006  1.0000
  C   C26       1.0  0.48178999999999994  0.8862999999999998  0.29393  1.0000
  C   C27       1.0  0.59078  0.95564  0.3240400000000001  1.0000
  C   C28       1.0  0.67192  0.9469999999999997  0.28012  1.0000
  C   C29       1.0  0.6444099999999998  0.8676999999999998  0.20527000000000006  1.0000
  C   C30       1.0  0.04776999999999998  0.42179  0.61986  1.0000
  C   C31       1.0  0.02896000000000003  0.31917  0.6396400000000002  1.0000
  C   C32       1.0  0.07030000000000003  0.30932000000000004  0.7218100000000002  1.0000
  C   C33       1.0  0.13437999999999997  0.40308999999999995  0.7831600000000002  1.0000
  C   C34       1.0  0.15614  0.50584  0.7618400000000002  1.0000
  C   C35       1.0  0.11153000000000012  0.5159100000000001  0.6807700000000002  1.0000
  C   C36       1.0  0.2941  0.73318  0.50113  1.0000
  C   C37       1.0  0.22391000000000003  0.72573  0.55931  1.0000
  C   C38       1.0  0.17005  0.80033  0.56949  1.0000
  C   C39       1.0  0.18571999999999997  0.88068  0.51959  1.0000
  C   C40       1.0  0.25418  0.8885499999999997  0.4600400000000001  1.0000
  C   C41       1.0  0.30892  0.81405  0.45162000000000013  1.0000
  C   C42       1.0  0.7315499999999999  0.8565499999999998  0.15871000000000005  1.0000
  C   C43       1.0  0.04322000000000005  0.19783000000000003  0.7413200000000002  1.0000
  C   C44       1.0  0.12571000000000004  0.9579600000000001  0.5309700000000003  1.0000
  C   C45       1.0  0.39641999999999994  0.89658  0.3430900000000001  1.0000
  C   C46       1.0  0.13020000000000004  0.62543  0.6575100000000003  1.0000
  C   C47       1.0  0.79811  0.5354799999999998  0.6750300000000002  1.0000
  C   C48       1.0  0.80768  0.45448999999999995  0.7189000000000002  1.0000
  C   C49       1.0  0.88634  0.48174  0.7939900000000002  1.0000
  C   C50       1.0  0.9558  0.59075  0.82407  1.0000
  C   C51       1.0  0.94741  0.6719599999999998  0.78014  1.0000
  C   C52       1.0  0.8682000000000001  0.6444699999999999  0.70528  1.0000
  C   C53       1.0  0.422  0.0479  0.11979000000000002  1.0000
  C   C54       1.0  0.31935  0.02907000000000001  0.13944000000000006  1.0000
  C   C55       1.0  0.30921  0.07027  0.22158000000000005  1.0000
  C   C56       1.0  0.4028300000000001  0.13435  0.2831  1.0000
  C   C57       1.0  0.50565  0.15608  0.2619200000000001  1.0000
  C   C58       1.0  0.51598  0.11155999999999998  0.18083000000000005  1.0000
  C   C59       1.0  0.73309  0.29412999999999995  0.00123  1.0000
  C   C60       1.0  0.7258299999999999  0.22403999999999996  0.059470000000000016  1.0000
  C   C61       1.0  0.80048  0.17025  0.06964  1.0000
  C   C62       1.0  0.88071  0.18578999999999996  0.019610000000000006  1.0000
  C   C63       1.0  0.8885  0.25431000000000004  0.9601300000000003  1.0000
  C   C64       1.0  0.81399  0.30901  0.9517400000000003  1.0000
  C   C65       1.0  0.8571  0.73156  0.65863  1.0000
  C   C66       1.0  0.19765  0.042939999999999985  0.24093  1.0000
  C   C67       1.0  0.95812  0.12591  0.031020000000000006  1.0000
  C   C68       1.0  0.89651  0.3963299999999999  0.84312  1.0000
  C   C69       1.0  0.6255  0.13006  0.15758000000000005  1.0000
  C   C70       1.0  0.46442999999999995  0.2023  0.82513  1.0000
  C   C71       1.0  0.54534  0.19241000000000005  0.7812600000000002  1.0000
  C   C72       1.0  0.51802  0.11371999999999997  0.70609  1.0000
  C   C73       1.0  0.40904  0.04435000000000003  0.6759900000000002  1.0000
  C   C74       1.0  0.32788999999999996  0.05302000000000007  0.7198900000000003  1.0000
  C   C75       1.0  0.35544  0.13240000000000005  0.7947200000000002  1.0000
  C   C76       1.0  0.9522  0.57783  0.3802300000000001  1.0000
  C   C77       1.0  0.9708900000000001  0.6804699999999998  0.36053000000000013  1.0000
  C   C78       1.0  0.9296299999999998  0.6904799999999998  0.27842  1.0000
  C   C79       1.0  0.8655500000000002  0.59673  0.21696000000000004  1.0000
  C   C80       1.0  0.8438999999999999  0.49388999999999994  0.23816000000000007  1.0000
  C   C81       1.0  0.8884700000000001  0.48374999999999996  0.3192500000000001  1.0000
  C   C82       1.0  0.70571  0.26692000000000005  0.4989000000000001  1.0000
  C   C83       1.0  0.77592  0.27417  0.4407500000000001  1.0000
  C   C84       1.0  0.8297600000000003  0.19953000000000004  0.4306500000000001  1.0000
  C   C85       1.0  0.8142300000000001  0.11940000000000002  0.4807300000000001  1.0000
  C   C86       1.0  0.7456599999999998  0.11159999999999998  0.54016  1.0000
  C   C87       1.0  0.69089  0.18608999999999995  0.54845  1.0000
  C   C88       1.0  0.26832  0.14342  0.8413100000000002  1.0000
  C   C89       1.0  0.9569799999999999  0.8021699999999998  0.25914  1.0000
  C   C90       1.0  0.87434  0.0422  0.4696700000000001  1.0000
  C   C91       1.0  0.60335  0.10343  0.65688  1.0000
  C   C92       1.0  0.86979  0.3742399999999999  0.34252  1.0000
  O   O1        1.0  0.06092000000000001  0.17561999999999997  0.3214100000000001  1.0000
  O   O2        1.0  0.22729000000000002  0.2872  0.3958500000000001  1.0000
  O   O3        1.0  0.81206  0.9611299999999998  0.6814900000000003  1.0000
  O   O4        1.0  0.8802800000000001  0.97559  0.8215800000000002  1.0000
  O   O5        1.0  0.050980000000000004  0.92549  0.9075600000000003  1.0000
  O   O6        1.0  0.97407  0.8689499999999998  0.01803  1.0000
  O   O7        1.0  0.18670000000000006  0.62216  0.10394000000000003  1.0000
  O   O8        1.0  0.35616000000000003  0.78749  0.89582  1.0000
  O   O9        1.0  0.8243600000000001  0.93876  0.17878000000000005  1.0000
  O   O10       1.0  0.7129000000000001  0.7722699999999998  0.10429000000000002  1.0000
  O   O11       1.0  0.03985  0.18819  0.81919  1.0000
  O   O12       1.0  0.024170000000000035  0.11998000000000003  0.6787100000000003  1.0000
  O   O13       1.0  0.07406999999999996  0.94895  0.59249  1.0000
  O   O14       1.0  0.13157000000000002  0.02623000000000004  0.4824200000000001  1.0000
  O   O15       1.0  0.37773  0.8134599999999997  0.39604  1.0000
  O   O16       1.0  0.21259000000000003  0.6437  0.60405  1.0000
  O   O17       1.0  0.93906  0.8245199999999998  0.6789300000000003  1.0000
  O   O18       1.0  0.7730299999999998  0.7128299999999997  0.6040400000000002  1.0000
  O   O19       1.0  0.18797  0.03904000000000001  0.31870000000000004  1.0000
  O   O20       1.0  0.11981  0.024299999999999992  0.17848  1.0000
  O   O21       1.0  0.94903  0.07434  0.09259000000000003  1.0000
  O   O22       1.0  0.026540000000000053  0.13169000000000006  0.9825900000000002  1.0000
  O   O23       1.0  0.81338  0.37772000000000006  0.8960900000000003  1.0000
  O   O24       1.0  0.64374  0.21253999999999998  0.10416000000000003  1.0000
  O   O25       1.0  0.17562999999999998  0.06109999999999998  0.82128  1.0000
  O   O26       1.0  0.2869200000000001  0.22766000000000003  0.8957700000000002  1.0000
  O   O27       1.0  0.9610399999999998  0.8118799999999998  0.18136000000000005  1.0000
  O   O28       1.0  0.9755399999999999  0.8801399999999999  0.3215200000000001  1.0000
  O   O29       1.0  0.9258699999999999  0.051000000000000004  0.40805000000000013  1.0000
  O   O30       1.0  0.8685500000000002  0.9742599999999999  0.51853  1.0000
  O   O31       1.0  0.6221000000000001  0.18666000000000005  0.6040200000000002  1.0000
  O   O32       1.0  0.78738  0.35614999999999997  0.39597  1.0000
