data_image0
_chemical_formula_structural       Mn8H64C112O32
_chemical_formula_sum              "Mn8 H64 C112 O32"
_cell_length_a       13.50746
_cell_length_b       15.36416
_cell_length_c       25.22416
_cell_angle_alpha    101.28188
_cell_angle_beta     94.75897
_cell_angle_gamma    102.43930999999999

_symmetry_space_group_name_H-M    'P 1'
_symmetry_Int_Tables_number       1

loop_
  _symmetry_equiv_pos_as_xyz
  'x,y,z'

loop_
  _atom_site_type_symbol
  _atom_site_label
  _atom_site_symmetry_multiplicity
  _atom_site_fract_x
  _atom_site_fract_y
  _atom_site_fract_z
  _atom_site_occupancy
  Mn  Mn1       1.0  0.15863000000000005  0.63915  0.31074  1.0000
  Mn  Mn2       1.0  0.37168  0.5543800000000002  0.2658  1.0000
  Mn  Mn3       1.0  0.60224  0.65597  0.3295  1.0000
  Mn  Mn4       1.0  0.8096700000000002  0.70648  0.27787  1.0000
  Mn  Mn5       1.0  0.84137  0.3608500000000001  0.68926  1.0000
  Mn  Mn6       1.0  0.62832  0.44562000000000007  0.7341899999999999  1.0000
  Mn  Mn7       1.0  0.3977600000000001  0.3440300000000001  0.6705  1.0000
  Mn  Mn8       1.0  0.19033000000000005  0.29352  0.72213  1.0000
  H   H1        1.0  0.30903  0.36481  0.31532  1.0000
  H   H2        1.0  0.2789600000000001  0.19962000000000005  0.31413  1.0000
  H   H3        1.0  0.9660000000000002  0.19284  0.3396  1.0000
  H   H4        1.0  0.99684  0.35844  0.34019  1.0000
  H   H5        1.0  0.24977000000000002  0.08533  0.36108999999999997  1.0000
  H   H6        1.0  0.2162500000000001  0.9177700000000002  0.35014  1.0000
  H   H7        1.0  0.91519  0.8886200000000002  0.26874  1.0000
  H   H8        1.0  0.9474100000000002  0.05503  0.27973  1.0000
  H   H9        1.0  0.23076  0.46502000000000004  0.10006  1.0000
  H   H10       1.0  0.14107000000000003  0.43233  0.00669  1.0000
  H   H11       1.0  0.92815  0.5901700000000002  0.06579  1.0000
  H   H12       1.0  0.018590000000000023  0.6201800000000002  0.1589  1.0000
  H   H13       1.0  0.5538600000000001  0.75482  0.43690999999999997  1.0000
  H   H14       1.0  0.60365  0.8956100000000002  0.50733  1.0000
  H   H15       1.0  0.35292000000000007  0.9907900000000002  0.43937999999999994  1.0000
  H   H16       1.0  0.30320000000000025  0.8469500000000002  0.36936  1.0000
  H   H17       1.0  0.71941  0.57792  0.13008  1.0000
  H   H18       1.0  0.67591  0.52229  0.03115  1.0000
  H   H19       1.0  0.36066000000000015  0.5252300000000002  0.04717  1.0000
  H   H20       1.0  0.4051300000000001  0.57867  0.14566  1.0000
  H   H21       1.0  0.70614  0.4209700000000001  0.31883  1.0000
  H   H22       1.0  0.7520400000000002  0.2734400000000001  0.32427  1.0000
  H   H23       1.0  0.4400400000000001  0.12906000000000006  0.26558  1.0000
  H   H24       1.0  0.3969300000000001  0.27643  0.25627  1.0000
  H   H25       1.0  0.7510300000000001  0.12378000000000002  0.25443  1.0000
  H   H26       1.0  0.78679  0.9716100000000002  0.25786  1.0000
  H   H27       1.0  0.5395800000000002  0.9153300000000002  0.35176  1.0000
  H   H28       1.0  0.50054  0.06533000000000003  0.34694  1.0000
  H   H29       1.0  0.75238  0.60761  0.49042  1.0000
  H   H30       1.0  0.8631900000000002  0.5407000000000002  0.54493  1.0000
  H   H31       1.0  0.04792000000000008  0.5120400000000003  0.41335  1.0000
  H   H32       1.0  0.9378400000000002  0.5795300000000002  0.36069999999999997  1.0000
  H   H33       1.0  0.6909800000000003  0.63519  0.68468  1.0000
  H   H34       1.0  0.72104  0.80038  0.6858700000000001  1.0000
  H   H35       1.0  0.03401000000000008  0.8071600000000003  0.6604  1.0000
  H   H36       1.0  0.0031600000000000473  0.6415600000000002  0.65981  1.0000
  H   H37       1.0  0.75023  0.9146700000000002  0.63891  1.0000
  H   H38       1.0  0.7837500000000002  0.08223000000000004  0.64986  1.0000
  H   H39       1.0  0.08480999999999998  0.11137999999999997  0.73125  1.0000
  H   H40       1.0  0.05259000000000001  0.9449700000000001  0.7202599999999999  1.0000
  H   H41       1.0  0.7692400000000004  0.5349800000000002  0.89994  1.0000
  H   H42       1.0  0.8589300000000002  0.56767  0.99331  1.0000
  H   H43       1.0  0.07184999999999998  0.40983000000000014  0.9342099999999999  1.0000
  H   H44       1.0  0.9814099999999999  0.37982  0.8411  1.0000
  H   H45       1.0  0.44614000000000004  0.24518000000000006  0.56309  1.0000
  H   H46       1.0  0.3963500000000001  0.10439000000000002  0.49267  1.0000
  H   H47       1.0  0.64708  0.00921000000000002  0.56062  1.0000
  H   H48       1.0  0.6968000000000002  0.1530500000000001  0.63064  1.0000
  H   H49       1.0  0.28059000000000006  0.4220800000000001  0.86992  1.0000
  H   H50       1.0  0.32409  0.47771000000000013  0.96885  1.0000
  H   H51       1.0  0.63934  0.47477000000000014  0.95283  1.0000
  H   H52       1.0  0.5948700000000002  0.4213300000000001  0.85434  1.0000
  H   H53       1.0  0.29386  0.57903  0.68117  1.0000
  H   H54       1.0  0.24796000000000012  0.7265600000000002  0.67573  1.0000
  H   H55       1.0  0.5599600000000001  0.8709400000000002  0.73442  1.0000
  H   H56       1.0  0.60307  0.72357  0.74373  1.0000
  H   H57       1.0  0.24897000000000008  0.8762200000000001  0.7455699999999998  1.0000
  H   H58       1.0  0.21321  0.028389999999999967  0.74214  1.0000
  H   H59       1.0  0.4604200000000001  0.08467000000000005  0.64824  1.0000
  H   H60       1.0  0.4994600000000002  0.9346700000000002  0.65306  1.0000
  H   H61       1.0  0.24762000000000006  0.3923900000000001  0.50958  1.0000
  H   H62       1.0  0.13681000000000004  0.4593000000000001  0.45507  1.0000
  H   H63       1.0  0.95208  0.4879600000000001  0.58665  1.0000
  H   H64       1.0  0.06216000000000001  0.42047  0.6393  1.0000
  C   C1        1.0  0.15491  0.37230000000000013  0.32728  1.0000
  C   C2        1.0  0.2344  0.32668  0.321  1.0000
  C   C3        1.0  0.21702000000000005  0.23396000000000006  0.32049  1.0000
  C   C4        1.0  0.11965000000000006  0.18329  0.32587  1.0000
  C   C5        1.0  0.040969999999999986  0.23002999999999998  0.33359999999999995  1.0000
  C   C6        1.0  0.058159999999999996  0.32314  0.33434  1.0000
  C   C7        1.0  0.10064000000000001  0.08344000000000003  0.3214  1.0000
  C   C8        1.0  0.17632  0.04252000000000001  0.34060999999999997  1.0000
  C   C9        1.0  0.15772000000000005  0.9481900000000002  0.33468  1.0000
  C   C10       1.0  0.06361000000000006  0.8905400000000002  0.30872  1.0000
  C   C11       1.0  0.9886500000000003  0.9309700000000001  0.28889  1.0000
  C   C12       1.0  0.006570000000000001  0.02544000000000003  0.2957  1.0000
  C   C13       1.0  0.17588  0.4704200000000001  0.32473  1.0000
  C   C14       1.0  0.04445000000000008  0.7891900000000002  0.3026  1.0000
  C   C15       1.0  0.13115000000000007  0.5454400000000003  0.1351  1.0000
  C   C16       1.0  0.16476  0.4924500000000001  0.09168  1.0000
  C   C17       1.0  0.11340000000000006  0.4745300000000001  0.03919  1.0000
  C   C18       1.0  0.027140000000000053  0.5092300000000002  0.02798  1.0000
  C   C19       1.0  0.99428  0.5621  0.07233  1.0000
  C   C20       1.0  0.04474000000000006  0.5796200000000002  0.12494  1.0000
  C   C21       1.0  0.18511000000000002  0.5654  0.19148  1.0000
  C   C22       1.0  0.42521  0.7921900000000001  0.39774  1.0000
  C   C23       1.0  0.50965  0.8063200000000003  0.43743  1.0000
  C   C24       1.0  0.5377300000000003  0.8869200000000003  0.47735  1.0000
  C   C25       1.0  0.4839300000000002  0.9565800000000004  0.47916  1.0000
  C   C26       1.0  0.39793000000000006  0.9401100000000002  0.43957999999999997  1.0000
  C   C27       1.0  0.36907000000000006  0.8595500000000003  0.40001  1.0000
  C   C28       1.0  0.39463000000000004  0.7115300000000002  0.35194  1.0000
  C   C29       1.0  0.56582  0.58182  0.14526  1.0000
  C   C30       1.0  0.64077  0.56579  0.11148  1.0000
  C   C31       1.0  0.61533  0.53431  0.05538  1.0000
  C   C32       1.0  0.51377  0.5174800000000003  0.02997  1.0000
  C   C33       1.0  0.4398400000000002  0.5354300000000002  0.06436  1.0000
  C   C34       1.0  0.46472  0.56654  0.12066  1.0000
  C   C35       1.0  0.5959400000000002  0.61447  0.2054  1.0000
  C   C36       1.0  0.5485500000000002  0.3570700000000001  0.2878  1.0000
  C   C37       1.0  0.6491000000000001  0.3564300000000001  0.30658  1.0000
  C   C38       1.0  0.6741800000000001  0.27418  0.30968  1.0000
  C   C39       1.0  0.5985100000000002  0.19183000000000006  0.29607  1.0000
  C   C40       1.0  0.4979500000000001  0.19312000000000007  0.27736  1.0000
  C   C41       1.0  0.4736400000000001  0.2747900000000001  0.27217  1.0000
  C   C42       1.0  0.62333  0.10444000000000003  0.30041  1.0000
  C   C43       1.0  0.7056900000000003  0.07848  0.27623  1.0000
  C   C44       1.0  0.72591  0.99408  0.27811  1.0000
  C   C45       1.0  0.6661100000000002  0.9351000000000003  0.30537  1.0000
  C   C46       1.0  0.58484  0.9611800000000003  0.33033  1.0000
  C   C47       1.0  0.56329  0.04477999999999998  0.32743999999999995  1.0000
  C   C48       1.0  0.5206400000000002  0.4452900000000002  0.28689  1.0000
  C   C49       1.0  0.6882700000000003  0.8453300000000002  0.30746  1.0000
  C   C50       1.0  0.83834  0.59909  0.42221999999999993  1.0000
  C   C51       1.0  0.8181700000000002  0.5870500000000002  0.47437  1.0000
  C   C52       1.0  0.8810900000000003  0.54872  0.50471  1.0000
  C   C53       1.0  0.9660900000000001  0.5205100000000001  0.48411999999999994  1.0000
  C   C54       1.0  0.9844800000000002  0.53281  0.43163  1.0000
  C   C55       1.0  0.9223800000000001  0.57139  0.40127999999999997  1.0000
  C   C56       1.0  0.77102  0.6374600000000001  0.38859  1.0000
  C   C57       1.0  0.84509  0.6277000000000003  0.67272  1.0000
  C   C58       1.0  0.7656000000000001  0.67332  0.679  1.0000
  C   C59       1.0  0.7829800000000001  0.7660400000000002  0.6794999999999999  1.0000
  C   C60       1.0  0.8803500000000001  0.8167100000000003  0.6741300000000001  1.0000
  C   C61       1.0  0.95903  0.7699700000000003  0.6664  1.0000
  C   C62       1.0  0.94184  0.67686  0.66566  1.0000
  C   C63       1.0  0.8993600000000003  0.9165600000000003  0.6786  1.0000
  C   C64       1.0  0.8236800000000001  0.9574700000000003  0.65939  1.0000
  C   C65       1.0  0.84229  0.051810000000000044  0.6653200000000001  1.0000
  C   C66       1.0  0.93639  0.10946000000000002  0.6912799999999999  1.0000
  C   C67       1.0  0.011349999999999992  0.06902999999999998  0.71111  1.0000
  C   C68       1.0  0.9934300000000005  0.9745600000000002  0.7043  1.0000
  C   C69       1.0  0.82412  0.5295800000000003  0.6752699999999999  1.0000
  C   C70       1.0  0.95555  0.21081000000000005  0.6974  1.0000
  C   C71       1.0  0.86885  0.45455999999999996  0.8648999999999999  1.0000
  C   C72       1.0  0.8352500000000002  0.50755  0.9083199999999999  1.0000
  C   C73       1.0  0.8866000000000003  0.5254700000000002  0.96081  1.0000
  C   C74       1.0  0.9728600000000002  0.4907700000000001  0.9720199999999999  1.0000
  C   C75       1.0  0.005720000000000031  0.4379000000000001  0.92767  1.0000
  C   C76       1.0  0.9552600000000002  0.42038  0.87506  1.0000
  C   C77       1.0  0.81489  0.43460000000000004  0.80852  1.0000
  C   C78       1.0  0.5747900000000001  0.20781000000000005  0.60226  1.0000
  C   C79       1.0  0.49035  0.19368  0.56257  1.0000
  C   C80       1.0  0.4622700000000001  0.11308  0.52265  1.0000
  C   C81       1.0  0.5160700000000001  0.04341999999999999  0.52084  1.0000
  C   C82       1.0  0.60207  0.05988999999999999  0.56042  1.0000
  C   C83       1.0  0.63093  0.14045  0.59999  1.0000
  C   C84       1.0  0.6053700000000002  0.28847  0.64806  1.0000
  C   C85       1.0  0.43418000000000007  0.4181800000000001  0.85474  1.0000
  C   C86       1.0  0.35923  0.4342100000000001  0.88852  1.0000
  C   C87       1.0  0.3846700000000001  0.4656900000000001  0.94462  1.0000
  C   C88       1.0  0.4862300000000001  0.4825200000000001  0.97003  1.0000
  C   C89       1.0  0.56016  0.46457000000000004  0.9356399999999999  1.0000
  C   C90       1.0  0.53529  0.43346000000000007  0.8793399999999999  1.0000
  C   C91       1.0  0.40406  0.38553  0.7946  1.0000
  C   C92       1.0  0.45145  0.6429300000000002  0.7122  1.0000
  C   C93       1.0  0.35091000000000017  0.6435700000000002  0.69342  1.0000
  C   C94       1.0  0.32582000000000005  0.7258199999999999  0.6903199999999999  1.0000
  C   C95       1.0  0.40149  0.80817  0.70393  1.0000
  C   C96       1.0  0.50205  0.80688  0.72264  1.0000
  C   C97       1.0  0.5263600000000003  0.7252100000000002  0.72783  1.0000
  C   C98       1.0  0.3766700000000001  0.8955600000000002  0.69959  1.0000
  C   C99       1.0  0.29431000000000007  0.9215200000000001  0.7237699999999999  1.0000
  C   C100      1.0  0.27409000000000006  0.005919999999999946  0.7218899999999999  1.0000
  C   C101      1.0  0.33389  0.06490000000000001  0.69463  1.0000
  C   C102      1.0  0.41516000000000003  0.03882000000000001  0.66967  1.0000
  C   C103      1.0  0.4367100000000001  0.95522  0.67256  1.0000
  C   C104      1.0  0.4793600000000001  0.5547100000000003  0.71311  1.0000
  C   C105      1.0  0.31173000000000023  0.1546700000000001  0.69253  1.0000
  C   C106      1.0  0.16166000000000003  0.40091  0.57778  1.0000
  C   C107      1.0  0.18183000000000002  0.4129500000000001  0.52563  1.0000
  C   C108      1.0  0.11891000000000003  0.4512800000000001  0.49528999999999995  1.0000
  C   C109      1.0  0.03391000000000005  0.4794900000000002  0.51588  1.0000
  C   C110      1.0  0.01552000000000004  0.4671900000000001  0.56837  1.0000
  C   C111      1.0  0.07761999999999997  0.42861  0.59872  1.0000
  C   C112      1.0  0.22899000000000003  0.3625400000000001  0.61141  1.0000
  O   O1        1.0  0.26491  0.50974  0.31684  1.0000
  O   O2        1.0  0.10504000000000002  0.51485  0.33076000000000005  1.0000
  O   O3        1.0  0.11433000000000006  0.75835  0.32508  1.0000
  O   O4        1.0  0.96121  0.73691  0.27521  1.0000
  O   O5        1.0  0.27224000000000004  0.5459  0.19847  1.0000
  O   O6        1.0  0.1396100000000001  0.6014100000000002  0.22925999999999996  1.0000
  O   O7        1.0  0.31362000000000007  0.7016400000000003  0.31932  1.0000
  O   O8        1.0  0.44995000000000007  0.6523600000000002  0.3435  1.0000
  O   O9        1.0  0.52965  0.62712  0.23783  1.0000
  O   O10       1.0  0.69182  0.6286000000000003  0.22238  1.0000
  O   O11       1.0  0.5853500000000001  0.51754  0.31233  1.0000
  O   O12       1.0  0.43298000000000003  0.44274000000000013  0.26193  1.0000
  O   O13       1.0  0.62999  0.7923000000000002  0.33088  1.0000
  O   O14       1.0  0.76561  0.82616  0.28552  1.0000
  O   O15       1.0  0.6910700000000002  0.6583  0.4050599999999999  1.0000
  O   O16       1.0  0.79504  0.6451300000000002  0.34069999999999995  1.0000
  O   O17       1.0  0.7350900000000001  0.4902600000000001  0.68316  1.0000
  O   O18       1.0  0.8949600000000002  0.4851500000000001  0.6692399999999998  1.0000
  O   O19       1.0  0.8856700000000001  0.24165000000000006  0.67491  1.0000
  O   O20       1.0  0.03879000000000003  0.26309000000000005  0.72479  1.0000
  O   O21       1.0  0.72776  0.4541000000000001  0.80153  1.0000
  O   O22       1.0  0.8603900000000002  0.3985900000000001  0.77074  1.0000
  O   O23       1.0  0.68638  0.29836  0.68068  1.0000
  O   O24       1.0  0.5500500000000001  0.3476400000000001  0.6565  1.0000
  O   O25       1.0  0.4703600000000001  0.37288  0.76217  1.0000
  O   O26       1.0  0.30818  0.3714000000000001  0.77762  1.0000
  O   O27       1.0  0.41465  0.4824500000000001  0.68767  1.0000
  O   O28       1.0  0.5670200000000002  0.5572600000000002  0.73807  1.0000
  O   O29       1.0  0.3700100000000001  0.20770000000000008  0.6691200000000002  1.0000
  O   O30       1.0  0.23439  0.17384  0.71448  1.0000
  O   O31       1.0  0.30893  0.3417  0.59494  1.0000
  O   O32       1.0  0.20496  0.35487000000000013  0.6593  1.0000
