data_image0
_chemical_formula_structural       Ba8Cd4H32C64N8O56
_chemical_formula_sum              "Ba8 Cd4 H32 C64 N8 O56"
_cell_length_a       13.48407
_cell_length_b       18.04333
_cell_length_c       18.04321
_cell_angle_alpha    89.90608
_cell_angle_beta     90.0
_cell_angle_gamma    90.0

_space_group_name_H-M_alt    "P 1"
_space_group_IT_number       1

loop_
  _space_group_symop_operation_xyz
  'x, y, z'

loop_
  _atom_site_type_symbol
  _atom_site_label
  _atom_site_symmetry_multiplicity
  _atom_site_fract_x
  _atom_site_fract_y
  _atom_site_fract_z
  _atom_site_occupancy
  Ba  Ba1       1.0  0.17301  0.14072  0.61255  1.0000
  Ba  Ba2       1.0  0.67301  0.85927  0.38746  1.0000
  Ba  Ba3       1.0  0.42376  0.8885499999999998  0.64073  1.0000
  Ba  Ba4       1.0  0.92376  0.11144000000000001  0.35927  1.0000
  Ba  Ba5       1.0  0.07624  0.35927  0.11145  1.0000
  Ba  Ba6       1.0  0.57624  0.64072  0.88856  1.0000
  Ba  Ba7       1.0  0.82698  0.6125400000000001  0.14073  1.0000
  Ba  Ba8       1.0  0.32698  0.38745  0.8592799999999999  1.0000
  Cd  Cd1       1.0  0.25  0.33681  0.6631899999999998  1.0000
  Cd  Cd2       1.0  0.7499999999999999  0.66319  0.33681  1.0000
  Cd  Cd3       1.0  0.5  0.83629  0.8363  1.0000
  Cd  Cd4       1.0  0.0  0.16370000000000004  0.1637  1.0000
  H   H1        1.0  0.15676  0.23744  0.41832  1.0000
  H   H2        1.0  0.30018  0.3047500000000001  0.2159  1.0000
  H   H3        1.0  0.42705  0.37269  0.28879  1.0000
  H   H4        1.0  0.41546000000000005  0.37567  0.42766  1.0000
  H   H5        1.0  0.65676  0.7625600000000001  0.58168  1.0000
  H   H6        1.0  0.80018  0.69524  0.7841  1.0000
  H   H7        1.0  0.92705  0.6273100000000001  0.71121  1.0000
  H   H8        1.0  0.91546  0.62433  0.57235  1.0000
  H   H9        1.0  0.40642000000000006  0.08216  0.73719  1.0000
  H   H10       1.0  0.54991  0.28428  0.80461  1.0000
  H   H11       1.0  0.67657  0.21117  0.87273  1.0000
  H   H12       1.0  0.66502  0.07227  0.87563  1.0000
  H   H13       1.0  0.90642  0.91784  0.26281  1.0000
  H   H14       1.0  0.04991000000000001  0.71571  0.1954  1.0000
  H   H15       1.0  0.17657  0.78883  0.12727  1.0000
  H   H16       1.0  0.16502999999999998  0.9277200000000001  0.12438000000000002  1.0000
  H   H17       1.0  0.09358  0.2628  0.91785  1.0000
  H   H18       1.0  0.95009  0.19539000000000004  0.71572  1.0000
  H   H19       1.0  0.82343  0.12727  0.78883  1.0000
  H   H20       1.0  0.83497  0.12437  0.92773  1.0000
  H   H21       1.0  0.59358  0.73719  0.08216  1.0000
  H   H22       1.0  0.45009  0.8046  0.28428  1.0000
  H   H23       1.0  0.32343  0.87273  0.21117  1.0000
  H   H24       1.0  0.33497  0.87562  0.07228  1.0000
  H   H25       1.0  0.84323  0.41832  0.23744  1.0000
  H   H26       1.0  0.69982  0.2159  0.30475  1.0000
  H   H27       1.0  0.57294  0.28879  0.37269  1.0000
  H   H28       1.0  0.58454  0.42765000000000003  0.37567  1.0000
  H   H29       1.0  0.34323  0.5816800000000001  0.76256  1.0000
  H   H30       1.0  0.19982000000000003  0.78409  0.69525  1.0000
  H   H31       1.0  0.07294  0.71121  0.62731  1.0000
  H   H32       1.0  0.08454  0.57234  0.6243299999999999  1.0000
  C   C1        1.0  0.28605  0.30608  0.43127  1.0000
  C   C2        1.0  0.21595000000000003  0.26687  0.38994  1.0000
  C   C3        1.0  0.21966  0.26704000000000006  0.3125  1.0000
  C   C4        1.0  0.29632  0.30524  0.27612  1.0000
  C   C5        1.0  0.36763  0.34349  0.31731  1.0000
  C   C6        1.0  0.36202  0.34481  0.39463  1.0000
  C   C7        1.0  0.27607  0.30819  0.51368  1.0000
  C   C8        1.0  0.14014  0.22786  0.2705  1.0000
  C   C9        1.0  0.78605  0.69392  0.56874  1.0000
  C   C10       1.0  0.71595  0.73312  0.61007  1.0000
  C   C11       1.0  0.71965  0.73295  0.6875  1.0000
  C   C12       1.0  0.79632  0.69475  0.72388  1.0000
  C   C13       1.0  0.86763  0.6565  0.6827  1.0000
  C   C14       1.0  0.86202  0.65518  0.60537  1.0000
  C   C15       1.0  0.77607  0.6918  0.48632  1.0000
  C   C16       1.0  0.64014  0.77214  0.72951  1.0000
  C   C17       1.0  0.5356  0.0688  0.8062  1.0000
  C   C18       1.0  0.4656  0.11025  0.76685  1.0000
  C   C19       1.0  0.46945  0.18772  0.76674  1.0000
  C   C20       1.0  0.54595  0.22404  0.80509  1.0000
  C   C21       1.0  0.61713  0.18275  0.84354  1.0000
  C   C22       1.0  0.61153  0.10542  0.84487  1.0000
  C   C23       1.0  0.52618  0.9863100000000001  0.80834  1.0000
  C   C24       1.0  0.39021  0.22968000000000002  0.72689  1.0000
  C   C25       1.0  0.0356  0.93119  0.1938  1.0000
  C   C26       1.0  0.9656  0.88975  0.23315999999999998  1.0000
  C   C27       1.0  0.96945  0.81227  0.23326  1.0000
  C   C28       1.0  0.045950000000000005  0.77595  0.19491  1.0000
  C   C29       1.0  0.11713  0.81724  0.15647  1.0000
  C   C30       1.0  0.11153  0.89457  0.15514  1.0000
  C   C31       1.0  0.026179999999999995  0.013680000000000005  0.19167  1.0000
  C   C32       1.0  0.89021  0.77032  0.27312  1.0000
  C   C33       1.0  0.9644000000000001  0.19380000000000003  0.9312  1.0000
  C   C34       1.0  0.0344  0.23315  0.88975  1.0000
  C   C35       1.0  0.03055  0.23326000000000002  0.81228  1.0000
  C   C36       1.0  0.9540499999999998  0.19491  0.77596  1.0000
  C   C37       1.0  0.88287  0.15646  0.81725  1.0000
  C   C38       1.0  0.88846  0.15513  0.89458  1.0000
  C   C39       1.0  0.97382  0.19167  0.01368  1.0000
  C   C40       1.0  0.10978  0.27311  0.77032  1.0000
  C   C41       1.0  0.4644  0.80619  0.0688  1.0000
  C   C42       1.0  0.5344  0.76684  0.11025  1.0000
  C   C43       1.0  0.53055  0.76674  0.18773  1.0000
  C   C44       1.0  0.45405  0.80509  0.22405  1.0000
  C   C45       1.0  0.38287  0.84353  0.18275  1.0000
  C   C46       1.0  0.38847  0.84486  0.10542  1.0000
  C   C47       1.0  0.47382  0.80833  0.9863200000000001  1.0000
  C   C48       1.0  0.6097799999999999  0.72688  0.22968  1.0000
  C   C49       1.0  0.71395  0.43126000000000003  0.30608  1.0000
  C   C50       1.0  0.78405  0.38993  0.26687  1.0000
  C   C51       1.0  0.78034  0.3125  0.26704  1.0000
  C   C52       1.0  0.70368  0.27612  0.30524  1.0000
  C   C53       1.0  0.63237  0.3173  0.34349  1.0000
  C   C54       1.0  0.63798  0.39463  0.34482  1.0000
  C   C55       1.0  0.72392  0.51368  0.3082  1.0000
  C   C56       1.0  0.85986  0.27049  0.22786  1.0000
  C   C57       1.0  0.21395  0.56873  0.69392  1.0000
  C   C58       1.0  0.28405  0.61006  0.73313  1.0000
  C   C59       1.0  0.28034  0.68749  0.73296  1.0000
  C   C60       1.0  0.20368  0.72388  0.6947599999999999  1.0000
  C   C61       1.0  0.13237  0.68269  0.65651  1.0000
  C   C62       1.0  0.13798  0.60536  0.65519  1.0000
  C   C63       1.0  0.22392  0.48632000000000003  0.6918099999999999  1.0000
  C   C64       1.0  0.35986  0.7295  0.77214  1.0000
  N   N1        1.0  0.9581  0.10205  0.54129  1.0000
  N   N2        1.0  0.4581  0.89795  0.45871  1.0000
  N   N3        1.0  0.20694  0.95845  0.60331  1.0000
  N   N4        1.0  0.70694  0.04154  0.39669  1.0000
  N   N5        1.0  0.29306  0.39669000000000004  0.04154  1.0000
  N   N6        1.0  0.79306  0.60331  0.95846  1.0000
  N   N7        1.0  0.04190000000000001  0.54129  0.10205  1.0000
  N   N8        1.0  0.5419  0.45871  0.89795  1.0000
  O   O1        1.0  0.02943  0.12616  0.49873999999999996  1.0000
  O   O2        1.0  0.96984  0.10378  0.61059  1.0000
  O   O3        1.0  0.88019  0.07813  0.51153  1.0000
  O   O4        1.0  0.20998  0.26646  0.5442  1.0000
  O   O5        1.0  0.33014  0.35192000000000007  0.55104  1.0000
  O   O6        1.0  0.085  0.18156  0.30364  1.0000
  O   O7        1.0  0.12982  0.24365  0.20103  1.0000
  O   O8        1.0  0.52943  0.87383  0.50126  1.0000
  O   O9        1.0  0.46984000000000004  0.8962100000000001  0.38941  1.0000
  O   O10       1.0  0.3801899999999999  0.9218699999999999  0.48848  1.0000
  O   O11       1.0  0.70998  0.73354  0.4558  1.0000
  O   O12       1.0  0.83014  0.64808  0.44896  1.0000
  O   O13       1.0  0.585  0.81844  0.69636  1.0000
  O   O14       1.0  0.62982  0.75635  0.79897  1.0000
  O   O15       1.0  0.27709  0.0027800000000000004  0.62629  1.0000
  O   O16       1.0  0.22018  0.8893400000000001  0.60749  1.0000
  O   O17       1.0  0.12867  0.98624  0.57806  1.0000
  O   O18       1.0  0.46014  0.95573  0.76666  1.0000
  O   O19       1.0  0.58059  0.9489499999999998  0.85189  1.0000
  O   O20       1.0  0.33467  0.19607  0.68138  1.0000
  O   O21       1.0  0.38034  0.29944  0.7412099999999999  1.0000
  O   O22       1.0  0.77709  0.99722  0.37371  1.0000
  O   O23       1.0  0.72018  0.11065000000000001  0.39251  1.0000
  O   O24       1.0  0.62867  0.013750000000000002  0.42194  1.0000
  O   O25       1.0  0.96014  0.04426  0.23333999999999996  1.0000
  O   O26       1.0  0.08059  0.05105  0.14811  1.0000
  O   O27       1.0  0.83467  0.80392  0.31862  1.0000
  O   O28       1.0  0.88034  0.70055  0.2588  1.0000
  O   O29       1.0  0.22291000000000002  0.37371000000000004  0.99722  1.0000
  O   O30       1.0  0.27982  0.39251  0.11065  1.0000
  O   O31       1.0  0.37133  0.42194  0.01375  1.0000
  O   O32       1.0  0.03986  0.23334  0.04426  1.0000
  O   O33       1.0  0.91941  0.14811  0.05105  1.0000
  O   O34       1.0  0.16533  0.31862000000000007  0.80393  1.0000
  O   O35       1.0  0.11966  0.25879  0.70056  1.0000
  O   O36       1.0  0.72291  0.62629  0.00279  1.0000
  O   O37       1.0  0.77982  0.6074900000000001  0.8893499999999999  1.0000
  O   O38       1.0  0.87132  0.57805  0.98625  1.0000
  O   O39       1.0  0.53986  0.76665  0.95574  1.0000
  O   O40       1.0  0.41941  0.85188  0.94896  1.0000
  O   O41       1.0  0.66533  0.68138  0.19608  1.0000
  O   O42       1.0  0.61966  0.7412  0.29943999999999993  1.0000
  O   O43       1.0  0.97056  0.49874000000000007  0.12616  1.0000
  O   O44       1.0  0.030160000000000003  0.61059  0.10378  1.0000
  O   O45       1.0  0.11981  0.51152  0.07813  1.0000
  O   O46       1.0  0.79002  0.5442  0.26646  1.0000
  O   O47       1.0  0.66986  0.55104  0.35192  1.0000
  O   O48       1.0  0.915  0.30364  0.18155999999999997  1.0000
  O   O49       1.0  0.87018  0.20103  0.24365  1.0000
  O   O50       1.0  0.47057  0.50125  0.87384  1.0000
  O   O51       1.0  0.53016  0.38941  0.89622  1.0000
  O   O52       1.0  0.61981  0.48847000000000007  0.92187  1.0000
  O   O53       1.0  0.29002  0.45580000000000004  0.73354  1.0000
  O   O54       1.0  0.16985999999999998  0.44896  0.64808  1.0000
  O   O55       1.0  0.415  0.69635  0.81844  1.0000
  O   O56       1.0  0.37018  0.7989600000000001  0.75636  1.0000
