data_image0
_chemical_formula_structural       Tb4Cu16H48C72I16N12O24
_chemical_formula_sum              "Tb4 Cu16 H48 C72 I16 N12 O24"
_cell_length_a       8.3002
_cell_length_b       14.88301
_cell_length_c       28.898919999999997
_cell_angle_alpha    100.9806
_cell_angle_beta     90.0068
_cell_angle_gamma    89.97221000000002

_symmetry_space_group_name_H-M    'P 1'
_symmetry_Int_Tables_number       1

loop_
  _symmetry_equiv_pos_as_xyz
  'x,y,z'

loop_
  _atom_site_type_symbol
  _atom_site_label
  _atom_site_symmetry_multiplicity
  _atom_site_fract_x
  _atom_site_fract_y
  _atom_site_fract_z
  _atom_site_occupancy
  Tb  Tb1       1.0  0.21421  0.4493599999999999  0.48783  1.0000
  Tb  Tb2       1.0  0.72043  0.05042999999999999  0.01216  1.0000
  Tb  Tb3       1.0  0.7805  0.5502499999999999  0.51138  1.0000
  Tb  Tb4       1.0  0.28076  0.9509099999999998  0.988  1.0000
  Cu  Cu1       1.0  0.83392  0.36659000000000014  0.7808500000000002  1.0000
  Cu  Cu2       1.0  0.11088  0.41748999999999997  0.74869  1.0000
  Cu  Cu3       1.0  0.10417  0.3580699999999999  0.82406  1.0000
  Cu  Cu4       1.0  0.9496900000000003  0.51783  0.81881  1.0000
  Cu  Cu5       1.0  0.33405  0.13348  0.71918  1.0000
  Cu  Cu6       1.0  0.61084  0.08241999999999994  0.75126  1.0000
  Cu  Cu7       1.0  0.60435  0.14202999999999993  0.67591  1.0000
  Cu  Cu8       1.0  0.44947  0.98221  0.68122  1.0000
  Cu  Cu9       1.0  0.1661  0.6335199999999997  0.21920000000000006  1.0000
  Cu  Cu10      1.0  0.8891  0.5825299999999998  0.25127  1.0000
  Cu  Cu11      1.0  0.89571  0.6419899999999997  0.17596  1.0000
  Cu  Cu12      1.0  0.050060000000000014  0.48238999999999993  0.18127  1.0000
  Cu  Cu13      1.0  0.6659300000000002  0.86657  0.28087  1.0000
  Cu  Cu14      1.0  0.38915000000000005  0.9173999999999998  0.24874  1.0000
  Cu  Cu15      1.0  0.3959  0.8580599999999998  0.32404  1.0000
  Cu  Cu16      1.0  0.55025  0.018070000000000034  0.3188400000000001  1.0000
  H   H1        1.0  0.56221  0.80185  0.6277  1.0000
  H   H2        1.0  0.43299  0.6586899999999998  0.5828  1.0000
  H   H3        1.0  0.97087  0.7764799999999997  0.62736  1.0000
  H   H4        1.0  0.11826  0.9131499999999999  0.6718600000000001  1.0000
  H   H5        1.0  0.17539  0.308  0.65584  1.0000
  H   H6        1.0  0.31531  0.32622  0.58172  1.0000
  H   H7        1.0  0.50561  0.5823999999999998  0.6569000000000002  1.0000
  H   H8        1.0  0.35279  0.55506  0.72796  1.0000
  H   H9        1.0  0.11401  0.8999999999999999  0.39203000000000005  1.0000
  H   H10       1.0  0.96323  0.8136599999999998  0.44550000000000006  1.0000
  H   H11       1.0  0.25439  0.5785499999999998  0.38975  1.0000
  H   H12       1.0  0.39167  0.6730099999999998  0.33841  1.0000
  H   H13       1.0  0.06168  0.6985799999999998  0.8724500000000002  1.0000
  H   H14       1.0  0.93241  0.8416599999999997  0.91736  1.0000
  H   H15       1.0  0.4702  0.7232499999999997  0.87255  1.0000
  H   H16       1.0  0.61858  0.58701  0.82818  1.0000
  H   H17       1.0  0.67475  0.1922699999999999  0.84387  1.0000
  H   H18       1.0  0.81473  0.17432999999999996  0.91817  1.0000
  H   H19       1.0  0.00541  0.9180599999999997  0.84339  1.0000
  H   H20       1.0  0.85299  0.9448899999999997  0.77208  1.0000
  H   H21       1.0  0.61358  0.6004099999999998  0.10783000000000002  1.0000
  H   H22       1.0  0.46281  0.6863  0.05436  1.0000
  H   H23       1.0  0.75431  0.9216  0.11011000000000003  1.0000
  H   H24       1.0  0.89132  0.82708  0.16146000000000005  1.0000
  H   H25       1.0  0.43771  0.19884999999999997  0.37256  1.0000
  H   H26       1.0  0.56782  0.3417  0.41742  1.0000
  H   H27       1.0  0.02955  0.22322000000000003  0.3724200000000001  1.0000
  H   H28       1.0  0.88157  0.08677  0.32813  1.0000
  H   H29       1.0  0.82487  0.6920899999999998  0.34397  1.0000
  H   H30       1.0  0.68512  0.67412  0.41817  1.0000
  H   H31       1.0  0.49442  0.4178399999999998  0.34321000000000007  1.0000
  H   H32       1.0  0.64715  0.4450699999999999  0.27201  1.0000
  H   H33       1.0  0.88666  0.10014999999999998  0.60781  1.0000
  H   H34       1.0  0.03725  0.18625999999999998  0.55446  1.0000
  H   H35       1.0  0.74575  0.42148999999999986  0.6101  1.0000
  H   H36       1.0  0.60863  0.3271499999999999  0.66153  1.0000
  H   H37       1.0  0.93802  0.30171  0.12774  1.0000
  H   H38       1.0  0.06773  0.15876  0.08276  1.0000
  H   H39       1.0  0.52967  0.2772699999999999  0.12753  1.0000
  H   H40       1.0  0.38137  0.4135299999999999  0.17206  1.0000
  H   H41       1.0  0.3251  0.8078199999999998  0.15603000000000003  1.0000
  H   H42       1.0  0.18562  0.82595  0.08177  1.0000
  H   H43       1.0  0.99483  0.08199999999999998  0.1567  1.0000
  H   H44       1.0  0.14703  0.05490999999999998  0.22791  1.0000
  H   H45       1.0  0.38613  0.40019000000000005  0.8920700000000001  1.0000
  H   H46       1.0  0.5374600000000003  0.31405  0.94548  1.0000
  H   H47       1.0  0.24667000000000003  0.07876999999999995  0.88994  1.0000
  H   H48       1.0  0.10865  0.17288  0.8385800000000002  1.0000
  C   C1        1.0  0.4318800000000001  0.7927499999999995  0.62676  1.0000
  C   C2        1.0  0.3596  0.714  0.60183  1.0000
  C   C3        1.0  0.19141  0.7073699999999998  0.60124  1.0000
  C   C4        1.0  0.10178  0.7796199999999998  0.62692  1.0000
  C   C5        1.0  0.18296  0.8555299999999999  0.65143  1.0000
  C   C6        1.0  0.10883000000000002  0.6271099999999997  0.57204  1.0000
  C   C7        1.0  0.24709000000000003  0.36845999999999995  0.6542700000000002  1.0000
  C   C8        1.0  0.32579  0.3787399999999999  0.61321  1.0000
  C   C9        1.0  0.41673  0.45776999999999995  0.61305  1.0000
  C   C10       1.0  0.43105  0.52182  0.6551600000000002  1.0000
  C   C11       1.0  0.34703  0.50695  0.69459  1.0000
  C   C12       1.0  0.49341  0.47422  0.56871  1.0000
  C   C13       1.0  0.14227000000000006  0.82915  0.39323  1.0000
  C   C14       1.0  0.05958000000000001  0.7815899999999998  0.42273  1.0000
  C   C15       1.0  0.10224  0.6905699999999998  0.4228800000000001  1.0000
  C   C16       1.0  0.22265  0.6500099999999998  0.39204  1.0000
  C   C17       1.0  0.29845  0.7019399999999998  0.36325  1.0000
  C   C18       1.0  0.01932  0.63841  0.45478  1.0000
  C   C19       1.0  0.93122  0.7073999999999999  0.87331  1.0000
  C   C20       1.0  0.85902  0.7861999999999998  0.89831  1.0000
  C   C21       1.0  0.6906400000000003  0.79272  0.89884  1.0000
  C   C22       1.0  0.6011700000000002  0.7205199999999999  0.87317  1.0000
  C   C23       1.0  0.6826200000000002  0.6446699999999997  0.84866  1.0000
  C   C24       1.0  0.6088400000000003  0.8730099999999997  0.92803  1.0000
  C   C25       1.0  0.74638  0.13171999999999995  0.84553  1.0000
  C   C26       1.0  0.82499  0.12170999999999994  0.88668  1.0000
  C   C27       1.0  0.9163700000000002  0.04279999999999998  0.88702  1.0000
  C   C28       1.0  0.93044  0.9784500000000002  0.8450000000000001  1.0000
  C   C29       1.0  0.8467200000000003  0.9930299999999996  0.80543  1.0000
  C   C30       1.0  0.9950400000000001  0.02781000000000007  0.9313600000000002  1.0000
  C   C31       1.0  0.6417  0.67122  0.1066  1.0000
  C   C32       1.0  0.55921  0.71878  0.07701  1.0000
  C   C33       1.0  0.60236  0.80974  0.07681  1.0000
  C   C34       1.0  0.72259  0.8501199999999998  0.10776000000000001  1.0000
  C   C35       1.0  0.7980600000000002  0.7981399999999997  0.13663  1.0000
  C   C36       1.0  0.51942  0.8627499999999998  0.0452  1.0000
  C   C37       1.0  0.56833  0.20734999999999995  0.37336  1.0000
  C   C38       1.0  0.64076  0.28617  0.39825  1.0000
  C   C39       1.0  0.80906  0.2929499999999999  0.39853000000000005  1.0000
  C   C40       1.0  0.89861  0.22041  0.37300000000000005  1.0000
  C   C41       1.0  0.8172100000000001  0.14441999999999994  0.34863  1.0000
  C   C42       1.0  0.89138  0.3733599999999999  0.42741  1.0000
  C   C43       1.0  0.75339  0.63153  0.34562  1.0000
  C   C44       1.0  0.67479  0.62138  0.38673  1.0000
  C   C45       1.0  0.58356  0.54248  0.38705  1.0000
  C   C46       1.0  0.56942  0.47826999999999986  0.3449500000000001  1.0000
  C   C47       1.0  0.65329  0.4930499999999999  0.30543  1.0000
  C   C48       1.0  0.50538  0.52738  0.43146  1.0000
  C   C49       1.0  0.85821  0.1709700000000001  0.6066200000000003  1.0000
  C   C50       1.0  0.94068  0.21852999999999995  0.57707  1.0000
  C   C51       1.0  0.89742  0.3094899999999999  0.57688  1.0000
  C   C52       1.0  0.77721  0.34997  0.60781  1.0000
  C   C53       1.0  0.70176  0.29807  0.63667  1.0000
  C   C54       1.0  0.97972  0.3623599999999999  0.54517  1.0000
  C   C55       1.0  0.06858  0.29309  0.12687  1.0000
  C   C56       1.0  0.14084  0.21427  0.10187  1.0000
  C   C57       1.0  0.3092  0.20771999999999993  0.10127  1.0000
  C   C58       1.0  0.39866  0.2799899999999999  0.12697  1.0000
  C   C59       1.0  0.31732  0.35587999999999986  0.15152000000000002  1.0000
  C   C60       1.0  0.39145  0.12736  0.07218  1.0000
  C   C61       1.0  0.2535800000000001  0.8682699999999998  0.15429  1.0000
  C   C62       1.0  0.17506  0.87854  0.11321  1.0000
  C   C63       1.0  0.08385  0.9574499999999999  0.11295000000000002  1.0000
  C   C64       1.0  0.06974  0.021600000000000005  0.15504  1.0000
  C   C65       1.0  0.15345  0.006749999999999996  0.19455  1.0000
  C   C66       1.0  0.00545  0.9727399999999998  0.06862  1.0000
  C   C67       1.0  0.35827  0.32929  0.89327  1.0000
  C   C68       1.0  0.44122000000000006  0.28172  0.9227500000000001  1.0000
  C   C69       1.0  0.39836  0.19081  0.92297  1.0000
  C   C70       1.0  0.27814  0.15020999999999998  0.89211  1.0000
  C   C71       1.0  0.2021  0.20206  0.86332  1.0000
  C   C72       1.0  0.48035  0.1381499999999999  0.95483  1.0000
  I   I1        1.0  0.06677  0.23183000000000004  0.7396900000000002  1.0000
  I   I2        1.0  0.82629  0.40002  0.8755700000000001  1.0000
  I   I3        1.0  0.27002  0.5215399999999999  0.82581  1.0000
  I   I4        1.0  0.82541  0.4976799999999999  0.7286  1.0000
  I   I5        1.0  0.56676  0.2681999999999999  0.76028  1.0000
  I   I6        1.0  0.32643  0.09992000000000002  0.6244100000000001  1.0000
  I   I7        1.0  0.76984  0.9783199999999997  0.6741800000000002  1.0000
  I   I8        1.0  0.32562  0.0022800000000000173  0.77139  1.0000
  I   I9        1.0  0.93321  0.76822  0.2603  1.0000
  I   I10       1.0  0.17356  0.6000899999999998  0.12444  1.0000
  I   I11       1.0  0.72963  0.47858999999999996  0.1742  1.0000
  I   I12       1.0  0.17443  0.50246  0.27146  1.0000
  I   I13       1.0  0.43334  0.7317199999999998  0.23976  1.0000
  I   I14       1.0  0.67355  0.8998899999999997  0.37558  1.0000
  I   I15       1.0  0.22975  0.021419999999999974  0.32582  1.0000
  I   I16       1.0  0.67435  0.9975799999999998  0.2286  1.0000
  N   N1        1.0  0.34558  0.8633799999999999  0.6509700000000003  1.0000
  N   N2        1.0  0.25391  0.43231999999999987  0.69428  1.0000
  N   N3        1.0  0.26173  0.7906399999999996  0.36415  1.0000
  N   N4        1.0  0.84522  0.63678  0.84902  1.0000
  N   N5        1.0  0.75369  0.06770000000000005  0.8055800000000002  1.0000
  N   N6        1.0  0.76136  0.7094599999999998  0.13567  1.0000
  N   N7        1.0  0.6545  0.13668  0.34907  1.0000
  N   N8        1.0  0.74628  0.5677  0.3056  1.0000
  N   N9        1.0  0.73874  0.20939999999999995  0.63574  1.0000
  N   N10       1.0  0.15463  0.36374  0.15114  1.0000
  N   N11       1.0  0.24634  0.9320499999999998  0.19432  1.0000
  N   N12       1.0  0.23855  0.2907899999999999  0.86427  1.0000
  O   O1        1.0  0.19771  0.55896  0.55395  1.0000
  O   O2        1.0  0.95749  0.6323099999999998  0.5662  1.0000
  O   O3        1.0  0.44695  0.42626999999999987  0.52934  1.0000
  O   O4        1.0  0.60255  0.53579  0.57184  1.0000
  O   O5        1.0  0.88398  0.66529  0.47278000000000003  1.0000
  O   O6        1.0  0.086  0.56492  0.46313  1.0000
  O   O7        1.0  0.69911  0.9403199999999999  0.94628  1.0000
  O   O8        1.0  0.45714  0.8685599999999998  0.93376  1.0000
  O   O9        1.0  0.95213  0.07734000000000005  0.9706700000000001  1.0000
  O   O10       1.0  0.10372  0.9657399999999997  0.9282800000000001  1.0000
  O   O11       1.0  0.38408  0.83577  0.027310000000000004  1.0000
  O   O12       1.0  0.58667  0.9362399999999997  0.03721  1.0000
  O   O13       1.0  0.80211  0.44038999999999984  0.44653  1.0000
  O   O14       1.0  0.04350000000000001  0.3692699999999999  0.43228  1.0000
  O   O15       1.0  0.55046  0.57659  0.4706300000000001  1.0000
  O   O16       1.0  0.39604  0.46590999999999994  0.4282  1.0000
  O   O17       1.0  0.11516  0.3354199999999999  0.5271  1.0000
  O   O18       1.0  0.9127700000000002  0.43588  0.53716  1.0000
  O   O19       1.0  0.30143  0.059980000000000006  0.05373  1.0000
  O   O20       1.0  0.54337  0.13206  0.06697  1.0000
  O   O21       1.0  0.04855  0.9233099999999997  0.029330000000000002  1.0000
  O   O22       1.0  0.89692  0.03488  0.07176  1.0000
  O   O23       1.0  0.6161300000000002  0.16442999999999994  0.97267  1.0000
  O   O24       1.0  0.41186  0.06538999999999999  0.96316  1.0000
