data_image0
_chemical_formula_structural       Cd6H72C72N24O24
_chemical_formula_sum              "Cd6 H72 C72 N24 O24"
_cell_length_a       12.17043
_cell_length_b       15.816439999999998
_cell_length_c       15.823769999999998
_cell_angle_alpha    113.76875
_cell_angle_beta     104.95176999999998
_cell_angle_gamma    104.95362

_space_group_name_H-M_alt    "P 1"
_space_group_IT_number       1

loop_
  _space_group_symop_operation_xyz
  'x, y, z'

loop_
  _atom_site_type_symbol
  _atom_site_label
  _atom_site_symmetry_multiplicity
  _atom_site_fract_x
  _atom_site_fract_y
  _atom_site_fract_z
  _atom_site_occupancy
  Cd  Cd1       1.0  0.74958  0.24555999999999994  0.75427  1.0000
  Cd  Cd2       1.0  0.50355  0.50799  0.75392  1.0000
  Cd  Cd3       1.0  0.99573  0.24585  0.49167  1.0000
  Cd  Cd4       1.0  0.2504299999999999  0.7544399999999998  0.24573000000000003  1.0000
  Cd  Cd5       1.0  0.49645999999999996  0.49201  0.24609000000000006  1.0000
  Cd  Cd6       1.0  0.0042800000000000425  0.75415  0.50833  1.0000
  H   H1        1.0  0.50597  0.15143000000000006  0.54313  1.0000
  H   H2        1.0  0.48555  0.04109000000000003  0.34452000000000005  1.0000
  H   H3        1.0  0.6856199999999998  0.8660299999999997  0.35800000000000004  1.0000
  H   H4        1.0  0.6557700000000002  0.84307  0.23392  1.0000
  H   H5        1.0  0.64434  0.00982  0.27884  1.0000
  H   H6        1.0  0.7885099999999999  0.026169999999999978  0.35994  1.0000
  H   H7        1.0  0.35349  0.3910899999999999  0.84708  1.0000
  H   H8        1.0  0.44417999999999996  0.3048  0.9590400000000002  1.0000
  H   H9        1.0  0.8192699999999999  0.4939199999999999  0.13563  1.0000
  H   H10       1.0  0.8119400000000001  0.39213  0.15748000000000006  1.0000
  H   H11       1.0  0.6348499999999999  0.26960999999999996  0.98945  1.0000
  H   H12       1.0  0.76321  0.33635  0.97518  1.0000
  H   H13       1.0  0.96296  0.4568099999999999  0.6086  1.0000
  H   H14       1.0  0.14127000000000015  0.6556  0.6954500000000002  1.0000
  H   H15       1.0  0.32432999999999995  0.64136  0.5066  1.0000
  H   H16       1.0  0.42108000000000007  0.76538  0.6077700000000001  1.0000
  H   H17       1.0  0.36642  0.7213899999999998  0.73095  1.0000
  H   H18       1.0  0.42883999999999994  0.6405  0.6651300000000002  1.0000
  H   H19       1.0  0.53695  0.39115  0.54339  1.0000
  H   H20       1.0  0.35924  0.30452  0.34455  1.0000
  H   H21       1.0  0.17568  0.49338  0.35837  1.0000
  H   H22       1.0  0.07997999999999997  0.39211  0.23417  1.0000
  H   H23       1.0  0.13406  0.26902  0.27838  1.0000
  H   H24       1.0  0.07133000000000005  0.33481  0.35912  1.0000
  H   H25       1.0  0.99365  0.45661  0.84831  1.0000
  H   H26       1.0  0.014629999999999978  0.65541  0.959  1.0000
  H   H27       1.0  0.81542  0.64228  0.13446  1.0000
  H   H28       1.0  0.8450899999999998  0.7663099999999999  0.15727  1.0000
  H   H29       1.0  0.85589  0.7213200000000001  0.9903800000000001  1.0000
  H   H30       1.0  0.7119100000000003  0.6403  0.9743900000000002  1.0000
  H   H31       1.0  0.14642000000000013  0.1529800000000001  0.6088500000000002  1.0000
  H   H32       1.0  0.05579000000000002  0.041010000000000026  0.69515  1.0000
  H   H33       1.0  0.6811699999999999  0.8642900000000001  0.5061  1.0000
  H   H34       1.0  0.6882200000000004  0.8424  0.6078000000000002  1.0000
  H   H35       1.0  0.8652000000000001  0.01074000000000007  0.7304800000000001  1.0000
  H   H36       1.0  0.73677  0.024669999999999997  0.66358  1.0000
  H   H37       1.0  0.49404  0.84857  0.45687  1.0000
  H   H38       1.0  0.51446  0.95891  0.6554900000000001  1.0000
  H   H39       1.0  0.31439  0.13397  0.642  1.0000
  H   H40       1.0  0.34424000000000016  0.15693000000000007  0.7660800000000002  1.0000
  H   H41       1.0  0.35567000000000004  0.99018  0.72117  1.0000
  H   H42       1.0  0.2115000000000001  0.9738300000000001  0.6400600000000001  1.0000
  H   H43       1.0  0.64652  0.6089099999999997  0.15292  1.0000
  H   H44       1.0  0.55583  0.6951999999999999  0.04096  1.0000
  H   H45       1.0  0.1807400000000001  0.50608  0.86437  1.0000
  H   H46       1.0  0.18806999999999985  0.6078799999999998  0.84252  1.0000
  H   H47       1.0  0.36516  0.7303899999999998  0.010550000000000002  1.0000
  H   H48       1.0  0.23680000000000007  0.66365  0.024820000000000002  1.0000
  H   H49       1.0  0.03705  0.54319  0.39141  1.0000
  H   H50       1.0  0.8587399999999998  0.3444  0.30456  1.0000
  H   H51       1.0  0.6756800000000002  0.3586500000000001  0.4934100000000001  1.0000
  H   H52       1.0  0.5789299999999998  0.23461999999999997  0.39223000000000013  1.0000
  H   H53       1.0  0.63359  0.27861  0.26905  1.0000
  H   H54       1.0  0.57117  0.35951000000000005  0.33487000000000006  1.0000
  H   H55       1.0  0.4630600000000001  0.60885  0.4566100000000001  1.0000
  H   H56       1.0  0.6407700000000001  0.69549  0.65545  1.0000
  H   H57       1.0  0.82433  0.50662  0.6416300000000003  1.0000
  H   H58       1.0  0.9200300000000001  0.6079  0.76584  1.0000
  H   H59       1.0  0.86595  0.73099  0.72163  1.0000
  H   H60       1.0  0.9286800000000001  0.66519  0.64089  1.0000
  H   H61       1.0  0.006359999999999997  0.54339  0.15170000000000006  1.0000
  H   H62       1.0  0.98538  0.34459  0.041  1.0000
  H   H63       1.0  0.18459000000000006  0.35772000000000004  0.8655400000000001  1.0000
  H   H64       1.0  0.1549200000000001  0.23369000000000006  0.8427300000000001  1.0000
  H   H65       1.0  0.14412  0.27868  0.00962  1.0000
  H   H66       1.0  0.2881  0.35969999999999996  0.025610000000000008  1.0000
  H   H67       1.0  0.85359  0.84702  0.39116  1.0000
  H   H68       1.0  0.9442200000000001  0.9589899999999999  0.30485  1.0000
  H   H69       1.0  0.31884  0.13571  0.4939  1.0000
  H   H70       1.0  0.3117900000000001  0.15760000000000005  0.39220000000000005  1.0000
  H   H71       1.0  0.13481  0.98927  0.26952  1.0000
  H   H72       1.0  0.26324  0.97533  0.33642000000000005  1.0000
  C   C1        1.0  0.73504  0.09189  0.52603  1.0000
  C   C2        1.0  0.56712  0.12088999999999998  0.51506  1.0000
  C   C3        1.0  0.55735  0.06956  0.41798  1.0000
  C   C4        1.0  0.63701  0.8811  0.30061  1.0000
  C   C5        1.0  0.49706  0.83046  0.27092  1.0000
  C   C6        1.0  0.68758  0.9945199999999998  0.33773  1.0000
  C   C7        1.0  0.6428699999999998  0.43462  0.9080400000000002  1.0000
  C   C8        1.0  0.4455  0.39412  0.8782000000000001  1.0000
  C   C9        1.0  0.4873099999999999  0.3491699999999999  0.93017  1.0000
  C   C10       1.0  0.75531  0.42073  0.11929000000000002  1.0000
  C   C11       1.0  0.66565  0.44103  0.16922  1.0000
  C   C12       1.0  0.69309  0.34456  0.0058200000000000005  1.0000
  C   C13       1.0  0.20881  0.47379  0.56552  1.0000
  C   C14       1.0  0.0520800000000001  0.48478000000000004  0.6058000000000002  1.0000
  C   C15       1.0  0.13954000000000014  0.5819900000000001  0.6511600000000001  1.0000
  C   C16       1.0  0.33516  0.69908  0.57992  1.0000
  C   C17       1.0  0.22547  0.72939  0.56049  1.0000
  C   C18       1.0  0.3500200000000001  0.66241  0.6562900000000003  1.0000
  C   C19       1.0  0.29099999999999987  0.4341499999999999  0.52596  1.0000
  C   C20       1.0  0.44787  0.39396999999999993  0.51527  1.0000
  C   C21       1.0  0.36068  0.34871  0.41804  1.0000
  C   C22       1.0  0.16542999999999994  0.4201399999999998  0.30088  1.0000
  C   C23       1.0  0.27551  0.43993  0.27115  1.0000
  C   C24       1.0  0.15029000000000003  0.34364  0.33737000000000006  1.0000
  C   C25       1.0  0.76487  0.47399  0.90813  1.0000
  C   C26       1.0  0.93264  0.48476  0.87896  1.0000
  C   C27       1.0  0.9426900000000002  0.58194  0.9304600000000002  1.0000
  C   C28       1.0  0.86366  0.69954  0.11909  1.0000
  C   C29       1.0  0.0035300000000000067  0.72919  0.16949  1.0000
  C   C30       1.0  0.8128  0.66242  0.00576  1.0000
  C   C31       1.0  0.85706  0.09202999999999995  0.56547  1.0000
  C   C32       1.0  0.05442000000000003  0.12186000000000004  0.60584  1.0000
  C   C33       1.0  0.012659999999999963  0.06991000000000004  0.65082  1.0000
  C   C34       1.0  0.74501  0.88058  0.57928  1.0000
  C   C35       1.0  0.8348400000000002  0.83077  0.55911  1.0000
  C   C36       1.0  0.8069700000000001  0.99412  0.6554400000000001  1.0000
  C   C37       1.0  0.26497  0.9081100000000001  0.47397000000000006  1.0000
  C   C38       1.0  0.43289  0.87912  0.4849400000000001  1.0000
  C   C39       1.0  0.44266  0.93044  0.58202  1.0000
  C   C40       1.0  0.36300000000000004  0.11891000000000006  0.6993900000000001  1.0000
  C   C41       1.0  0.50295  0.16954  0.72909  1.0000
  C   C42       1.0  0.31243000000000004  0.005490000000000073  0.6622800000000001  1.0000
  C   C43       1.0  0.35714  0.56539  0.09196  1.0000
  C   C44       1.0  0.55451  0.60588  0.1218  1.0000
  C   C45       1.0  0.5127  0.65083  0.06983  1.0000
  C   C46       1.0  0.24469999999999997  0.57927  0.88071  1.0000
  C   C47       1.0  0.33436  0.55897  0.83078  1.0000
  C   C48       1.0  0.30691999999999997  0.65544  0.99419  1.0000
  C   C49       1.0  0.7912  0.52622  0.43448  1.0000
  C   C50       1.0  0.9479300000000002  0.51522  0.39420000000000005  1.0000
  C   C51       1.0  0.8604700000000001  0.4180199999999999  0.34884  1.0000
  C   C52       1.0  0.6648500000000002  0.30092  0.42008  1.0000
  C   C53       1.0  0.77454  0.2706099999999999  0.43951  1.0000
  C   C54       1.0  0.64999  0.3376  0.34372  1.0000
  C   C55       1.0  0.70901  0.56585  0.47404  1.0000
  C   C56       1.0  0.55214  0.60603  0.48474  1.0000
  C   C57       1.0  0.6393299999999997  0.6512999999999998  0.58196  1.0000
  C   C58       1.0  0.83458  0.57987  0.69912  1.0000
  C   C59       1.0  0.7245000000000001  0.5600699999999997  0.72885  1.0000
  C   C60       1.0  0.84972  0.65636  0.66263  1.0000
  C   C61       1.0  0.23514  0.52601  0.09187  1.0000
  C   C62       1.0  0.06736999999999999  0.51525  0.12105  1.0000
  C   C63       1.0  0.05732000000000001  0.41806  0.06954  1.0000
  C   C64       1.0  0.13635000000000005  0.30046000000000006  0.8809200000000001  1.0000
  C   C65       1.0  0.9964800000000001  0.27082  0.8305100000000002  1.0000
  C   C66       1.0  0.1872100000000001  0.3375900000000001  0.9942500000000002  1.0000
  C   C67       1.0  0.14295000000000008  0.90797  0.4345400000000001  1.0000
  C   C68       1.0  0.94559  0.87814  0.39416  1.0000
  C   C69       1.0  0.98735  0.93009  0.34918  1.0000
  C   C70       1.0  0.255  0.11942  0.42072  1.0000
  C   C71       1.0  0.16517  0.16923  0.44089  1.0000
  C   C72       1.0  0.19303999999999996  0.005879999999999979  0.34456  1.0000
  N   N1        1.0  0.6773200000000004  0.1342  0.58167  1.0000
  N   N2        1.0  0.66349  0.05146999999999999  0.42531  1.0000
  N   N3        1.0  0.5425  0.44730000000000003  0.8650800000000001  1.0000
  N   N4        1.0  0.6118500000000001  0.37493000000000004  0.9488100000000002  1.0000
  N   N5        1.0  0.09541000000000001  0.41814000000000007  0.55254  1.0000
  N   N6        1.0  0.23823999999999998  0.57462  0.62565  1.0000
  N   N7        1.0  0.4042799999999999  0.4471  0.58173  1.0000
  N   N8        1.0  0.26187000000000005  0.37417  0.42521000000000003  1.0000
  N   N9        1.0  0.8223700000000002  0.41822  0.86566  1.0000
  N   N10       1.0  0.8366400000000002  0.5747400000000003  0.9486600000000002  1.0000
  N   N11       1.0  0.95738  0.13495  0.5527  1.0000
  N   N12       1.0  0.88815  0.051280000000000096  0.6251500000000002  1.0000
  N   N13       1.0  0.32269000000000003  0.8658  0.41834  1.0000
  N   N14       1.0  0.33651999999999993  0.94853  0.5747  1.0000
  N   N15       1.0  0.45751  0.5527  0.13492  1.0000
  N   N16       1.0  0.38816  0.62508  0.05119  1.0000
  N   N17       1.0  0.9046  0.5818600000000002  0.44746000000000014  1.0000
  N   N18       1.0  0.76177  0.42537999999999987  0.37436  1.0000
  N   N19       1.0  0.59573  0.5529  0.41827  1.0000
  N   N20       1.0  0.73814  0.62583  0.57479  1.0000
  N   N21       1.0  0.17763999999999996  0.58178  0.13435  1.0000
  N   N22       1.0  0.16336999999999996  0.42526  0.05134000000000001  1.0000
  N   N23       1.0  0.04263000000000002  0.86505  0.4473  1.0000
  N   N24       1.0  0.11186000000000001  0.94872  0.37485  1.0000
  O   O1        1.0  0.42249  0.85719  0.22510000000000005  1.0000
  O   O2        1.0  0.46171  0.76388  0.29514  1.0000
  O   O3        1.0  0.5630499999999998  0.36848  0.14088  1.0000
  O   O4        1.0  0.69873  0.5317399999999998  0.23759  1.0000
  O   O5        1.0  0.19705999999999996  0.7743999999999998  0.63346  1.0000
  O   O6        1.0  0.16621000000000002  0.70665  0.46997000000000005  1.0000
  O   O7        1.0  0.30456  0.36718  0.22660000000000005  1.0000
  O   O8        1.0  0.33416000000000007  0.5305  0.29366  1.0000
  O   O9        1.0  0.07795999999999997  0.77492  0.14263  1.0000
  O   O10       1.0  0.03883  0.70503  0.23610000000000003  1.0000
  O   O11       1.0  0.93738  0.8592  0.63172  1.0000
  O   O12       1.0  0.8019900000000002  0.76244  0.46848  1.0000
  O   O13       1.0  0.5775200000000001  0.1428100000000001  0.7749000000000003  1.0000
  O   O14       1.0  0.5383  0.23612  0.70487  1.0000
  O   O15       1.0  0.43696  0.63152  0.85912  1.0000
  O   O16       1.0  0.30128  0.46825999999999995  0.76241  1.0000
  O   O17       1.0  0.80295  0.22560000000000002  0.36655  1.0000
  O   O18       1.0  0.8338  0.29336  0.53004  1.0000
  O   O19       1.0  0.69545  0.63283  0.7734  1.0000
  O   O20       1.0  0.66585  0.4695  0.7063400000000002  1.0000
  O   O21       1.0  0.92205  0.22508000000000006  0.8573700000000002  1.0000
  O   O22       1.0  0.96118  0.29497000000000007  0.7639000000000001  1.0000
  O   O23       1.0  0.06263  0.1408  0.36828  1.0000
  O   O24       1.0  0.19802  0.23757  0.53153  1.0000
