data_image0
_chemical_formula_structural       Cu8H48C104N24O32
_chemical_formula_sum              "Cu8 H48 C104 N24 O32"
_cell_length_a       18.86392
_cell_length_b       18.86354
_cell_length_c       23.250430000000005
_cell_angle_alpha    110.78148999999999
_cell_angle_beta     110.84002000000001
_cell_angle_gamma    97.50438

_symmetry_space_group_name_H-M    'P 1'
_symmetry_Int_Tables_number       1

loop_
  _symmetry_equiv_pos_as_xyz
  'x,y,z'

loop_
  _atom_site_type_symbol
  _atom_site_label
  _atom_site_symmetry_multiplicity
  _atom_site_fract_x
  _atom_site_fract_y
  _atom_site_fract_z
  _atom_site_occupancy
  Cu  Cu1       1.0  0.4966  0.051799999999999985  0.54803  1.0000
  Cu  Cu2       1.0  0.05212000000000003  0.49674000000000007  0.54798  1.0000
  Cu  Cu3       1.0  0.9478800000000001  0.50326  0.45203  1.0000
  Cu  Cu4       1.0  0.50341  0.94821  0.45198  1.0000
  Cu  Cu5       1.0  0.4885  0.48851  0.54509  1.0000
  Cu  Cu6       1.0  0.05718999999999996  0.05715  0.54434  1.0000
  Cu  Cu7       1.0  0.5115  0.5115  0.45491  1.0000
  Cu  Cu8       1.0  0.94281  0.94285  0.45567  1.0000
  H   H1        1.0  0.53268  0.95246  0.69237  1.0000
  H   H2        1.0  0.51018  0.75862  0.51282  1.0000
  H   H3        1.0  0.5403900000000001  0.72483  0.69342  1.0000
  H   H4        1.0  0.52467  0.98391  0.79071  1.0000
  H   H5        1.0  0.48875  0.05494  0.89  1.0000
  H   H6        1.0  0.15777999999999998  0.74003  0.69155  1.0000
  H   H7        1.0  0.0032099999999999837  0.7575400000000001  0.51259  1.0000
  H   H8        1.0  0.15584000000000003  0.9704700000000002  0.69497  1.0000
  H   H9        1.0  0.26564  0.80666  0.79049  1.0000
  H   H10       1.0  0.4014  0.83489  0.89071  1.0000
  H   H11       1.0  0.047370000000000044  0.4673800000000001  0.30762  1.0000
  H   H12       1.0  0.24133  0.48978  0.48722  1.0000
  H   H13       1.0  0.27499  0.45953000000000005  0.30658  1.0000
  H   H14       1.0  0.015880000000000002  0.47527  0.20913  1.0000
  H   H15       1.0  0.94491  0.51117  0.10975  1.0000
  H   H16       1.0  0.25999  0.8425  0.30859  1.0000
  H   H17       1.0  0.24235000000000004  0.9967899999999998  0.48744  1.0000
  H   H18       1.0  0.02940999999999999  0.84406  0.30504  1.0000
  H   H19       1.0  0.19338000000000002  0.7344600000000001  0.20966  1.0000
  H   H20       1.0  0.16519  0.59878  0.10954000000000001  1.0000
  H   H21       1.0  0.46732  0.047539999999999985  0.30763  1.0000
  H   H22       1.0  0.48982000000000003  0.24138000000000007  0.48718000000000006  1.0000
  H   H23       1.0  0.45961  0.27517  0.30659  1.0000
  H   H24       1.0  0.47533  0.016090000000000014  0.20929  1.0000
  H   H25       1.0  0.51126  0.9450600000000001  0.11  1.0000
  H   H26       1.0  0.84223  0.25997  0.30845  1.0000
  H   H27       1.0  0.9967900000000001  0.24246000000000004  0.48741  1.0000
  H   H28       1.0  0.8441600000000002  0.029529999999999997  0.30503  1.0000
  H   H29       1.0  0.73436  0.19334  0.20951999999999998  1.0000
  H   H30       1.0  0.5986  0.16511000000000003  0.10929  1.0000
  H   H31       1.0  0.9526299999999999  0.5326300000000002  0.6923800000000001  1.0000
  H   H32       1.0  0.7586699999999998  0.51022  0.51278  1.0000
  H   H33       1.0  0.72501  0.54047  0.69342  1.0000
  H   H34       1.0  0.98413  0.5247400000000001  0.79087  1.0000
  H   H35       1.0  0.055090000000000076  0.4888300000000001  0.8902500000000001  1.0000
  H   H36       1.0  0.74001  0.15750000000000006  0.69141  1.0000
  H   H37       1.0  0.75765  0.003219999999999989  0.51257  1.0000
  H   H38       1.0  0.9705900000000001  0.15594000000000005  0.69496  1.0000
  H   H39       1.0  0.8066199999999999  0.26553999999999994  0.79034  1.0000
  H   H40       1.0  0.8348100000000003  0.40122  0.89047  1.0000
  H   H41       1.0  0.66105  0.96512  0.99997  1.0000
  H   H42       1.0  0.50481  0.15759999999999996  0.99955  1.0000
  H   H43       1.0  0.33895  0.03488000000000001  3e-05  1.0000
  H   H44       1.0  0.4951900000000001  0.8424  0.00045  1.0000
  H   H45       1.0  0.0349  0.33893  3e-05  1.0000
  H   H46       1.0  0.84224  0.49501000000000006  9e-05  1.0000
  H   H47       1.0  0.9651  0.6610700000000002  0.99997  1.0000
  H   H48       1.0  0.15775999999999998  0.50499  0.99991  1.0000
  C   C1        1.0  0.51832  0.64755  0.56285  1.0000
  C   C2        1.0  0.50894  0.9115499999999999  0.56217  1.0000
  C   C3        1.0  0.51899  0.8600199999999999  0.59886  1.0000
  C   C4        1.0  0.52998  0.89078  0.66693  1.0000
  C   C5        1.0  0.53866  0.84205  0.70087  1.0000
  C   C6        1.0  0.51774  0.7815899999999999  0.56526  1.0000
  C   C7        1.0  0.52486  0.733  0.59937  1.0000
  C   C8        1.0  0.53515  0.76278  0.66715  1.0000
  C   C9        1.0  0.5442600000000001  0.9419999999999998  0.80978  1.0000
  C   C10       1.0  0.5679500000000001  0.94329  0.87383  1.0000
  C   C11       1.0  0.57496  0.0037599999999999526  0.93762  1.0000
  C   C12       1.0  0.5311300000000001  0.058600000000000096  0.9379  1.0000
  C   C13       1.0  0.04613  0.91749  0.56404  1.0000
  C   C14       1.0  0.05204000000000004  0.65157  0.56117  1.0000
  C   C15       1.0  0.07938999999999997  0.7400599999999999  0.59818  1.0000
  C   C16       1.0  0.13622  0.77696  0.66655  1.0000
  C   C17       1.0  0.16272  0.8597300000000001  0.70116  1.0000
  C   C18       1.0  0.04821000000000001  0.78571  0.56515  1.0000
  C   C19       1.0  0.07632999999999997  0.8685400000000001  0.60015  1.0000
  C   C20       1.0  0.13395  0.90614  0.66801  1.0000
  C   C21       1.0  0.26545  0.86777  0.81001  1.0000
  C   C22       1.0  0.30614  0.93054  0.8743  1.0000
  C   C23       1.0  0.36289000000000005  0.9338500000000002  0.9381000000000002  1.0000
  C   C24       1.0  0.40700000000000003  0.87932  0.93853  1.0000
  C   C25       1.0  0.35241  0.4817000000000001  0.43725  1.0000
  C   C26       1.0  0.08826000000000006  0.4909  0.43778000000000006  1.0000
  C   C27       1.0  0.13983  0.48097000000000006  0.40112  1.0000
  C   C28       1.0  0.10906000000000002  0.46999  0.33303  1.0000
  C   C29       1.0  0.15781  0.46134  0.29914  1.0000
  C   C30       1.0  0.21832000000000007  0.48225000000000007  0.43478000000000006  1.0000
  C   C31       1.0  0.26691  0.4751500000000001  0.4007  1.0000
  C   C32       1.0  0.23710000000000003  0.46485999999999994  0.33289  1.0000
  C   C33       1.0  0.05781999999999998  0.45569  0.19012  1.0000
  C   C34       1.0  0.056580000000000026  0.43202  0.12613  1.0000
  C   C35       1.0  0.99615  0.42497000000000007  0.06226000000000001  1.0000
  C   C36       1.0  0.9412900000000001  0.46879  0.061900000000000004  1.0000
  C   C37       1.0  0.08248  0.95391  0.43601  1.0000
  C   C38       1.0  0.34838  0.9485000000000001  0.43885  1.0000
  C   C39       1.0  0.25987  0.92083  0.40186  1.0000
  C   C40       1.0  0.22302  0.86395  0.33354  1.0000
  C   C41       1.0  0.1402  0.83731  0.29893  1.0000
  C   C42       1.0  0.21422000000000002  0.95183  0.43488000000000004  1.0000
  C   C43       1.0  0.13135999999999998  0.9236200000000001  0.3999  1.0000
  C   C44       1.0  0.09377000000000005  0.86602  0.33205  1.0000
  C   C45       1.0  0.13222  0.73463  0.19013  1.0000
  C   C46       1.0  0.06944  0.69393  0.1258  1.0000
  C   C47       1.0  0.06617000000000002  0.6372100000000002  0.06203  1.0000
  C   C48       1.0  0.12075000000000001  0.59314  0.06167000000000001  1.0000
  C   C49       1.0  0.48168000000000005  0.35245  0.43715  1.0000
  C   C50       1.0  0.49106  0.08845000000000006  0.43783  1.0000
  C   C51       1.0  0.48101000000000005  0.13998  0.40114  1.0000
  C   C52       1.0  0.47002  0.10922000000000001  0.33307  1.0000
  C   C53       1.0  0.46134000000000003  0.15795  0.29913  1.0000
  C   C54       1.0  0.48226  0.21841000000000002  0.43474  1.0000
  C   C55       1.0  0.47514  0.267  0.40063  1.0000
  C   C56       1.0  0.46486  0.23722000000000001  0.33286  1.0000
  C   C57       1.0  0.45574000000000003  0.058  0.19022  1.0000
  C   C58       1.0  0.43206  0.05671  0.12618  1.0000
  C   C59       1.0  0.42504000000000003  0.99624  0.06238  1.0000
  C   C60       1.0  0.46888  0.94141  0.062099999999999995  1.0000
  C   C61       1.0  0.9538699999999999  0.08251000000000001  0.4359700000000001  1.0000
  C   C62       1.0  0.94796  0.34843  0.43883000000000005  1.0000
  C   C63       1.0  0.92062  0.25994  0.40182  1.0000
  C   C64       1.0  0.8637899999999998  0.22305  0.33345  1.0000
  C   C65       1.0  0.83729  0.14027  0.29885  1.0000
  C   C66       1.0  0.9517900000000001  0.21430000000000002  0.43485000000000007  1.0000
  C   C67       1.0  0.9236700000000001  0.13146  0.39985  1.0000
  C   C68       1.0  0.8660500000000001  0.09386  0.33199  1.0000
  C   C69       1.0  0.7345500000000001  0.13223  0.19  1.0000
  C   C70       1.0  0.69387  0.06946  0.1257  1.0000
  C   C71       1.0  0.63712  0.06616  0.06191  1.0000
  C   C72       1.0  0.593  0.12068  0.06148  1.0000
  C   C73       1.0  0.64759  0.51831  0.56276  1.0000
  C   C74       1.0  0.9117400000000001  0.5091  0.56223  1.0000
  C   C75       1.0  0.8601700000000003  0.51903  0.59889  1.0000
  C   C76       1.0  0.8909500000000001  0.53001  0.66698  1.0000
  C   C77       1.0  0.84219  0.53866  0.70086  1.0000
  C   C78       1.0  0.78169  0.51775  0.56522  1.0000
  C   C79       1.0  0.7330900000000001  0.52485  0.59931  1.0000
  C   C80       1.0  0.76291  0.53514  0.66711  1.0000
  C   C81       1.0  0.9421800000000001  0.54431  0.80988  1.0000
  C   C82       1.0  0.9434200000000001  0.56798  0.87388  1.0000
  C   C83       1.0  0.0038499999999999724  0.57503  0.93774  1.0000
  C   C84       1.0  0.05871000000000009  0.5312100000000002  0.9381000000000002  1.0000
  C   C85       1.0  0.91752  0.046099999999999974  0.564  1.0000
  C   C86       1.0  0.65162  0.05149999999999998  0.56116  1.0000
  C   C87       1.0  0.74013  0.07916999999999999  0.59815  1.0000
  C   C88       1.0  0.77698  0.13605  0.66646  1.0000
  C   C89       1.0  0.8598000000000001  0.16269000000000006  0.70107  1.0000
  C   C90       1.0  0.78579  0.04818  0.56512  1.0000
  C   C91       1.0  0.86865  0.07638000000000002  0.60011  1.0000
  C   C92       1.0  0.9062300000000001  0.13398000000000004  0.66795  1.0000
  C   C93       1.0  0.8677800000000001  0.26537  0.80988  1.0000
  C   C94       1.0  0.93056  0.30607  0.8742  1.0000
  C   C95       1.0  0.93383  0.3628  0.93797  1.0000
  C   C96       1.0  0.8792600000000002  0.40686  0.93833  1.0000
  C   C97       1.0  0.6272000000000001  0.0075100000000000566  0.99982  1.0000
  C   C98       1.0  0.5401700000000002  0.11647000000000009  0.9996300000000001  1.0000
  C   C99       1.0  0.3728000000000001  0.9924900000000001  0.00018  1.0000
  C   C100      1.0  0.45983000000000007  0.8835300000000001  0.00037  1.0000
  C   C101      1.0  0.99247  0.37276  0.00012  1.0000
  C   C102      1.0  0.88341  0.4597  0.00011000000000000002  1.0000
  C   C103      1.0  0.007529999999999956  0.62724  0.99988  1.0000
  C   C104      1.0  0.11658999999999997  0.54031  0.99989  1.0000
  N   N1        1.0  0.5513900000000002  0.87238  0.77011  1.0000
  N   N2        1.0  0.57832  0.83159  0.80828  1.0000
  N   N3        1.0  0.5880400000000001  0.87458  0.8701700000000001  1.0000
  N   N4        1.0  0.21886000000000003  0.89811  0.7706300000000001  1.0000
  N   N5        1.0  0.23041999999999999  0.9771299999999999  0.80915  1.0000
  N   N6        1.0  0.2827000000000001  0.9958500000000003  0.8710400000000001  1.0000
  N   N7        1.0  0.12747  0.44859000000000004  0.22988  1.0000
  N   N8        1.0  0.16831  0.42168000000000005  0.19181  1.0000
  N   N9        1.0  0.12533  0.41196000000000005  0.12988  1.0000
  N   N10       1.0  0.10186000000000003  0.78116  0.22945000000000002  1.0000
  N   N11       1.0  0.02280000000000001  0.7695500000000001  0.19087  1.0000
  N   N12       1.0  0.0040799999999999986  0.71732  0.129  1.0000
  N   N13       1.0  0.4486200000000001  0.12763  0.22989  1.0000
  N   N14       1.0  0.42168000000000005  0.16841  0.19172  1.0000
  N   N15       1.0  0.41196  0.12542  0.12984  1.0000
  N   N16       1.0  0.7811400000000001  0.10190000000000002  0.22936999999999996  1.0000
  N   N17       1.0  0.76958  0.02287  0.19085  1.0000
  N   N18       1.0  0.71731  0.0041500000000000105  0.12897  1.0000
  N   N19       1.0  0.87253  0.55141  0.77012  1.0000
  N   N20       1.0  0.8316900000000002  0.5783200000000001  0.8082  1.0000
  N   N21       1.0  0.87467  0.58805  0.87012  1.0000
  N   N22       1.0  0.89814  0.21884000000000003  0.77055  1.0000
  N   N23       1.0  0.9772100000000001  0.23045000000000002  0.80914  1.0000
  N   N24       1.0  0.9959200000000001  0.2826800000000001  0.871  1.0000
  O   O1        1.0  0.50523  0.60317  0.59096  1.0000
  O   O2        1.0  0.50289  0.9801500000000001  0.59311  1.0000
  O   O3        1.0  0.52505  0.62551  0.50672  1.0000
  O   O4        1.0  0.50715  0.88294  0.50262  1.0000
  O   O5        1.0  0.08771000000000008  0.98998  0.59149  1.0000
  O   O6        1.0  0.08950000000000001  0.61404  0.59196  1.0000
  O   O7        1.0  0.98217  0.8827300000000001  0.50849  1.0000
  O   O8        1.0  0.9935700000000001  0.62024  0.50182  1.0000
  O   O9        1.0  0.39677000000000007  0.49474000000000007  0.4091000000000001  1.0000
  O   O10       1.0  0.019500000000000017  0.4968  0.40688  1.0000
  O   O11       1.0  0.37448  0.47499  0.49337  1.0000
  O   O12       1.0  0.11713  0.49272  0.49732  1.0000
  O   O13       1.0  0.009889999999999996  0.9126100000000001  0.40848  1.0000
  O   O14       1.0  0.38599999999999995  0.91165  0.40787  1.0000
  O   O15       1.0  0.11737000000000002  0.01775  0.49165  1.0000
  O   O16       1.0  0.37954  0.006589999999999979  0.49838999999999994  1.0000
  O   O17       1.0  0.4947700000000001  0.39683000000000007  0.40904000000000007  1.0000
  O   O18       1.0  0.49711000000000005  0.019850000000000003  0.40689  1.0000
  O   O19       1.0  0.4749500000000001  0.37449  0.49328  1.0000
  O   O20       1.0  0.49285  0.11706000000000005  0.49739  1.0000
  O   O21       1.0  0.91229  0.01003000000000002  0.40851  1.0000
  O   O22       1.0  0.9105000000000001  0.38597  0.40805  1.0000
  O   O23       1.0  0.017830000000000026  0.11727000000000008  0.49151000000000006  1.0000
  O   O24       1.0  0.006430000000000021  0.37976000000000004  0.49818000000000007  1.0000
  O   O25       1.0  0.60323  0.50526  0.5909  1.0000
  O   O26       1.0  0.9804999999999999  0.50321  0.59313  1.0000
  O   O27       1.0  0.62552  0.52501  0.50663  1.0000
  O   O28       1.0  0.8828700000000002  0.50728  0.50268  1.0000
  O   O29       1.0  0.99011  0.0874  0.59152  1.0000
  O   O30       1.0  0.614  0.08836000000000005  0.59213  1.0000
  O   O31       1.0  0.8826400000000001  0.9822500000000001  0.50836  1.0000
  O   O32       1.0  0.62046  0.99341  0.50161  1.0000
