data_image0
_chemical_formula_structural       Cr12H24C72O48
_chemical_formula_sum              "Cr12 H24 C72 O48"
_cell_length_a       18.8414
_cell_length_b       18.80231
_cell_length_c       18.80438
_cell_angle_alpha    60.16134999999999
_cell_angle_beta     60.07274000000001
_cell_angle_gamma    60.07848

_symmetry_space_group_name_H-M    'P 1'
_symmetry_Int_Tables_number       1

loop_
  _symmetry_equiv_pos_as_xyz
  'x,y,z'

loop_
  _atom_site_type_symbol
  _atom_site_label
  _atom_site_symmetry_multiplicity
  _atom_site_fract_x
  _atom_site_fract_y
  _atom_site_fract_z
  _atom_site_occupancy
  Cr  Cr1       1.0  0.43630999999999986  0.9998000000000001  0.9998000000000001  1.0000
  Cr  Cr2       1.0  0.56368  0.00019999999999999998  0.0002  1.0000
  Cr  Cr3       1.0  0.9999899999999997  0.5647899999999999  0.43522  1.0000
  Cr  Cr4       1.0  2.0000000000061642e-05  0.43518000000000007  0.56481  1.0000
  Cr  Cr5       1.0  0.9997900000000002  0.99981  0.42699  1.0000
  Cr  Cr6       1.0  0.00020999999999992403  0.00018999999999991764  0.5730000000000002  1.0000
  Cr  Cr7       1.0  0.56472  0.43524  0.0  1.0000
  Cr  Cr8       1.0  0.43526  0.56477  0.0  1.0000
  Cr  Cr9       1.0  0.99982  0.43532999999999994  0.9998000000000001  1.0000
  Cr  Cr10      1.0  0.00017999999999998912  0.56466  0.0002  1.0000
  Cr  Cr11      1.0  0.4353  0.0  0.56472  1.0000
  Cr  Cr12      1.0  0.5646999999999999  0.0  0.4352800000000001  1.0000
  H   H1        1.0  0.26610000000000006  0.9725799999999997  0.26566  1.0000
  H   H2        1.0  0.49504999999999993  0.2660199999999999  0.9725500000000002  1.0000
  H   H3        1.0  0.2662300000000001  0.49493999999999994  0.26634  1.0000
  H   H4        1.0  0.97242  0.2664099999999999  0.4949300000000001  1.0000
  H   H5        1.0  0.9723999999999999  0.26599  0.26612  1.0000
  H   H6        1.0  0.26660000000000006  0.9723999999999999  0.4944800000000001  1.0000
  H   H7        1.0  0.4948399999999999  0.26639  0.2663500000000001  1.0000
  H   H8        1.0  0.26661999999999997  0.4945  0.97243  1.0000
  H   H9        1.0  0.2661399999999999  0.2655899999999999  0.9725900000000002  1.0000
  H   H10       1.0  0.97248  0.4948999999999999  0.2664700000000001  1.0000
  H   H11       1.0  0.26623999999999987  0.26638  0.4949000000000001  1.0000
  H   H12       1.0  0.49502999999999997  0.9725900000000001  0.26601  1.0000
  H   H13       1.0  0.50498  0.027399999999999907  0.7339800000000002  1.0000
  H   H14       1.0  0.7338499999999999  0.73441  0.027410000000000004  1.0000
  H   H15       1.0  0.02752999999999993  0.5050999999999999  0.7335300000000002  1.0000
  H   H16       1.0  0.73376  0.73361  0.5051  1.0000
  H   H17       1.0  0.5051699999999998  0.7336100000000001  0.73365  1.0000
  H   H18       1.0  0.7333999999999998  0.027599999999999996  0.50552  1.0000
  H   H19       1.0  0.027599999999999934  0.73402  0.73387  1.0000
  H   H20       1.0  0.7333699999999996  0.5055  0.02757  1.0000
  H   H21       1.0  0.5049500000000001  0.73398  0.027440000000000006  1.0000
  H   H22       1.0  0.7337699999999999  0.50506  0.73365  1.0000
  H   H23       1.0  0.027579999999999966  0.73359  0.5050600000000001  1.0000
  H   H24       1.0  0.7338999999999997  0.027419999999999948  0.7343400000000001  1.0000
  C   C1        1.0  0.42987000000000003  0.97646  0.16335000000000005  1.0000
  C   C2        1.0  0.38626  0.9712099999999999  0.25576  1.0000
  C   C3        1.0  0.42989999999999995  0.16333999999999993  0.9764200000000002  1.0000
  C   C4        1.0  0.38629  0.25574  0.9711800000000002  1.0000
  C   C5        1.0  0.16439999999999994  0.42970999999999976  0.4296900000000001  1.0000
  C   C6        1.0  0.25706  0.38596  0.3859200000000001  1.0000
  C   C7        1.0  0.9759999999999999  0.42970999999999976  0.42977  1.0000
  C   C8        1.0  0.97095  0.38588  0.3859300000000001  1.0000
  C   C9        1.0  0.9759899999999999  0.16415999999999997  0.4297300000000001  1.0000
  C   C10       1.0  0.9709599999999996  0.25695999999999997  0.3858400000000001  1.0000
  C   C11       1.0  0.16442000000000007  0.9760999999999999  0.4292800000000001  1.0000
  C   C12       1.0  0.2573099999999999  0.9711000000000001  0.38515  1.0000
  C   C13       1.0  0.42966  0.42978  0.16454  1.0000
  C   C14       1.0  0.3858599999999998  0.38598  0.25718  1.0000
  C   C15       1.0  0.42984  0.42934  0.9759800000000002  1.0000
  C   C16       1.0  0.38605999999999985  0.38525999999999994  0.9710100000000003  1.0000
  C   C17       1.0  0.1646799999999999  0.42911999999999995  0.9761200000000002  1.0000
  C   C18       1.0  0.2573899999999999  0.3851199999999999  0.9710700000000002  1.0000
  C   C19       1.0  0.9760099999999999  0.42955  0.16447  1.0000
  C   C20       1.0  0.9709599999999998  0.38575  0.25709  1.0000
  C   C21       1.0  0.42968  0.16457999999999992  0.42975000000000013  1.0000
  C   C22       1.0  0.38587  0.25721  0.38594  1.0000
  C   C23       1.0  0.42980000000000007  0.97599  0.42934  1.0000
  C   C24       1.0  0.38603  0.97104  0.3852500000000001  1.0000
  C   C25       1.0  0.5701299999999999  0.023540000000000023  0.83664  1.0000
  C   C26       1.0  0.61374  0.028780000000000014  0.74424  1.0000
  C   C27       1.0  0.5700899999999999  0.83666  0.02357  1.0000
  C   C28       1.0  0.6137  0.74426  0.028820000000000005  1.0000
  C   C29       1.0  0.024000000000000007  0.57027  0.57023  1.0000
  C   C30       1.0  0.029059999999999954  0.61412  0.61407  1.0000
  C   C31       1.0  0.8355999999999999  0.57027  0.57031  1.0000
  C   C32       1.0  0.74294  0.6140299999999999  0.61407  1.0000
  C   C33       1.0  0.57032  0.8354199999999999  0.5702500000000003  1.0000
  C   C34       1.0  0.6141399999999998  0.7427899999999998  0.6140500000000002  1.0000
  C   C35       1.0  0.5702099999999999  0.02399999999999993  0.5706600000000002  1.0000
  C   C36       1.0  0.61397  0.028959999999999927  0.6147400000000002  1.0000
  C   C37       1.0  0.02400999999999997  0.57045  0.8355200000000002  1.0000
  C   C38       1.0  0.02905000000000004  0.61425  0.7429  1.0000
  C   C39       1.0  0.8353199999999998  0.57088  0.02388  1.0000
  C   C40       1.0  0.74261  0.61488  0.028930000000000008  1.0000
  C   C41       1.0  0.57016  0.57066  0.024020000000000007  1.0000
  C   C42       1.0  0.6139400000000002  0.6147299999999998  0.02898  1.0000
  C   C43       1.0  0.5703399999999997  0.5702299999999999  0.8354500000000002  1.0000
  C   C44       1.0  0.6141499999999998  0.61402  0.7428200000000003  1.0000
  C   C45       1.0  0.024010000000000017  0.83584  0.57026  1.0000
  C   C46       1.0  0.02903999999999994  0.74304  0.61416  1.0000
  C   C47       1.0  0.8355899999999998  0.02388999999999992  0.5707100000000003  1.0000
  C   C48       1.0  0.7426999999999997  0.028900000000000002  0.61485  1.0000
  C   C49       1.0  0.30025999999999986  0.9711000000000001  0.29915  1.0000
  C   C50       1.0  0.42901999999999996  0.29928999999999994  0.97104  1.0000
  C   C51       1.0  0.30000999999999994  0.42888000000000004  0.30012  1.0000
  C   C52       1.0  0.97093  0.30004  0.42884  1.0000
  C   C53       1.0  0.97093  0.29985999999999996  0.29999  1.0000
  C   C54       1.0  0.30023  0.9709799999999998  0.4282900000000001  1.0000
  C   C55       1.0  0.42876  0.30017  0.3001300000000001  1.0000
  C   C56       1.0  0.3002799999999996  0.4283199999999999  0.9709700000000002  1.0000
  C   C57       1.0  0.30030999999999997  0.29910000000000003  0.97108  1.0000
  C   C58       1.0  0.97095  0.42879999999999996  0.3001100000000001  1.0000
  C   C59       1.0  0.30001000000000005  0.30016  0.42884  1.0000
  C   C60       1.0  0.4289899999999999  0.97108  0.2992800000000001  1.0000
  C   C61       1.0  0.5710100000000001  0.02890999999999998  0.70071  1.0000
  C   C62       1.0  0.69969  0.70089  0.028930000000000008  1.0000
  C   C63       1.0  0.02906999999999996  0.5711899999999999  0.6998800000000002  1.0000
  C   C64       1.0  0.6999899999999996  0.69983  0.5711500000000003  1.0000
  C   C65       1.0  0.5712499999999999  0.69983  0.6998700000000002  1.0000
  C   C66       1.0  0.69978  0.029009999999999928  0.5717000000000002  1.0000
  C   C67       1.0  0.029079999999999873  0.7001399999999999  0.7000100000000002  1.0000
  C   C68       1.0  0.69973  0.57168  0.029030000000000007  1.0000
  C   C69       1.0  0.5709799999999998  0.70071  0.028950000000000007  1.0000
  C   C70       1.0  0.6999999999999998  0.57111  0.6998700000000002  1.0000
  C   C71       1.0  0.029080000000000016  0.6999599999999999  0.5711600000000002  1.0000
  C   C72       1.0  0.6997499999999997  0.02890000000000003  0.70084  1.0000
  O   O1        1.0  0.38789  0.97978  0.12393000000000003  1.0000
  O   O2        1.0  0.5077299999999999  0.12432999999999997  0.9799700000000002  1.0000
  O   O3        1.0  0.1269399999999999  0.50723  0.3866000000000001  1.0000
  O   O4        1.0  0.9790299999999998  0.38661  0.50733  1.0000
  O   O5        1.0  0.97882  0.12718999999999994  0.3861100000000001  1.0000
  O   O6        1.0  0.12776000000000007  0.97896  0.50694  1.0000
  O   O7        1.0  0.50722  0.38666  0.12705  1.0000
  O   O8        1.0  0.3867999999999999  0.5070399999999999  0.9788900000000003  1.0000
  O   O9        1.0  0.12693999999999994  0.3861899999999999  0.9791  1.0000
  O   O10       1.0  0.9790299999999998  0.5071499999999998  0.12721  1.0000
  O   O11       1.0  0.38664  0.12712000000000004  0.5073  1.0000
  O   O12       1.0  0.5073200000000001  0.9789699999999999  0.3864200000000001  1.0000
  O   O13       1.0  0.49228999999999984  0.019990000000000015  0.87567  1.0000
  O   O14       1.0  0.61209  0.87607  0.020260000000000007  1.0000
  O   O15       1.0  0.02103000000000007  0.49268999999999996  0.61332  1.0000
  O   O16       1.0  0.8730499999999995  0.6133899999999998  0.4927800000000001  1.0000
  O   O17       1.0  0.4927599999999999  0.8729099999999997  0.6133400000000002  1.0000
  O   O18       1.0  0.6132499999999999  0.021099999999999966  0.4929400000000001  1.0000
  O   O19       1.0  0.02102999999999993  0.61353  0.8732100000000003  1.0000
  O   O20       1.0  0.87265  0.49317  0.02091  1.0000
  O   O21       1.0  0.49265999999999993  0.61363  0.021020000000000004  1.0000
  O   O22       1.0  0.6133699999999997  0.49266999999999994  0.8729000000000002  1.0000
  O   O23       1.0  0.02110000000000003  0.8724399999999999  0.4927200000000001  1.0000
  O   O24       1.0  0.8726599999999997  0.021049999999999937  0.6141500000000002  1.0000
  O   O25       1.0  0.61211  0.020219999999999926  0.8760600000000002  1.0000
  O   O26       1.0  0.49226999999999993  0.87567  0.020020000000000003  1.0000
  O   O27       1.0  0.87306  0.4927600000000001  0.6134  1.0000
  O   O28       1.0  0.02097999999999994  0.61338  0.4926700000000001  1.0000
  O   O29       1.0  0.02117999999999999  0.8728099999999996  0.6138800000000002  1.0000
  O   O30       1.0  0.8722399999999999  0.021039999999999958  0.4930500000000001  1.0000
  O   O31       1.0  0.49279  0.61335  0.8729500000000002  1.0000
  O   O32       1.0  0.6132000000000001  0.49296  0.02111  1.0000
  O   O33       1.0  0.8730699999999999  0.61382  0.02088  1.0000
  O   O34       1.0  0.020989999999999946  0.4928600000000002  0.87278  1.0000
  O   O35       1.0  0.6133599999999998  0.8728799999999999  0.49270000000000014  1.0000
  O   O36       1.0  0.49268999999999996  0.02102  0.61358  1.0000
  O   O37       1.0  0.5077199999999998  0.9800100000000002  0.12432  1.0000
  O   O38       1.0  0.3879  0.12392999999999996  0.97974  1.0000
  O   O39       1.0  0.9789800000000002  0.50731  0.38668  1.0000
  O   O40       1.0  0.12696  0.38660000000000005  0.50721  1.0000
  O   O41       1.0  0.50724  0.12708000000000003  0.38666  1.0000
  O   O42       1.0  0.38676000000000005  0.9788999999999999  0.50705  1.0000
  O   O43       1.0  0.979  0.38646  0.12678  1.0000
  O   O44       1.0  0.12734999999999985  0.50682  0.9790900000000002  1.0000
  O   O45       1.0  0.50735  0.38637  0.97897  1.0000
  O   O46       1.0  0.3866399999999999  0.50734  0.1271  1.0000
  O   O47       1.0  0.97891  0.12755999999999995  0.5072700000000002  1.0000
  O   O48       1.0  0.12735000000000005  0.97895  0.38585  1.0000
