data_image0
_chemical_formula_structural       Cd8H36C92O40
_chemical_formula_sum              "Cd8 H36 C92 O40"
_cell_length_a       13.5173
_cell_length_b       17.24679
_cell_length_c       20.15075
_cell_angle_alpha    91.88445000000002
_cell_angle_beta     89.95441999999998
_cell_angle_gamma    113.09512

_symmetry_space_group_name_H-M    'P 1'
_symmetry_Int_Tables_number       1

loop_
  _symmetry_equiv_pos_as_xyz
  'x,y,z'

loop_
  _atom_site_type_symbol
  _atom_site_label
  _atom_site_symmetry_multiplicity
  _atom_site_fract_x
  _atom_site_fract_y
  _atom_site_fract_z
  _atom_site_occupancy
  Cd  Cd1       1.0  0.20670000000000016  0.6463300000000002  0.64258  1.0000
  Cd  Cd2       1.0  0.2413900000000001  0.80154  0.52242  1.0000
  Cd  Cd3       1.0  0.56041  0.35498000000000013  0.85783  1.0000
  Cd  Cd4       1.0  0.4390800000000001  0.19743  0.97866  1.0000
  Cd  Cd5       1.0  0.7933100000000001  0.3536700000000001  0.35742  1.0000
  Cd  Cd6       1.0  0.75862  0.19847  0.47758  1.0000
  Cd  Cd7       1.0  0.43959  0.64502  0.14218  1.0000
  Cd  Cd8       1.0  0.56093  0.80257  0.02134  1.0000
  H   H1        1.0  0.58023  0.73871  0.6275  1.0000
  H   H2        1.0  0.9376100000000003  0.9178300000000003  0.58741  1.0000
  H   H3        1.0  0.67198  0.67561  0.59856  1.0000
  H   H4        1.0  0.82936  0.95986  0.54613  1.0000
  H   H5        1.0  0.51114  0.95117  0.57602  1.0000
  H   H6        1.0  0.06371999999999997  0.84791  0.59579  1.0000
  H   H7        1.0  0.6608500000000002  0.3375500000000001  0.63044  1.0000
  H   H8        1.0  0.83684  0.5530200000000002  0.51552  1.0000
  H   H9        1.0  0.71853  0.58685  0.70928  1.0000
  H   H10       1.0  0.8414400000000001  0.26189  0.87118  1.0000
  H   H11       1.0  0.01921  0.08265  0.912  1.0000
  H   H12       1.0  0.9971600000000003  0.32518  0.90032  1.0000
  H   H13       1.0  0.8696  0.04198000000000002  0.95446  1.0000
  H   H14       1.0  0.55993  0.04964  0.9236500000000001  1.0000
  H   H15       1.0  0.2154600000000001  0.15221000000000007  0.9042400000000002  1.0000
  H   H16       1.0  0.3252200000000001  0.66261  0.8684399999999999  1.0000
  H   H17       1.0  0.2847500000000001  0.44746000000000014  0.98381  1.0000
  H   H18       1.0  0.13269  0.4133  0.79009  1.0000
  H   H19       1.0  0.4197800000000001  0.26129000000000013  0.37250000000000005  1.0000
  H   H20       1.0  0.062400000000000004  0.08217  0.41259000000000007  1.0000
  H   H21       1.0  0.32803000000000015  0.3243900000000001  0.40144  1.0000
  H   H22       1.0  0.17065000000000002  0.04014  0.45387  1.0000
  H   H23       1.0  0.4888600000000001  0.04883000000000001  0.4239800000000001  1.0000
  H   H24       1.0  0.9362900000000002  0.15209  0.40421  1.0000
  H   H25       1.0  0.33916000000000013  0.6624500000000002  0.36956  1.0000
  H   H26       1.0  0.16317  0.44698  0.48448  1.0000
  H   H27       1.0  0.28147000000000005  0.41315  0.29072  1.0000
  H   H28       1.0  0.1585700000000001  0.7381100000000003  0.12882  1.0000
  H   H29       1.0  0.9808000000000002  0.9173500000000002  0.088  1.0000
  H   H30       1.0  0.002850000000000011  0.67482  0.09968  1.0000
  H   H31       1.0  0.1304100000000001  0.9580200000000002  0.04555  1.0000
  H   H32       1.0  0.44008000000000014  0.9503600000000002  0.07635  1.0000
  H   H33       1.0  0.78455  0.84779  0.09576  1.0000
  H   H34       1.0  0.67479  0.33739  0.13156  1.0000
  H   H35       1.0  0.7152600000000001  0.55254  0.01619  1.0000
  H   H36       1.0  0.86732  0.5867  0.20991000000000004  1.0000
  C   C1        1.0  0.6092200000000002  0.8017600000000003  0.60807  1.0000
  C   C2        1.0  0.94075  0.72279  0.60336  1.0000
  C   C3        1.0  0.53541  0.83956  0.60303  1.0000
  C   C4        1.0  0.7938800000000003  0.80255  0.59266  1.0000
  C   C5        1.0  0.0204300000000001  0.6847300000000002  0.61643  1.0000
  C   C6        1.0  0.71706  0.84372  0.58851  1.0000
  C   C7        1.0  0.90594  0.84964  0.59079  1.0000
  C   C8        1.0  0.7576800000000004  0.7144400000000002  0.59912  1.0000
  C   C9        1.0  0.74845  0.9257200000000002  0.5640600000000001  1.0000
  C   C10       1.0  0.8287  0.67401  0.60473  1.0000
  C   C11       1.0  0.5685600000000002  0.9216000000000002  0.57995  1.0000
  C   C12       1.0  0.6755100000000002  0.9646200000000003  0.56046  1.0000
  C   C13       1.0  0.97764  0.81035  0.5958  1.0000
  C   C14       1.0  0.74923  0.43979  0.56692  1.0000
  C   C15       1.0  0.69416  0.4054  0.6246900000000001  1.0000
  C   C16       1.0  0.68301  0.4589600000000001  0.6756900000000001  1.0000
  C   C17       1.0  0.7833400000000001  0.58121  0.61173  1.0000
  C   C18       1.0  0.7939800000000002  0.52731  0.56064  1.0000
  C   C19       1.0  0.7261700000000002  0.54637  0.6688  1.0000
  C   C20       1.0  0.7618300000000002  0.38315  0.51202  1.0000
  C   C21       1.0  0.6301500000000002  0.4228400000000001  0.73871  1.0000
  C   C22       1.0  0.7087600000000002  0.05131  0.53461  1.0000
  C   C23       1.0  0.41882000000000014  0.79087  0.61797  1.0000
  C   C24       1.0  0.8074000000000002  0.19910000000000005  0.8910799999999999  1.0000
  C   C25       1.0  0.21851  0.27749  0.8969100000000001  1.0000
  C   C26       1.0  0.6957100000000003  0.16132  0.8964200000000001  1.0000
  C   C27       1.0  0.9914400000000002  0.19820000000000002  0.90665  1.0000
  C   C28       1.0  0.33668000000000003  0.31524  0.88485  1.0000
  C   C29       1.0  0.8733700000000002  0.15738  0.91093  1.0000
  C   C30       1.0  0.05607  0.15085  0.90866  1.0000
  C   C31       1.0  0.04383000000000001  0.2862  0.90003  1.0000
  C   C32       1.0  0.8228200000000002  0.07579000000000001  0.9360100000000001  1.0000
  C   C33       1.0  0.15543000000000007  0.3264  0.8948500000000001  1.0000
  C   C34       1.0  0.6469100000000001  0.07938000000000003  0.91962  1.0000
  C   C35       1.0  0.7109800000000001  0.03672  0.93935  1.0000
  C   C36       1.0  0.1672  0.18994  0.9041200000000001  1.0000
  C   C37       1.0  0.31118  0.56043  0.9320500000000002  1.0000
  C   C38       1.0  0.29046  0.5948  0.87434  1.0000
  C   C39       1.0  0.22535000000000002  0.54116  0.82352  1.0000
  C   C40       1.0  0.20312000000000005  0.41906  0.8876400000000001  1.0000
  C   C41       1.0  0.26784  0.47301  0.93857  1.0000
  C   C42       1.0  0.18096000000000004  0.45382  0.8305  1.0000
  C   C43       1.0  0.3814600000000001  0.6168900000000003  0.98661  1.0000
  C   C44       1.0  0.20831  0.57756  0.76078  1.0000
  C   C45       1.0  0.6579400000000002  0.9502400000000002  0.96532  1.0000
  C   C46       1.0  0.6274  0.20965000000000006  0.8815800000000001  1.0000
  C   C47       1.0  0.3907800000000001  0.19824  0.39193  1.0000
  C   C48       1.0  0.059260000000000077  0.27722000000000013  0.39664  1.0000
  C   C49       1.0  0.46460000000000007  0.16044000000000005  0.39697  1.0000
  C   C50       1.0  0.20613000000000004  0.19745000000000004  0.40734000000000004  1.0000
  C   C51       1.0  0.9795800000000001  0.31527  0.38357  1.0000
  C   C52       1.0  0.28295  0.15628  0.41149  1.0000
  C   C53       1.0  0.09407  0.15036  0.4092100000000001  1.0000
  C   C54       1.0  0.24232000000000012  0.28556000000000015  0.40088  1.0000
  C   C55       1.0  0.25156  0.07428  0.43593999999999994  1.0000
  C   C56       1.0  0.17131000000000002  0.32599  0.39527  1.0000
  C   C57       1.0  0.43144000000000005  0.07840000000000003  0.42005000000000003  1.0000
  C   C58       1.0  0.3245  0.035380000000000016  0.43955  1.0000
  C   C59       1.0  0.02237  0.18965  0.4042  1.0000
  C   C60       1.0  0.25078000000000006  0.56021  0.43308  1.0000
  C   C61       1.0  0.30585  0.5946  0.37531  1.0000
  C   C62       1.0  0.31699000000000005  0.54105  0.32431  1.0000
  C   C63       1.0  0.21666  0.41879  0.38827  1.0000
  C   C64       1.0  0.20602000000000004  0.4726900000000001  0.43936  1.0000
  C   C65       1.0  0.27384  0.45363  0.33121  1.0000
  C   C66       1.0  0.23818  0.61685  0.48798  1.0000
  C   C67       1.0  0.3698600000000002  0.5771600000000002  0.26129  1.0000
  C   C68       1.0  0.29125  0.94869  0.46539  1.0000
  C   C69       1.0  0.58119  0.20913  0.38203  1.0000
  C   C70       1.0  0.19261000000000006  0.8009  0.10892  1.0000
  C   C71       1.0  0.7815  0.72251  0.10309  1.0000
  C   C72       1.0  0.3043  0.83868  0.10358000000000002  1.0000
  C   C73       1.0  0.008570000000000147  0.8018000000000002  0.09335000000000002  1.0000
  C   C74       1.0  0.6633200000000002  0.6847600000000003  0.11515  1.0000
  C   C75       1.0  0.12664  0.84263  0.08907  1.0000
  C   C76       1.0  0.9439400000000001  0.8491600000000002  0.09134000000000002  1.0000
  C   C77       1.0  0.95618  0.7138  0.09997000000000002  1.0000
  C   C78       1.0  0.1771900000000001  0.9242200000000003  0.064  1.0000
  C   C79       1.0  0.84457  0.6736  0.10515  1.0000
  C   C80       1.0  0.35310000000000025  0.9206300000000002  0.08038  1.0000
  C   C81       1.0  0.28902  0.96328  0.06065  1.0000
  C   C82       1.0  0.83281  0.81006  0.09588  1.0000
  C   C83       1.0  0.68883  0.43957  0.06795  1.0000
  C   C84       1.0  0.70955  0.4052000000000001  0.12566  1.0000
  C   C85       1.0  0.7746600000000001  0.45884000000000014  0.17648  1.0000
  C   C86       1.0  0.79689  0.58094  0.11236  1.0000
  C   C87       1.0  0.73217  0.52699  0.061430000000000005  1.0000
  C   C88       1.0  0.8190500000000001  0.54619  0.1695  1.0000
  C   C89       1.0  0.61855  0.3831100000000001  0.013390000000000003  1.0000
  C   C90       1.0  0.7917000000000002  0.4224400000000001  0.23922000000000002  1.0000
  C   C91       1.0  0.34207000000000004  0.049760000000000006  0.03468  1.0000
  C   C92       1.0  0.37261  0.79035  0.11842000000000001  1.0000
  O   O1        1.0  0.39018000000000014  0.71519  0.63615  1.0000
  O   O2        1.0  0.6553000000000003  0.4686800000000001  0.79218  1.0000
  O   O3        1.0  0.64524  0.08933  0.54155  1.0000
  O   O4        1.0  0.56318  0.34623  0.73924  1.0000
  O   O5        1.0  0.80069  0.41779  0.45802  1.0000
  O   O6        1.0  0.73173  0.3052900000000001  0.52543  1.0000
  O   O7        1.0  0.79951  0.08556  0.50512  1.0000
  O   O8        1.0  0.35482  0.82819  0.60987  1.0000
  O   O9        1.0  0.9950100000000004  0.61714  0.64614  1.0000
  O   O10       1.0  0.12033000000000002  0.72695  0.59972  1.0000
  O   O11       1.0  0.67423  0.28495  0.86243  1.0000
  O   O12       1.0  0.18548  0.53176  0.70721  1.0000
  O   O13       1.0  0.55687  0.91079  0.9565300000000001  1.0000
  O   O14       1.0  0.2200300000000002  0.6547300000000003  0.76084  1.0000
  O   O15       1.0  0.3851100000000001  0.58221  0.04064  1.0000
  O   O16       1.0  0.43052  0.69441  0.9726900000000002  1.0000
  O   O17       1.0  0.7145  0.91767  0.99659  1.0000
  O   O18       1.0  0.5262100000000002  0.17241  0.8904600000000001  1.0000
  O   O19       1.0  0.3798900000000002  0.3829800000000001  0.85539  1.0000
  O   O20       1.0  0.39394  0.27304  0.90201  1.0000
  O   O21       1.0  0.6098200000000001  0.2848100000000001  0.36385  1.0000
  O   O22       1.0  0.34471  0.53132  0.20782000000000003  1.0000
  O   O23       1.0  0.35476000000000013  0.91067  0.45845  1.0000
  O   O24       1.0  0.43683000000000005  0.65377  0.26076  1.0000
  O   O25       1.0  0.19932000000000005  0.58221  0.54198  1.0000
  O   O26       1.0  0.26828  0.69471  0.47457  1.0000
  O   O27       1.0  0.20050000000000018  0.9144400000000003  0.49488000000000004  1.0000
  O   O28       1.0  0.64519  0.17181000000000007  0.39014000000000004  1.0000
  O   O29       1.0  0.005000000000000065  0.3828600000000001  0.35386  1.0000
  O   O30       1.0  0.8796800000000002  0.2730500000000001  0.4002800000000001  1.0000
  O   O31       1.0  0.32578000000000007  0.71505  0.13757  1.0000
  O   O32       1.0  0.8145300000000001  0.4682400000000001  0.29279  1.0000
  O   O33       1.0  0.4431400000000001  0.08921  0.04347  1.0000
  O   O34       1.0  0.77998  0.34527000000000013  0.23916  1.0000
  O   O35       1.0  0.6149  0.41779  0.95936  1.0000
  O   O36       1.0  0.56949  0.30559  0.027310000000000004  1.0000
  O   O37       1.0  0.28551  0.08233  0.0034100000000000003  1.0000
  O   O38       1.0  0.4738  0.82759  0.10954  1.0000
  O   O39       1.0  0.62012  0.61703  0.14461  1.0000
  O   O40       1.0  0.6060700000000002  0.72696  0.09799  1.0000
