data_image0
_chemical_formula_structural       Eu8H24C72S12O48
_chemical_formula_sum              "Eu8 H24 C72 S12 O48"
_cell_length_a       10.96222
_cell_length_b       17.431009999999997
_cell_length_c       18.090150000000005
_cell_angle_alpha    105.09666999999999
_cell_angle_beta     90.03349
_cell_angle_gamma    89.92377000000002

_space_group_name_H-M_alt    "P 1"
_space_group_IT_number       1

loop_
  _space_group_symop_operation_xyz
  'x, y, z'

loop_
  _atom_site_type_symbol
  _atom_site_label
  _atom_site_symmetry_multiplicity
  _atom_site_fract_x
  _atom_site_fract_y
  _atom_site_fract_z
  _atom_site_occupancy
  Eu  Eu1       1.0  0.8813  0.9224299999999999  0.5122999999999999  1.0000
  Eu  Eu2       1.0  0.57492  0.10553999999999995  0.9864499999999999  1.0000
  Eu  Eu3       1.0  0.38015  0.57761  0.9874599999999999  1.0000
  Eu  Eu4       1.0  0.07577  0.39493  0.51317  1.0000
  Eu  Eu5       1.0  0.11871  0.07757000000000001  0.4877000000000001  1.0000
  Eu  Eu6       1.0  0.42509  0.89446  0.01355  1.0000
  Eu  Eu7       1.0  0.61986  0.42239  0.01253  1.0000
  Eu  Eu8       1.0  0.92424  0.60507  0.48683  1.0000
  H   H1        1.0  0.9580100000000001  0.27689  0.69261  1.0000
  H   H2        1.0  0.8712500000000001  0.34091  0.83393  1.0000
  H   H3        1.0  0.10075  0.9237199999999999  0.83836  1.0000
  H   H4        1.0  0.021740000000000002  0.92247  0.69818  1.0000
  H   H5        1.0  0.64857  0.7651999999999999  0.847  1.0000
  H   H6        1.0  0.75647  0.68964  0.71552  1.0000
  H   H7        1.0  0.45831000000000005  0.22282  0.80662  1.0000
  H   H8        1.0  0.37005000000000005  0.15942  0.66562  1.0000
  H   H9        1.0  0.60039  0.57582  0.66212  1.0000
  H   H10       1.0  0.52188  0.57765  0.80244  1.0000
  H   H11       1.0  0.1488  0.73486  0.65368  1.0000
  H   H12       1.0  0.25735  0.80994  0.78503  1.0000
  H   H13       1.0  0.042  0.72311  0.30739  1.0000
  H   H14       1.0  0.12876  0.65909  0.16607  1.0000
  H   H15       1.0  0.89926  0.07628  0.16163  1.0000
  H   H16       1.0  0.97827  0.07752999999999996  0.30181999999999987  1.0000
  H   H17       1.0  0.35143  0.23479999999999998  0.15299  1.0000
  H   H18       1.0  0.24354000000000003  0.31036  0.28447999999999996  1.0000
  H   H19       1.0  0.5417  0.77718  0.19338  1.0000
  H   H20       1.0  0.6299600000000001  0.84058  0.33438  1.0000
  H   H21       1.0  0.39962  0.42418  0.33787  1.0000
  H   H22       1.0  0.47813000000000005  0.4223499999999999  0.19756  1.0000
  H   H23       1.0  0.85121  0.26514  0.34632  1.0000
  H   H24       1.0  0.74265  0.19005999999999998  0.21497  1.0000
  C   C1        1.0  0.8863  0.11628  0.61889  1.0000
  C   C2        1.0  0.85499  0.17014  0.69422  1.0000
  C   C3        1.0  0.8974  0.24789000000000003  0.72455  1.0000
  C   C4        1.0  0.85248  0.28137  0.79857  1.0000
  C   C5        1.0  0.77679  0.22881  0.8238  1.0000
  C   C6        1.0  0.71243  0.24101  0.89768  1.0000
  C   C7        1.0  0.3341  0.9984699999999999  0.88527  1.0000
  C   C8        1.0  0.26133  0.9863199999999999  0.81404  1.0000
  C   C9        1.0  0.14862  0.94872  0.7974499999999999  1.0000
  C   C10       1.0  0.10699  0.94814  0.72373  1.0000
  C   C11       1.0  0.18852  0.9848699999999999  0.68459  1.0000
  C   C12       1.0  0.17451  0.9999899999999999  0.60849  1.0000
  C   C13       1.0  0.65548  0.9376299999999999  0.88697  1.0000
  C   C14       1.0  0.70143  0.8756500000000002  0.82118  1.0000
  C   C15       1.0  0.69369  0.79331  0.80738  1.0000
  C   C16       1.0  0.75034  0.7537  0.73813  1.0000
  C   C17       1.0  0.7985400000000001  0.80654  0.69967  1.0000
  C   C18       1.0  0.86319  0.78979  0.62572  1.0000
  C   C19       1.0  0.38699000000000006  0.3837  0.88106  1.0000
  C   C20       1.0  0.3551500000000001  0.32991  0.80577  1.0000
  C   C21       1.0  0.39721000000000006  0.25209  0.77509  1.0000
  C   C22       1.0  0.35144  0.21891999999999998  0.7012099999999999  1.0000
  C   C23       1.0  0.27524000000000004  0.27167  0.6764  1.0000
  C   C24       1.0  0.21017  0.25942  0.60264  1.0000
  C   C25       1.0  0.83381  0.50196  0.61504  1.0000
  C   C26       1.0  0.7612700000000001  0.51315  0.6862999999999999  1.0000
  C   C27       1.0  0.64843  0.55073  0.70296  1.0000
  C   C28       1.0  0.60698  0.55171  0.77676  1.0000
  C   C29       1.0  0.68872  0.51512  0.81597  1.0000
  C   C30       1.0  0.67483  0.50023  0.89212  1.0000
  C   C31       1.0  0.15588000000000002  0.56247  0.6131499999999999  1.0000
  C   C32       1.0  0.20211  0.62412  0.67907  1.0000
  C   C33       1.0  0.19414000000000003  0.70648  0.69308  1.0000
  C   C34       1.0  0.25108  0.74593  0.76226  1.0000
  C   C35       1.0  0.29999  0.69307  0.8004799999999997  1.0000
  C   C36       1.0  0.36584  0.71026  0.87408  1.0000
  C   C37       1.0  0.1137  0.88372  0.38111  1.0000
  C   C38       1.0  0.14502  0.82986  0.30577  1.0000
  C   C39       1.0  0.10261000000000002  0.75211  0.27545  1.0000
  C   C40       1.0  0.14753  0.71863  0.20142999999999997  1.0000
  C   C41       1.0  0.22322  0.77119  0.1762  1.0000
  C   C42       1.0  0.28758  0.75899  0.10231  1.0000
  C   C43       1.0  0.66591  0.0015300000000000023  0.11473  1.0000
  C   C44       1.0  0.73868  0.013680000000000003  0.18595  1.0000
  C   C45       1.0  0.85138  0.05128  0.20255  1.0000
  C   C46       1.0  0.89302  0.05186  0.27627  1.0000
  C   C47       1.0  0.81149  0.015129999999999996  0.31541  1.0000
  C   C48       1.0  0.8255000000000001  9.999999999994104e-06  0.39151  1.0000
  C   C49       1.0  0.34453000000000006  0.06236999999999999  0.11302999999999999  1.0000
  C   C50       1.0  0.29858  0.12435  0.17882  1.0000
  C   C51       1.0  0.30632  0.20669  0.19262  1.0000
  C   C52       1.0  0.24966000000000002  0.2463  0.26187  1.0000
  C   C53       1.0  0.20147  0.19346  0.30033  1.0000
  C   C54       1.0  0.13682  0.21020999999999995  0.37428  1.0000
  C   C55       1.0  0.61302  0.6163  0.11894000000000002  1.0000
  C   C56       1.0  0.64486  0.67009  0.19423  1.0000
  C   C57       1.0  0.60279  0.74791  0.22491  1.0000
  C   C58       1.0  0.64857  0.78108  0.29879  1.0000
  C   C59       1.0  0.72476  0.7283299999999998  0.3236  1.0000
  C   C60       1.0  0.78984  0.74058  0.39735  1.0000
  C   C61       1.0  0.1662  0.4980399999999999  0.38495  1.0000
  C   C62       1.0  0.23874000000000004  0.48685  0.31368999999999997  1.0000
  C   C63       1.0  0.35158  0.44926999999999995  0.29703999999999997  1.0000
  C   C64       1.0  0.39303  0.44829  0.22324  1.0000
  C   C65       1.0  0.31128  0.4848799999999999  0.18402  1.0000
  C   C66       1.0  0.32517  0.49977  0.10787  1.0000
  C   C67       1.0  0.84413  0.43753  0.38685  1.0000
  C   C68       1.0  0.7979000000000002  0.37588  0.3209199999999999  1.0000
  C   C69       1.0  0.8058700000000001  0.29352  0.30692  1.0000
  C   C70       1.0  0.74893  0.25406999999999996  0.23774  1.0000
  C   C71       1.0  0.70002  0.3069299999999999  0.19950999999999994  1.0000
  C   C72       1.0  0.63417  0.28974  0.12592  1.0000
  S   S1        1.0  0.76139  0.13831999999999997  0.75673  1.0000
  S   S2        1.0  0.31582  0.02057999999999999  0.73895  1.0000
  S   S3        1.0  0.77591  0.90449  0.74905  1.0000
  S   S4        1.0  0.26045  0.36204  0.7438  1.0000
  S   S5        1.0  0.81606  0.4791500000000001  0.7616  1.0000
  S   S6        1.0  0.2771  0.59513  0.75109  1.0000
  S   S7        1.0  0.23862  0.86168  0.24326999999999996  1.0000
  S   S8        1.0  0.68419  0.9794199999999998  0.26105  1.0000
  S   S9        1.0  0.22409  0.09551  0.25095  1.0000
  S   S10       1.0  0.73956  0.63796  0.25619  1.0000
  S   S11       1.0  0.18394  0.52085  0.2384  1.0000
  S   S12       1.0  0.7229  0.40487  0.24891  1.0000
  O   O1        1.0  0.82937  0.0503  0.59706  1.0000
  O   O2        1.0  0.97075  0.13976999999999992  0.5817699999999998  1.0000
  O   O3        1.0  0.64053  0.18563  0.90426  1.0000
  O   O4        1.0  0.73341  0.30472999999999995  0.9492499999999999  1.0000
  O   O5        1.0  0.30894000000000005  0.9549299999999998  0.92952  1.0000
  O   O6        1.0  0.41725  0.05176  0.89553  1.0000
  O   O7        1.0  0.07314  0.9807799999999999  0.57151  1.0000
  O   O8        1.0  0.25879  0.03519999999999998  0.58236  1.0000
  O   O9        1.0  0.69075  0.008550000000000002  0.89271  1.0000
  O   O10       1.0  0.58256  0.9171299999999997  0.9332499999999999  1.0000
  O   O11       1.0  0.87884  0.71839  0.58865  1.0000
  O   O12       1.0  0.90209  0.85053  0.6050599999999999  1.0000
  O   O13       1.0  0.32936000000000004  0.4496199999999999  0.90283  1.0000
  O   O14       1.0  0.4721  0.3603  0.9179299999999999  1.0000
  O   O15       1.0  0.13783000000000004  0.31461  0.59593  1.0000
  O   O16       1.0  0.23093  0.19560999999999995  0.55113  1.0000
  O   O17       1.0  0.8065100000000001  0.54522  0.5707899999999998  1.0000
  O   O18       1.0  0.91898  0.44998999999999995  0.60459  1.0000
  O   O19       1.0  0.57368  0.51952  0.92918  1.0000
  O   O20       1.0  0.7590900000000002  0.46486  0.91819  1.0000
  O   O21       1.0  0.18942000000000003  0.49118  0.60757  1.0000
  O   O22       1.0  0.08448  0.58343  0.56632  1.0000
  O   O23       1.0  0.38235  0.78183  0.9104799999999997  1.0000
  O   O24       1.0  0.4047700000000001  0.6498499999999999  0.89535  1.0000
  O   O25       1.0  0.17064  0.9496999999999999  0.40293  1.0000
  O   O26       1.0  0.02926  0.86023  0.41823  1.0000
  O   O27       1.0  0.35948  0.8143699999999999  0.09574  1.0000
  O   O28       1.0  0.2666  0.6952699999999999  0.05074999999999999  1.0000
  O   O29       1.0  0.6910700000000001  0.04507  0.07048  1.0000
  O   O30       1.0  0.58275  0.94824  0.10446  1.0000
  O   O31       1.0  0.9268700000000001  0.019220000000000004  0.42848  1.0000
  O   O32       1.0  0.74122  0.9648  0.41764  1.0000
  O   O33       1.0  0.30926  0.9914500000000002  0.10729  1.0000
  O   O34       1.0  0.41745000000000004  0.08287  0.06675  1.0000
  O   O35       1.0  0.12117  0.28161  0.41135  1.0000
  O   O36       1.0  0.09792000000000001  0.14947  0.39494  1.0000
  O   O37       1.0  0.6706500000000001  0.55038  0.09717  1.0000
  O   O38       1.0  0.52791  0.6397  0.08207  1.0000
  O   O39       1.0  0.86218  0.68539  0.4040699999999999  1.0000
  O   O40       1.0  0.76908  0.8044  0.44887  1.0000
  O   O41       1.0  0.19350000000000003  0.45478  0.4292  1.0000
  O   O42       1.0  0.08102  0.55002  0.39541  1.0000
  O   O43       1.0  0.42633  0.48047999999999996  0.07081  1.0000
  O   O44       1.0  0.24092  0.53514  0.08181  1.0000
  O   O45       1.0  0.8105900000000001  0.50882  0.39243  1.0000
  O   O46       1.0  0.91552  0.4165699999999999  0.43368  1.0000
  O   O47       1.0  0.61766  0.21816999999999995  0.08952  1.0000
  O   O48       1.0  0.59524  0.35015  0.10465  1.0000
