data_image0
_chemical_formula_structural       Cd6H60C108O36
_chemical_formula_sum              "Cd6 H60 C108 O36"
_cell_length_a       11.09109
_cell_length_b       15.57743
_cell_length_c       19.258039999999998
_cell_angle_alpha    98.06332
_cell_angle_beta     90.10383000000002
_cell_angle_gamma    90.10791000000002

_symmetry_space_group_name_H-M    'P 1'
_symmetry_Int_Tables_number       1

loop_
  _symmetry_equiv_pos_as_xyz
  'x,y,z'

loop_
  _atom_site_type_symbol
  _atom_site_label
  _atom_site_symmetry_multiplicity
  _atom_site_fract_x
  _atom_site_fract_y
  _atom_site_fract_z
  _atom_site_occupancy
  Cd  Cd1       1.0  0.44794  0.5012100000000002  0.2503500000000001  1.0000
  Cd  Cd2       1.0  0.46225  0.5556600000000003  0.92253  1.0000
  Cd  Cd3       1.0  0.53776  0.44435000000000013  0.07747  1.0000
  Cd  Cd4       1.0  0.55207  0.49879000000000007  0.7496500000000001  1.0000
  Cd  Cd5       1.0  0.4609099999999999  0.4430600000000001  0.57682  1.0000
  Cd  Cd6       1.0  0.5391  0.55694  0.42319000000000007  1.0000
  H   H1        1.0  0.76818  0.9130200000000003  0.26465  1.0000
  H   H2        1.0  0.18282999999999996  0.16261  0.45248  1.0000
  H   H3        1.0  0.06641  0.8192100000000002  0.5186  1.0000
  H   H4        1.0  0.12781  0.3294100000000001  0.22585  1.0000
  H   H5        1.0  0.29992  0.8492200000000002  0.26202  1.0000
  H   H6        1.0  0.59092  0.7073600000000002  0.73015  1.0000
  H   H7        1.0  0.86393  0.9299400000000002  0.87652  1.0000
  H   H8        1.0  0.014409999999999997  0.8310300000000003  0.67367  1.0000
  H   H9        1.0  0.23182999999999998  0.08699000000000003  0.73535  1.0000
  H   H10       1.0  0.75849  0.9878500000000002  0.41703  1.0000
  H   H11       1.0  0.71759  0.8168700000000002  0.35441  1.0000
  H   H12       1.0  0.27198  0.6962400000000002  0.60176  1.0000
  H   H13       1.0  0.70637  0.69923  0.51566  1.0000
  H   H14       1.0  0.06769  0.18038000000000007  0.98205  1.0000
  H   H15       1.0  0.9855999999999999  0.16898  0.32633  1.0000
  H   H16       1.0  0.31873  0.5999  0.69229  1.0000
  H   H17       1.0  0.8722  0.67059  0.77415  1.0000
  H   H18       1.0  0.1824  0.83692  0.047650000000000005  1.0000
  H   H19       1.0  0.68332  0.59932  0.19203  1.0000
  H   H20       1.0  0.31669  0.40068  0.80797  1.0000
  H   H21       1.0  0.86989  0.32695000000000013  0.72552  1.0000
  H   H22       1.0  0.9852799999999999  0.8308500000000002  0.17338  1.0000
  H   H23       1.0  0.03367  0.21545000000000009  0.6990500000000001  1.0000
  H   H24       1.0  0.24152  0.012160000000000023  0.58297  1.0000
  H   H25       1.0  0.29364  0.30078  0.48434  1.0000
  H   H26       1.0  0.7276599999999999  0.69613  0.10134000000000003  1.0000
  H   H27       1.0  0.27235  0.30387  0.89866  1.0000
  H   H28       1.0  0.9323199999999998  0.8196200000000001  0.01795  1.0000
  H   H29       1.0  0.2324  0.9130900000000004  0.76515  1.0000
  H   H30       1.0  0.24136  0.9882300000000002  0.91752  1.0000
  H   H31       1.0  0.13589  0.9304200000000002  0.37714000000000003  1.0000
  H   H32       1.0  0.69927  0.8486400000000004  0.7617300000000001  1.0000
  H   H33       1.0  0.70343  0.2995700000000001  0.9840800000000001  1.0000
  H   H34       1.0  0.96615  0.21565000000000006  0.19926000000000002  1.0000
  H   H35       1.0  0.014729999999999998  0.1691600000000001  0.8266200000000002  1.0000
  H   H36       1.0  0.7717  0.70489  0.9909400000000002  1.0000
  H   H37       1.0  0.9336  0.18079000000000006  0.48140000000000005  1.0000
  H   H38       1.0  0.22991  0.7073400000000002  0.49155  1.0000
  H   H39       1.0  0.8641199999999999  0.06957999999999999  0.62286  1.0000
  H   H40       1.0  0.81718  0.8373900000000004  0.54752  1.0000
  H   H41       1.0  0.41038  0.7093100000000003  0.23118  1.0000
  H   H42       1.0  0.28452  0.8171700000000002  0.85477  1.0000
  H   H43       1.0  0.68129  0.40011000000000013  0.30771  1.0000
  H   H44       1.0  0.81761  0.16309  0.95235  1.0000
  H   H45       1.0  0.28242  0.18313000000000004  0.64559  1.0000
  H   H46       1.0  0.13012  0.67305  0.2744800000000001  1.0000
  H   H47       1.0  0.7701  0.29267  0.50845  1.0000
  H   H48       1.0  0.76761  0.08691  0.23486000000000004  1.0000
  H   H49       1.0  0.72803  0.30376  0.39824  1.0000
  H   H50       1.0  0.75865  0.011780000000000004  0.08248  1.0000
  H   H51       1.0  0.03386  0.78436  0.80074  1.0000
  H   H52       1.0  0.22831  0.29512  0.00906  1.0000
  H   H53       1.0  0.71549  0.18283  0.14523  1.0000
  H   H54       1.0  0.70009  0.15079000000000006  0.73798  1.0000
  H   H55       1.0  0.9663399999999999  0.7845600000000003  0.30095  1.0000
  H   H56       1.0  0.13608  0.07006000000000003  0.12348  1.0000
  H   H57       1.0  0.29658  0.7004300000000002  0.01592  1.0000
  H   H58       1.0  0.58963  0.2907  0.76882  1.0000
  H   H59       1.0  0.30074  0.15137  0.23827  1.0000
  H   H60       1.0  0.40908999999999995  0.2926400000000001  0.26985  1.0000
  C   C1        1.0  0.2518  0.1905100000000001  0.8221600000000001  1.0000
  C   C2        1.0  0.7061  0.7305700000000003  0.56982  1.0000
  C   C3        1.0  0.36169  0.7377400000000002  0.19108  1.0000
  C   C4        1.0  0.8621999999999999  0.08357  0.37118  1.0000
  C   C5        1.0  0.29991  0.81529  0.20872  1.0000
  C   C6        1.0  0.30548  0.2973200000000001  0.72143  1.0000
  C   C7        1.0  0.29391  0.26944  0.43018000000000006  1.0000
  C   C8        1.0  0.88473  0.29482  0.6723700000000002  1.0000
  C   C9        1.0  0.29965  0.18539000000000003  0.29156  1.0000
  C   C10       1.0  0.7471399999999999  0.1551200000000001  0.25068000000000007  1.0000
  C   C11       1.0  0.69865  0.3314700000000001  0.2923900000000001  1.0000
  C   C12       1.0  0.8621799999999998  0.9162900000000003  0.12848  1.0000
  C   C13       1.0  0.76482  0.14963000000000007  0.84306  1.0000
  C   C14       1.0  0.23509  0.14984000000000006  0.3431800000000001  1.0000
  C   C15       1.0  0.94135  0.9723  0.8750800000000001  1.0000
  C   C16       1.0  0.25222  0.15532  0.75108  1.0000
  C   C17       1.0  0.80963  0.31513  0.6183  1.0000
  C   C18       1.0  0.57458  0.6110600000000003  0.60402  1.0000
  C   C19       1.0  0.23225999999999997  0.8086900000000002  0.08757  1.0000
  C   C20       1.0  0.84604  0.9943000000000002  0.10174  1.0000
  C   C21       1.0  0.29554  0.6252100000000003  0.36689  1.0000
  C   C22       1.0  0.8123499999999999  0.6817400000000001  0.88124  1.0000
  C   C23       1.0  0.63988  0.7363300000000003  0.6904800000000001  1.0000
  C   C24       1.0  0.13783  0.08371  0.87152  1.0000
  C   C25       1.0  0.27469  0.72165  0.65726  1.0000
  C   C26       1.0  0.34489  0.3527  0.6688600000000001  1.0000
  C   C27       1.0  0.64158  0.6934500000000002  0.6210400000000001  1.0000
  C   C28       1.0  0.84581  0.005489999999999999  0.39785  1.0000
  C   C29       1.0  0.25287  0.8448800000000001  0.74932  1.0000
  C   C30       1.0  0.13781  0.9164300000000002  0.62882  1.0000
  C   C31       1.0  0.054770000000000006  0.9503500000000004  0.89911  1.0000
  C   C32       1.0  0.57097  0.3865600000000001  0.8958  1.0000
  C   C33       1.0  0.36114  0.69519  0.12153  1.0000
  C   C34       1.0  0.88686  0.7030400000000002  0.8272900000000001  1.0000
  C   C35       1.0  0.05512  0.049690000000000026  0.60085  1.0000
  C   C36       1.0  0.11314999999999999  0.29696  0.17271000000000003  1.0000
  C   C37       1.0  0.18766  0.31827000000000016  0.11876  1.0000
  C   C38       1.0  0.3076  0.70321  0.77882  1.0000
  C   C39       1.0  0.29168  0.3794900000000001  0.13365  1.0000
  C   C40       1.0  0.30137  0.6685400000000001  0.7076100000000002  1.0000
  C   C41       1.0  0.058379999999999994  0.9724200000000002  0.37536  1.0000
  C   C42       1.0  0.9293199999999999  0.9486900000000003  0.65037  1.0000
  C   C43       1.0  0.08083999999999998  0.21435000000000007  0.03472  1.0000
  C   C44       1.0  0.98911  0.80822  0.9106  1.0000
  C   C45       1.0  0.72532  0.27835  0.3427400000000001  1.0000
  C   C46       1.0  0.7256699999999999  0.72138  0.15687000000000004  1.0000
  C   C47       1.0  0.02406  0.23368000000000005  0.15814  1.0000
  C   C48       1.0  0.97525  0.23293  0.65792  1.0000
  C   C49       1.0  0.69241  0.2968  0.22118000000000004  1.0000
  C   C50       1.0  0.74779  0.8446800000000002  0.24892  1.0000
  C   C51       1.0  0.01063  0.80853  0.41084  1.0000
  C   C52       1.0  0.07069  0.05132000000000002  0.34963000000000005  1.0000
  C   C53       1.0  0.70026  0.6680900000000002  0.20733  1.0000
  C   C54       1.0  0.63832  0.2622700000000001  0.80893  1.0000
  C   C55       1.0  0.63887  0.3048200000000001  0.87847  1.0000
  C   C56       1.0  0.42543  0.38895  0.39598  1.0000
  C   C57       1.0  0.15398  0.0057100000000000085  0.8982600000000001  1.0000
  C   C58       1.0  0.9291999999999999  0.05134000000000003  0.84959  1.0000
  C   C59       1.0  0.08057  0.7863000000000002  0.46574000000000004  1.0000
  C   C60       1.0  0.7083299999999999  0.62052  0.86635  1.0000
  C   C61       1.0  0.28154  0.79146  0.79928  1.0000
  C   C62       1.0  0.72004  0.79116  0.29893  1.0000
  C   C63       1.0  0.11527999999999998  0.70519  0.32763  1.0000
  C   C64       1.0  0.94524  0.04965000000000003  0.10089  1.0000
  C   C65       1.0  0.83078  0.72217  0.95016  1.0000
  C   C66       1.0  0.76775  0.19132000000000007  0.9124400000000001  1.0000
  C   C67       1.0  0.8294099999999999  0.27566  0.54929  1.0000
  C   C68       1.0  0.35843  0.3065600000000001  0.3789600000000001  1.0000
  C   C69       1.0  0.2519  0.8096399999999999  0.67821  1.0000
  C   C70       1.0  0.1542  0.9945100000000002  0.6021500000000001  1.0000
  C   C71       1.0  0.19038  0.6848800000000004  0.38171000000000005  1.0000
  C   C72       1.0  0.97387  0.89199  0.15314  1.0000
  C   C73       1.0  0.9416299999999999  0.027580000000000007  0.62464  1.0000
  C   C74       1.0  0.7038499999999999  0.26831000000000005  0.9299  1.0000
  C   C75       1.0  0.42904  0.61345  0.1042  1.0000
  C   C76       1.0  0.76492  0.8501600000000002  0.65682  1.0000
  C   C77       1.0  0.05866  0.02771000000000001  0.12492000000000002  1.0000
  C   C78       1.0  0.71847  0.20855000000000012  0.20072000000000007  1.0000
  C   C79       1.0  0.91944  0.21370000000000003  0.5342600000000001  1.0000
  C   C80       1.0  0.02476  0.76707  0.3420800000000001  1.0000
  C   C81       1.0  0.23519999999999996  0.8503800000000002  0.15694  1.0000
  C   C82       1.0  0.65247  0.3519700000000001  0.16868000000000005  1.0000
  C   C83       1.0  0.65512  0.6473  0.33114000000000005  1.0000
  C   C84       1.0  0.6945299999999999  0.7026900000000003  0.27857  1.0000
  C   C85       1.0  0.02614  0.10801000000000004  0.84686  1.0000
  C   C86       1.0  0.23172999999999996  0.19153000000000006  0.41257  1.0000
  C   C87       1.0  0.7482199999999999  0.8095000000000002  0.17784  1.0000
  C   C88       1.0  0.7001  0.18471000000000004  0.79128  1.0000
  C   C89       1.0  0.0109  0.19178000000000006  0.0894  1.0000
  C   C90       1.0  0.27434  0.27862  0.84313  1.0000
  C   C91       1.0  0.02604  0.8921000000000002  0.65331  1.0000
  C   C92       1.0  0.29975  0.3319200000000001  0.79267  1.0000
  C   C93       1.0  0.91917  0.7856500000000002  0.96528  1.0000
  C   C94       1.0  0.70447  0.3747900000000001  0.63311  1.0000
  C   C95       1.0  0.36013999999999996  0.26368000000000014  0.30952  1.0000
  C   C96       1.0  0.70036  0.8146100000000002  0.70844  1.0000
  C   C97       1.0  0.16924  0.2778400000000001  0.04984  1.0000
  C   C98       1.0  0.7481099999999999  0.19036000000000008  0.32179000000000013  1.0000
  C   C99       1.0  0.9739699999999999  0.10791  0.34669  1.0000
  C   C100      1.0  0.9759499999999999  0.76632  0.84186  1.0000
  C   C101      1.0  0.76828  0.80847  0.58743  1.0000
  C   C102      1.0  0.27997  0.20885000000000006  0.70107  1.0000
  C   C103      1.0  0.07081  0.9486600000000002  0.15041000000000002  1.0000
  C   C104      1.0  0.94489  0.9503200000000003  0.39915  1.0000
  C   C105      1.0  0.29616  0.7317000000000002  0.0701  1.0000
  C   C106      1.0  0.34754  0.6480400000000002  0.8313200000000001  1.0000
  C   C107      1.0  0.98938  0.19147  0.58916  1.0000
  C   C108      1.0  0.17061000000000004  0.7243500000000004  0.45071  1.0000
  O   O1        1.0  0.31973  0.5988500000000002  0.30261000000000005  1.0000
  O   O2        1.0  0.68505  0.5934800000000002  0.80203  1.0000
  O   O3        1.0  0.61775  0.56915  0.30952  1.0000
  O   O4        1.0  0.4730599999999999  0.42471000000000003  0.34673  1.0000
  O   O5        1.0  0.52695  0.5753000000000003  0.6532700000000001  1.0000
  O   O6        1.0  0.7632  0.8612000000000002  0.12514000000000003  1.0000
  O   O7        1.0  0.47359  0.57573  0.15331  1.0000
  O   O8        1.0  0.38768  0.5708100000000003  0.8094800000000002  1.0000
  O   O9        1.0  0.9245299999999999  0.8741  0.4267000000000001  1.0000
  O   O10       1.0  0.64629  0.39212000000000014  0.57963  1.0000
  O   O11       1.0  0.18271  0.06931  0.32283  1.0000
  O   O12       1.0  0.4405  0.4268000000000001  0.45931  1.0000
  O   O13       1.0  0.3456  0.67588  0.89654  1.0000
  O   O14       1.0  0.55951  0.57321  0.5406900000000001  1.0000
  O   O15       1.0  0.92529  0.12574000000000005  0.07326  1.0000
  O   O16       1.0  0.44791  0.57825  0.04062  1.0000
  O   O17       1.0  0.34979  0.39746000000000004  0.08032000000000003  1.0000
  O   O18       1.0  0.5521  0.4217500000000001  0.95938  1.0000
  O   O19       1.0  0.31496  0.40652  0.19797  1.0000
  O   O20       1.0  0.76373  0.13894000000000006  0.37468000000000007  1.0000
  O   O21       1.0  0.34539  0.32380000000000003  0.6037600000000001  1.0000
  O   O22       1.0  0.07548  0.1259  0.57331  1.0000
  O   O23       1.0  0.65441  0.32412000000000013  0.10346  1.0000
  O   O24       1.0  0.23629  0.8610700000000002  0.62532  1.0000
  O   O25       1.0  0.18273  0.9306900000000002  0.17728  1.0000
  O   O26       1.0  0.23681  0.1388000000000001  0.8748600000000001  1.0000
  O   O27       1.0  0.38226  0.4308500000000001  0.6904800000000001  1.0000
  O   O28       1.0  0.61233  0.42920000000000014  0.19052  1.0000
  O   O29       1.0  0.81728  0.06931  0.82272  1.0000
  O   O30       1.0  0.65022  0.6025500000000003  0.9196800000000002  1.0000
  O   O31       1.0  0.52642  0.42427999999999993  0.84669  1.0000
  O   O32       1.0  0.68028  0.4011600000000001  0.69739  1.0000
  O   O33       1.0  0.35372000000000003  0.6078900000000003  0.4203700000000001  1.0000
  O   O34       1.0  0.65462  0.67621  0.39625000000000005  1.0000
  O   O35       1.0  0.8173  0.9307000000000002  0.67717  1.0000
  O   O36       1.0  0.07472  0.8742600000000003  0.92675  1.0000
