data_image0
_chemical_formula_structural       Tb8H24C72S12O48
_chemical_formula_sum              "Tb8 H24 C72 S12 O48"
_cell_length_a       10.5076
_cell_length_b       16.90539
_cell_length_c       17.752190000000002
_cell_angle_alpha    89.98519
_cell_angle_beta     90.06268
_cell_angle_gamma    89.93898

_symmetry_space_group_name_H-M    'P 1'
_symmetry_Int_Tables_number       1

loop_
  _symmetry_equiv_pos_as_xyz
  'x,y,z'

loop_
  _atom_site_type_symbol
  _atom_site_label
  _atom_site_symmetry_multiplicity
  _atom_site_fract_x
  _atom_site_fract_y
  _atom_site_fract_z
  _atom_site_occupancy
  Tb  Tb1       1.0  0.3180200000000001  0.47456000000000004  0.23916  1.0000
  Tb  Tb2       1.0  0.13992  0.6809700000000001  0.22859000000000002  1.0000
  Tb  Tb3       1.0  0.68356  0.52562  0.73973  1.0000
  Tb  Tb4       1.0  0.85994  0.31906  0.72867  1.0000
  Tb  Tb5       1.0  0.18311  0.97393  0.23929  1.0000
  Tb  Tb6       1.0  0.35907000000000006  0.18089000000000005  0.2287  1.0000
  Tb  Tb7       1.0  0.8169500000000002  0.025890000000000007  0.7393  1.0000
  Tb  Tb8       1.0  0.6401100000000001  0.81902  0.72868  1.0000
  H   H1        1.0  0.87842  0.6291700000000002  0.55103  1.0000
  H   H2        1.0  0.9722000000000002  0.64673  0.41192  1.0000
  H   H3        1.0  0.6403600000000002  0.20928000000000005  0.9154499999999999  1.0000
  H   H4        1.0  0.5545500000000001  0.20089000000000007  0.05691  1.0000
  H   H5        1.0  0.6430300000000001  0.55139  0.9369699999999999  1.0000
  H   H6        1.0  0.54167  0.5315900000000002  0.07325  1.0000
  H   H7        1.0  0.12167  0.37058  0.05152  1.0000
  H   H8        1.0  0.02822  0.35323  0.9121200000000002  1.0000
  H   H9        1.0  0.36012000000000005  0.79095  0.41522  1.0000
  H   H10       1.0  0.4455100000000001  0.79895  0.55685  1.0000
  H   H11       1.0  0.35869  0.4490300000000001  0.43663  1.0000
  H   H12       1.0  0.45869000000000004  0.46831  0.57348  1.0000
  H   H13       1.0  0.62161  0.12912000000000004  0.55126  1.0000
  H   H14       1.0  0.52826  0.14659000000000005  0.41185  1.0000
  H   H15       1.0  0.8598900000000002  0.70927  0.91495  1.0000
  H   H16       1.0  0.94447  0.70061  0.05681  1.0000
  H   H17       1.0  0.8587800000000002  0.05072  0.93667  1.0000
  H   H18       1.0  0.9589000000000002  0.03162  0.07356  1.0000
  H   H19       1.0  0.37856000000000006  0.87086  0.05109  1.0000
  H   H20       1.0  0.47223  0.8531800000000003  0.9120099999999999  1.0000
  H   H21       1.0  0.14001000000000002  0.29038  0.41526  1.0000
  H   H22       1.0  0.05484  0.29906  0.55673  1.0000
  H   H23       1.0  0.14124  0.94901  0.43686  1.0000
  H   H24       1.0  0.04138  0.9682300000000001  0.57357  1.0000
  C   C1        1.0  0.9586  0.51055  0.55004  1.0000
  C   C2        1.0  0.93117  0.58467  0.51988  1.0000
  C   C3        1.0  0.97947  0.59392  0.44652  1.0000
  C   C4        1.0  0.042780000000000006  0.52668  0.42144  1.0000
  C   C5        1.0  0.11032  0.51651  0.35  1.0000
  C   C6        1.0  0.9179800000000002  0.48003000000000007  0.62379  1.0000
  C   C7        1.0  0.57514  0.33156  0.9149799999999999  1.0000
  C   C8        1.0  0.5941900000000001  0.2569  0.94622  1.0000
  C   C9        1.0  0.54955  0.25255  0.02071  1.0000
  C   C10       1.0  0.49789000000000005  0.32383  0.0455  1.0000
  C   C11       1.0  0.45152  0.3398700000000001  0.12202  1.0000
  C   C12       1.0  0.6233700000000001  0.36007  0.8423  1.0000
  C   C13       1.0  0.5227000000000002  0.65539  0.92527  1.0000
  C   C14       1.0  0.57214  0.58969  0.96246  1.0000
  C   C15       1.0  0.51943  0.57951  0.03469  1.0000
  C   C16       1.0  0.42995  0.63717  0.05191  1.0000
  C   C17       1.0  0.35036000000000006  0.64251  0.11942  1.0000
  C   C18       1.0  0.55835  0.6821000000000003  0.84887  1.0000
  C   C19       1.0  0.041580000000000006  0.48927  0.05023  1.0000
  C   C20       1.0  0.06901  0.41510000000000014  0.02021  1.0000
  C   C21       1.0  0.020960000000000003  0.40599  0.9467299999999998  1.0000
  C   C22       1.0  0.95774  0.47328000000000003  0.92157  1.0000
  C   C23       1.0  0.89014  0.48371  0.85017  1.0000
  C   C24       1.0  0.08217  0.51983  0.12400000000000001  1.0000
  C   C25       1.0  0.4248600000000001  0.66862  0.41441  1.0000
  C   C26       1.0  0.40605  0.7431500000000002  0.44593  1.0000
  C   C27       1.0  0.4505  0.7473000000000002  0.52059  1.0000
  C   C28       1.0  0.50198  0.67592  0.54539  1.0000
  C   C29       1.0  0.54846  0.6597  0.62204  1.0000
  C   C30       1.0  0.37785  0.64016  0.34123  1.0000
  C   C31       1.0  0.4771  0.34418  0.42573  1.0000
  C   C32       1.0  0.42852000000000007  0.4102400000000001  0.46264  1.0000
  C   C33       1.0  0.48042000000000007  0.42009  0.53519  1.0000
  C   C34       1.0  0.5683400000000001  0.36168  0.55314  1.0000
  C   C35       1.0  0.6471600000000001  0.35608  0.62117  1.0000
  C   C36       1.0  0.4414800000000001  0.3177500000000001  0.34914  1.0000
  C   C37       1.0  0.5407600000000001  0.01071  0.55025  1.0000
  C   C38       1.0  0.5686200000000001  0.08473000000000003  0.52007  1.0000
  C   C39       1.0  0.52062  0.09388  0.44657  1.0000
  C   C40       1.0  0.4570600000000001  0.026730000000000007  0.42157  1.0000
  C   C41       1.0  0.38975000000000004  0.01637  0.35005  1.0000
  C   C42       1.0  0.58162  0.9801300000000001  0.62395  1.0000
  C   C43       1.0  0.92528  0.8315000000000002  0.91489  1.0000
  C   C44       1.0  0.9059100000000001  0.75681  0.9459400000000001  1.0000
  C   C45       1.0  0.9498200000000001  0.75229  0.02064  1.0000
  C   C46       1.0  0.00145  0.82341  0.04572  1.0000
  C   C47       1.0  0.04646  0.8393700000000002  0.12260000000000001  1.0000
  C   C48       1.0  0.8774700000000002  0.86012  0.84204  1.0000
  C   C49       1.0  0.97686  0.15567  0.9257300000000002  1.0000
  C   C50       1.0  0.92842  0.08959  0.96266  1.0000
  C   C51       1.0  0.9803900000000001  0.07984  0.03523  1.0000
  C   C52       1.0  0.06798  0.13833000000000006  0.05314  1.0000
  C   C53       1.0  0.14691  0.14392  0.1211  1.0000
  C   C54       1.0  0.94144  0.1822  0.84914  1.0000
  C   C55       1.0  0.45844  0.98948  0.05003  1.0000
  C   C56       1.0  0.43117  0.9153500000000002  0.01991  1.0000
  C   C57       1.0  0.4794800000000001  0.9060400000000002  0.94656  1.0000
  C   C58       1.0  0.54257  0.9733  0.92149  1.0000
  C   C59       1.0  0.61006  0.98349  0.85006  1.0000
  C   C60       1.0  0.418  0.020000000000000007  0.12380999999999999  1.0000
  C   C61       1.0  0.07498000000000002  0.16820000000000002  0.41494  1.0000
  C   C62       1.0  0.09401  0.24283  0.44613  1.0000
  C   C63       1.0  0.04965000000000001  0.24730000000000002  0.52068  1.0000
  C   C64       1.0  0.99803  0.17609000000000002  0.54554  1.0000
  C   C65       1.0  0.95158  0.16000000000000006  0.62204  1.0000
  C   C66       1.0  0.12253  0.13974  0.34207000000000004  1.0000
  C   C67       1.0  0.022590000000000006  0.84438  0.42562  1.0000
  C   C68       1.0  0.07128  0.9103000000000001  0.46267  1.0000
  C   C69       1.0  0.019440000000000002  0.9201  0.53519  1.0000
  C   C70       1.0  0.93143  0.8618100000000002  0.55297  1.0000
  C   C71       1.0  0.8528300000000001  0.8561900000000002  0.62105  1.0000
  C   C72       1.0  0.05840000000000001  0.8178700000000001  0.34915  1.0000
  S   S1        1.0  0.04345000000000001  0.45224  0.48801  1.0000
  S   S2        1.0  0.5009500000000001  0.39552  0.97656  1.0000
  S   S3        1.0  0.41212000000000004  0.70493  0.97969  1.0000
  S   S4        1.0  0.957  0.54766  0.98805  1.0000
  S   S5        1.0  0.49876000000000004  0.60443  0.47623000000000004  1.0000
  S   S6        1.0  0.58567  0.29375  0.48106999999999994  1.0000
  S   S7        1.0  0.45584  0.9524700000000001  0.48825  1.0000
  S   S8        1.0  0.9992200000000001  0.89523  0.97683  1.0000
  S   S9        1.0  0.08513  0.20620000000000005  0.98102  1.0000
  S   S10       1.0  0.54304  0.04778  0.9880099999999999  1.0000
  S   S11       1.0  0.00098  0.10438000000000001  0.47662  1.0000
  S   S12       1.0  0.9139500000000002  0.79403  0.48073000000000005  1.0000
  O   O1        1.0  0.16875000000000004  0.45195  0.33718  1.0000
  O   O2        1.0  0.11259  0.57459  0.30312  1.0000
  O   O3        1.0  0.94394  0.40805000000000013  0.64031  1.0000
  O   O4        1.0  0.85715  0.52819  0.66628  1.0000
  O   O5        1.0  0.41835  0.41034  0.13992  1.0000
  O   O6        1.0  0.45014000000000004  0.2813  0.16713  1.0000
  O   O7        1.0  0.60577  0.4331300000000001  0.8255  1.0000
  O   O8        1.0  0.6841800000000001  0.3098200000000001  0.80231  1.0000
  O   O9        1.0  0.28131  0.70382  0.12882  1.0000
  O   O10       1.0  0.34957  0.5845  0.16636  1.0000
  O   O11       1.0  0.53705  0.75383  0.82977  1.0000
  O   O12       1.0  0.6123800000000001  0.63128  0.8063  1.0000
  O   O13       1.0  0.8314400000000002  0.54833  0.83748  1.0000
  O   O14       1.0  0.8877  0.42604  0.80303  1.0000
  O   O15       1.0  0.055990000000000005  0.5917500000000002  0.14047  1.0000
  O   O16       1.0  0.14325  0.4717900000000001  0.16653  1.0000
  O   O17       1.0  0.5816100000000001  0.58922  0.64  1.0000
  O   O18       1.0  0.5498300000000002  0.71839  0.66707  1.0000
  O   O19       1.0  0.39426  0.56672  0.32555  1.0000
  O   O20       1.0  0.31932  0.69023  0.29959  1.0000
  O   O21       1.0  0.71288  0.29364  0.63222  1.0000
  O   O22       1.0  0.65082  0.41521  0.66673  1.0000
  O   O23       1.0  0.4624  0.24604  0.32985  1.0000
  O   O24       1.0  0.38789000000000007  0.3688200000000001  0.30651  1.0000
  O   O25       1.0  0.33121000000000006  0.9518  0.33732  1.0000
  O   O26       1.0  0.3875100000000001  0.07416000000000002  0.30297  1.0000
  O   O27       1.0  0.55591  0.90813  0.64042  1.0000
  O   O28       1.0  0.64272  0.02817  0.66637  1.0000
  O   O29       1.0  0.08204000000000002  0.9094300000000002  0.14017  1.0000
  O   O30       1.0  0.04428000000000001  0.7812300000000002  0.16831  1.0000
  O   O31       1.0  0.8943800000000001  0.93327  0.82548  1.0000
  O   O32       1.0  0.81752  0.80979  0.80167  1.0000
  O   O33       1.0  0.21259  0.20631  0.13209  1.0000
  O   O34       1.0  0.15066  0.08478  0.16668  1.0000
  O   O35       1.0  0.96259  0.25385  0.82984  1.0000
  O   O36       1.0  0.8878100000000001  0.13124  0.80648  1.0000
  O   O37       1.0  0.6686300000000001  0.04801  0.83735  1.0000
  O   O38       1.0  0.6123500000000001  0.9256400000000002  0.80305  1.0000
  O   O39       1.0  0.44378  0.09196  0.14029  1.0000
  O   O40       1.0  0.35726  0.9718100000000001  0.16626  1.0000
  O   O41       1.0  0.91827  0.08957000000000002  0.63987  1.0000
  O   O42       1.0  0.9503400000000001  0.21851  0.66722  1.0000
  O   O43       1.0  0.10567000000000001  0.06658  0.3255  1.0000
  O   O44       1.0  0.18207  0.19025  0.30174  1.0000
  O   O45       1.0  0.78723  0.7937800000000003  0.6322  1.0000
  O   O46       1.0  0.8493000000000002  0.9153500000000002  0.66658  1.0000
  O   O47       1.0  0.03765  0.74614  0.32996  1.0000
  O   O48       1.0  0.11214  0.86877  0.30654  1.0000
