data_image0
_chemical_formula_structural       Mn8H44C72O40
_chemical_formula_sum              "Mn8 H44 C72 O40"
_cell_length_a       12.70884
_cell_length_b       15.65651
_cell_length_c       16.503189999999996
_cell_angle_alpha    89.99537
_cell_angle_beta     90.00278
_cell_angle_gamma    89.91142

_space_group_name_H-M_alt    "P 1"
_space_group_IT_number       1

loop_
  _space_group_symop_operation_xyz
  'x, y, z'

loop_
  _atom_site_type_symbol
  _atom_site_label
  _atom_site_symmetry_multiplicity
  _atom_site_fract_x
  _atom_site_fract_y
  _atom_site_fract_z
  _atom_site_occupancy
  Mn  Mn1       1.0  0.73323  0.75878  0.11287000000000003  1.0000
  Mn  Mn2       1.0  0.4795699999999999  0.73539  0.9979  1.0000
  Mn  Mn3       1.0  0.76636  0.24125  0.61275  1.0000
  Mn  Mn4       1.0  0.01985  0.26448  0.4979100000000001  1.0000
  Mn  Mn5       1.0  0.26762  0.25765  0.3872  1.0000
  Mn  Mn6       1.0  0.52097  0.23551  0.5001300000000002  1.0000
  Mn  Mn7       1.0  0.23378999999999994  0.7422  0.88706  1.0000
  Mn  Mn8       1.0  0.98046  0.7646699999999997  0.00152  1.0000
  H   H1        1.0  0.62516  0.49102  0.3901  1.0000
  H   H2        1.0  0.65856  0.61022  0.29034  1.0000
  H   H3        1.0  0.3687599999999999  0.5517  0.1684  1.0000
  H   H4        1.0  0.3309500000000001  0.43701  0.27205  1.0000
  H   H5        1.0  0.81196  0.55199  0.2529  1.0000
  H   H6        1.0  0.8876299999999998  0.44293  0.3491900000000001  1.0000
  H   H7        1.0  0.17334999999999995  0.4385999999999999  0.21113000000000007  1.0000
  H   H8        1.0  0.1023  0.5537  0.12003  1.0000
  H   H9        1.0  0.8041399999999999  0.7726399999999998  0.83729  1.0000
  H   H10       1.0  0.6622299999999998  0.77865  0.83829  1.0000
  H   H11       1.0  0.7254299999999999  0.6779099999999998  0.8398500000000002  1.0000
  H   H12       1.0  0.87541  0.50931  0.8901100000000002  1.0000
  H   H13       1.0  0.84218  0.3903599999999999  0.79026  1.0000
  H   H14       1.0  0.13192  0.4487199999999999  0.66863  1.0000
  H   H15       1.0  0.16973  0.5632899999999997  0.77208  1.0000
  H   H16       1.0  0.6881199999999998  0.44705  0.75209  1.0000
  H   H17       1.0  0.61345  0.5560299999999999  0.84901  1.0000
  H   H18       1.0  0.3269  0.56137  0.71182  1.0000
  H   H19       1.0  0.39724  0.4465  0.62006  1.0000
  H   H20       1.0  0.69607  0.22714  0.33729  1.0000
  H   H21       1.0  0.8381  0.22121999999999994  0.33821  1.0000
  H   H22       1.0  0.77471  0.32199  0.33965  1.0000
  H   H23       1.0  0.3742899999999999  0.98812  0.10955  1.0000
  H   H24       1.0  0.3416799999999999  0.10904  0.20774  1.0000
  H   H25       1.0  0.63173  0.05142  0.32965  1.0000
  H   H26       1.0  0.66882  0.9350299999999998  0.22765  1.0000
  H   H27       1.0  0.18715  0.05198  0.24694000000000002  1.0000
  H   H28       1.0  0.11183  0.9424399999999998  0.15088  1.0000
  H   H29       1.0  0.8261499999999999  0.93862  0.28908  1.0000
  H   H30       1.0  0.89697  0.05433  0.3797700000000001  1.0000
  H   H31       1.0  0.19647999999999996  0.2721  0.66217  1.0000
  H   H32       1.0  0.33838  0.2780699999999999  0.66106  1.0000
  H   H33       1.0  0.27542  0.17735999999999993  0.66112  1.0000
  H   H34       1.0  0.12541  0.01167  0.6095900000000002  1.0000
  H   H35       1.0  0.15859999999999996  0.8907699999999997  0.7075000000000002  1.0000
  H   H36       1.0  0.86869  0.94786  0.83  1.0000
  H   H37       1.0  0.8310799999999998  0.06417999999999997  0.72827  1.0000
  H   H38       1.0  0.31284  0.94771  0.74712  1.0000
  H   H39       1.0  0.3872199999999999  0.05737  0.6508200000000002  1.0000
  H   H40       1.0  0.67349  0.06179999999999999  0.78834  1.0000
  H   H41       1.0  0.60372  0.9460799999999998  0.87918  1.0000
  H   H42       1.0  0.30379  0.7278299999999998  0.16248  1.0000
  H   H43       1.0  0.1618  0.7218899999999998  0.16121  1.0000
  H   H44       1.0  0.22482  0.8225899999999998  0.16115  1.0000
  C   C1        1.0  0.73064  0.74556  0.95162  1.0000
  C   C2        1.0  0.54041  0.6532599999999997  0.16129000000000004  1.0000
  C   C3        1.0  0.51623  0.58659  0.22343  1.0000
  C   C4        1.0  0.45662  0.38397  0.39071  1.0000
  C   C5        1.0  0.47675  0.45698  0.33545  1.0000
  C   C6        1.0  0.56945  0.50565  0.34197  1.0000
  C   C7        1.0  0.58823  0.57085  0.28669  1.0000
  C   C8        1.0  0.4229699999999999  0.53866  0.21788000000000005  1.0000
  C   C9        1.0  0.40254999999999996  0.475  0.2743400000000001  1.0000
  C   C10       1.0  0.91417  0.63339  0.13190000000000002  1.0000
  C   C11       1.0  0.9538099999999998  0.56076  0.18230000000000002  1.0000
  C   C12       1.0  0.8914999999999998  0.52766  0.24529  1.0000
  C   C13       1.0  0.9327199999999998  0.46667  0.29791  1.0000
  C   C14       1.0  0.03536  0.4355799999999999  0.28644  1.0000
  C   C15       1.0  0.09524999999999997  0.46511999999999987  0.22059  1.0000
  C   C16       1.0  0.05558  0.5282799999999997  0.16967000000000004  1.0000
  C   C17       1.0  0.08138999999999999  0.37246  0.34488000000000013  1.0000
  C   C18       1.0  0.7317499999999998  0.74428  0.86092  1.0000
  C   C19       1.0  0.76977  0.25437  0.45138  1.0000
  C   C20       1.0  0.95984  0.34710999999999986  0.66125  1.0000
  C   C21       1.0  0.9845199999999998  0.41366  0.72358  1.0000
  C   C22       1.0  0.04512  0.61567  0.8921100000000002  1.0000
  C   C23       1.0  0.02413  0.54335  0.836  1.0000
  C   C24       1.0  0.9313599999999997  0.49478  0.8421400000000002  1.0000
  C   C25       1.0  0.9125499999999999  0.42965  0.7867600000000002  1.0000
  C   C26       1.0  0.07768999999999998  0.4616899999999999  0.7181  1.0000
  C   C27       1.0  0.09810999999999999  0.52536  0.77464  1.0000
  C   C28       1.0  0.58606  0.3677199999999999  0.6303700000000002  1.0000
  C   C29       1.0  0.54611  0.4393  0.68181  1.0000
  C   C30       1.0  0.60869  0.47172999999999987  0.74491  1.0000
  C   C31       1.0  0.56797  0.53257  0.79783  1.0000
  C   C32       1.0  0.46548  0.56398  0.7865700000000002  1.0000
  C   C33       1.0  0.40495999999999993  0.53466  0.72095  1.0000
  C   C34       1.0  0.44423999999999997  0.47171  0.6696400000000002  1.0000
  C   C35       1.0  0.4203199999999999  0.62749  0.84489  1.0000
  C   C36       1.0  0.76851  0.2556  0.36072  1.0000
  C   C37       1.0  0.26971  0.24393  0.54828  1.0000
  C   C38       1.0  0.46117  0.15363  0.3357  1.0000
  C   C39       1.0  0.48437999999999987  0.08596  0.27444  1.0000
  C   C40       1.0  0.54439  0.88155  0.10878000000000003  1.0000
  C   C41       1.0  0.52275  0.95448  0.16408000000000006  1.0000
  C   C42       1.0  0.4301599999999999  0.0032099999999999993  0.15738  1.0000
  C   C43       1.0  0.4119199999999999  0.06945999999999997  0.21176  1.0000
  C   C44       1.0  0.57734  0.03768  0.28048  1.0000
  C   C45       1.0  0.59718  0.97306  0.22488  1.0000
  C   C46       1.0  0.08551  0.1325  0.3682  1.0000
  C   C47       1.0  0.04528999999999998  0.060659999999999985  0.31741000000000014  1.0000
  C   C48       1.0  0.1077  0.02762999999999999  0.2544300000000001  1.0000
  C   C49       1.0  0.06679  0.96638  0.20215  1.0000
  C   C50       1.0  0.96457  0.93495  0.21423000000000006  1.0000
  C   C51       1.0  0.90416  0.9651  0.27961  1.0000
  C   C52       1.0  0.94353  0.028559999999999995  0.3301500000000001  1.0000
  C   C53       1.0  0.9195  0.87075  0.15681  1.0000
  C   C54       1.0  0.26896  0.24334999999999996  0.63898  1.0000
  C   C55       1.0  0.23035  0.75599  0.04853000000000001  1.0000
  C   C56       1.0  0.04032  0.8456699999999998  0.83575  1.0000
  C   C57       1.0  0.016150000000000005  0.9132799999999998  0.77448  1.0000
  C   C58       1.0  0.9547199999999999  0.11816999999999997  0.60905  1.0000
  C   C59       1.0  0.9767899999999999  0.04509999999999999  0.66427  1.0000
  C   C60       1.0  0.06954  0.99652  0.6574000000000002  1.0000
  C   C61       1.0  0.08822999999999998  0.93019  0.7116500000000002  1.0000
  C   C62       1.0  0.9230599999999999  0.9615099999999998  0.7807900000000002  1.0000
  C   C63       1.0  0.90278  0.02622  0.72529  1.0000
  C   C64       1.0  0.41416  0.86779  0.86816  1.0000
  C   C65       1.0  0.45477  0.93946  0.81734  1.0000
  C   C66       1.0  0.39218  0.9723099999999998  0.75436  1.0000
  C   C67       1.0  0.43271  0.03353  0.7019  1.0000
  C   C68       1.0  0.53497  0.06495  0.71366  1.0000
  C   C69       1.0  0.59562  0.03502  0.779  1.0000
  C   C70       1.0  0.55659  0.9715599999999998  0.82975  1.0000
  C   C71       1.0  0.57979  0.12915999999999994  0.6560700000000003  1.0000
  C   C72       1.0  0.23132  0.75655  0.13921  1.0000
  O   O1        1.0  0.65137  0.7183199999999997  0.9918600000000001  1.0000
  O   O2        1.0  0.60891  0.70965  0.17982  1.0000
  O   O3        1.0  0.4908199999999999  0.64918  0.09443  1.0000
  O   O4        1.0  0.36064  0.36784  0.40867  1.0000
  O   O5        1.0  0.5344  0.34095  0.4167  1.0000
  O   O6        1.0  0.98316  0.67492  0.09182000000000003  1.0000
  O   O7        1.0  0.81544  0.6493199999999998  0.13467000000000007  1.0000
  O   O8        1.0  0.03089  0.35945  0.41023  1.0000
  O   O9        1.0  0.80917  0.77478  0.9921200000000001  1.0000
  O   O10       1.0  0.16848  0.3372999999999999  0.3244700000000001  1.0000
  O   O11       1.0  0.8486699999999999  0.282  0.49169000000000007  1.0000
  O   O12       1.0  0.8896399999999998  0.29182  0.67913  1.0000
  O   O13       1.0  0.01075  0.35043  0.59493  1.0000
  O   O14       1.0  0.14152999999999996  0.63195  0.9085800000000003  1.0000
  O   O15       1.0  0.9681299999999999  0.6581099999999998  0.92039  1.0000
  O   O16       1.0  0.51807  0.3285999999999999  0.58745  1.0000
  O   O17       1.0  0.6842399999999998  0.35042  0.6347700000000001  1.0000
  O   O18       1.0  0.4711699999999999  0.6404399999999998  0.91011  1.0000
  O   O19       1.0  0.6917  0.22472  0.49204  1.0000
  O   O20       1.0  0.33358  0.6630499999999998  0.82438  1.0000
  O   O21       1.0  0.34902  0.21652  0.50793  1.0000
  O   O22       1.0  0.3908299999999999  0.20886  0.3176600000000001  1.0000
  O   O23       1.0  0.5133199999999999  0.15148  0.4015300000000001  1.0000
  O   O24       1.0  0.6415099999999999  0.86577  0.09463  1.0000
  O   O25       1.0  0.46766  0.83938  0.0799  1.0000
  O   O26       1.0  0.01642  0.1738  0.4088700000000001  1.0000
  O   O27       1.0  0.18401999999999996  0.14782  0.3655  1.0000
  O   O28       1.0  0.9687199999999998  0.8582399999999998  0.09086  1.0000
  O   O29       1.0  0.19094999999999998  0.27306  0.50799  1.0000
  O   O30       1.0  0.83409  0.83402  0.17868  1.0000
  O   O31       1.0  0.15122  0.78361  0.00824  1.0000
  O   O32       1.0  0.11051  0.7902499999999998  0.81751  1.0000
  O   O33       1.0  0.98918  0.8482399999999998  0.90201  1.0000
  O   O34       1.0  0.85751  0.134  0.59491  1.0000
  O   O35       1.0  0.03134  0.16042  0.58014  1.0000
  O   O36       1.0  0.4824399999999999  0.8261599999999998  0.9090700000000003  1.0000
  O   O37       1.0  0.31568999999999997  0.85251  0.8651900000000002  1.0000
  O   O38       1.0  0.52941  0.14241  0.59075  1.0000
  O   O39       1.0  0.30873  0.72663  0.008  1.0000
  O   O40       1.0  0.66586  0.16522  0.6776600000000002  1.0000
