data_image0
_chemical_formula_structural       Zn6H44C76N8O24
_chemical_formula_sum              "Zn6 H44 C76 N8 O24"
_cell_length_a       9.3395
_cell_length_b       10.673069999999997
_cell_length_c       22.261230000000005
_cell_angle_alpha    97.82567
_cell_angle_beta     102.19164
_cell_angle_gamma    115.85094999999998

_symmetry_space_group_name_H-M    'P 1'
_symmetry_Int_Tables_number       1

loop_
  _symmetry_equiv_pos_as_xyz
  'x,y,z'

loop_
  _atom_site_type_symbol
  _atom_site_label
  _atom_site_symmetry_multiplicity
  _atom_site_fract_x
  _atom_site_fract_y
  _atom_site_fract_z
  _atom_site_occupancy
  Zn  Zn1       1.0  0.07025000000000006  0.16890000000000005  0.73484  1.0000
  Zn  Zn2       1.0  0.6636600000000001  0.33131000000000005  0.7650900000000002  1.0000
  Zn  Zn3       1.0  0.92972  0.83109  0.26516  1.0000
  Zn  Zn4       1.0  0.3363200000000001  0.66868  0.23491000000000004  1.0000
  Zn  Zn5       1.0  0.50777  0.75  0.75002  1.0000
  Zn  Zn6       1.0  0.49221  0.25  0.24998  1.0000
  H   H1        1.0  0.1222800000000002  0.9055  0.54344  1.0000
  H   H2        1.0  0.3385999999999999  0.9013999999999999  0.49438  1.0000
  H   H3        1.0  0.6192999999999999  0.9623799999999999  0.56497  1.0000
  H   H4        1.0  0.09119999999999998  0.81278  0.16101  1.0000
  H   H5        1.0  0.04379000000000002  0.8303  0.04932  1.0000
  H   H6        1.0  0.6110900000000002  0.8737700000000002  0.06314  1.0000
  H   H7        1.0  0.67763  0.85689  0.17402  1.0000
  H   H8        1.0  0.9321999999999999  0.76826  0.9471800000000001  1.0000
  H   H9        1.0  0.82266  0.74597  0.83522  1.0000
  H   H10       1.0  0.5184500000000001  0.92061  0.86828  1.0000
  H   H11       1.0  0.62243  0.9572599999999999  0.98543  1.0000
  H   H12       1.0  0.17194999999999985  0.59485  0.95616  1.0000
  H   H13       1.0  0.44094  0.59864  0.00556  1.0000
  H   H14       1.0  0.5913299999999999  0.53871  0.93546  1.0000
  H   H15       1.0  0.61844  0.68332  0.33913  1.0000
  H   H16       1.0  0.6658300000000001  0.66768  0.45107  1.0000
  H   H17       1.0  0.1775  0.62818  0.43695  1.0000
  H   H18       1.0  0.14977000000000001  0.6443  0.326  1.0000
  H   H19       1.0  0.71919  0.73107  0.55386  1.0000
  H   H20       1.0  0.74222  0.75301  0.66576  1.0000
  H   H21       1.0  0.23076000000000002  0.58251  0.63148  1.0000
  H   H22       1.0  0.1824000000000001  0.54591  0.51437  1.0000
  H   H23       1.0  0.8777  0.09448999999999999  0.45656  1.0000
  H   H24       1.0  0.66138  0.09859  0.50562  1.0000
  H   H25       1.0  0.38068  0.037619999999999994  0.43503  1.0000
  H   H26       1.0  0.9087800000000001  0.18720999999999993  0.83899  1.0000
  H   H27       1.0  0.9561900000000001  0.16969000000000017  0.9506800000000001  1.0000
  H   H28       1.0  0.38889000000000007  0.12622  0.93686  1.0000
  H   H29       1.0  0.3223499999999999  0.14309999999999984  0.8259699999999999  1.0000
  H   H30       1.0  0.06778000000000005  0.23174000000000003  0.05282  1.0000
  H   H31       1.0  0.17733  0.25403  0.16478  1.0000
  H   H32       1.0  0.48153  0.07938  0.13172  1.0000
  H   H33       1.0  0.3775500000000001  0.042730000000000004  0.014570000000000001  1.0000
  H   H34       1.0  0.82803  0.40513999999999994  0.04384  1.0000
  H   H35       1.0  0.55905  0.40135  0.99444  1.0000
  H   H36       1.0  0.40865  0.46128  0.06454  1.0000
  H   H37       1.0  0.38154000000000005  0.31667  0.66087  1.0000
  H   H38       1.0  0.33414999999999995  0.33231  0.54893  1.0000
  H   H39       1.0  0.82248  0.37181  0.56305  1.0000
  H   H40       1.0  0.85021  0.3557  0.674  1.0000
  H   H41       1.0  0.28079  0.26892  0.44614  1.0000
  H   H42       1.0  0.25777  0.24698  0.33424  1.0000
  H   H43       1.0  0.76922  0.41748  0.36852  1.0000
  H   H44       1.0  0.81758  0.45408  0.48562  1.0000
  C   C1        1.0  0.24434  0.9289  0.57299  1.0000
  C   C2        1.0  0.36578000000000016  0.9285400000000001  0.54578  1.0000
  C   C3        1.0  0.52215  0.96158  0.58472  1.0000
  C   C4        1.0  0.5546400000000001  0.9878199999999999  0.6507  1.0000
  C   C5        1.0  0.43335  0.98944  0.67831  1.0000
  C   C6        1.0  0.2783400000000001  0.9632  0.6392  1.0000
  C   C7        1.0  0.1516899999999998  0.9824  0.66554  1.0000
  C   C8        1.0  0.47570000000000007  0.012639999999999964  0.74934  1.0000
  C   C9        1.0  0.7195  0.015650000000000008  0.69217  1.0000
  C   C10       1.0  0.98662  0.82647  0.13715  1.0000
  C   C11       1.0  0.95811  0.8359  0.07451  1.0000
  C   C12       1.0  0.82301  0.8554499999999999  0.04541  1.0000
  C   C13       1.0  0.7210100000000002  0.8631  0.08245  1.0000
  C   C14       1.0  0.75604  0.8526199999999999  0.14477  1.0000
  C   C15       1.0  0.7827799999999998  0.86061  0.9781  1.0000
  C   C16       1.0  0.84382  0.8079700000000001  0.93393  1.0000
  C   C17       1.0  0.78111  0.79394  0.86937  1.0000
  C   C18       1.0  0.61098  0.88997  0.88901  1.0000
  C   C19       1.0  0.66994  0.90901  0.95408  1.0000
  C   C20       1.0  0.24084999999999998  0.57096  0.92673  1.0000
  C   C21       1.0  0.3901000000000001  0.5716299999999999  0.9541500000000002  1.0000
  C   C22       1.0  0.47506000000000026  0.5391800000000001  0.9154400000000001  1.0000
  C   C23       1.0  0.41551  0.51303  0.84948  1.0000
  C   C24       1.0  0.26436  0.5106  0.82161  1.0000
  C   C25       1.0  0.17424000000000014  0.53644  0.8605100000000001  1.0000
  C   C26       1.0  0.0024099999999999894  0.51845  0.83425  1.0000
  C   C27       1.0  0.21339  0.48756  0.75056  1.0000
  C   C28       1.0  0.5111699999999999  0.48507999999999996  0.80823  1.0000
  C   C29       1.0  0.52482  0.67169  0.36306  1.0000
  C   C30       1.0  0.54984  0.66312  0.42583  1.0000
  C   C31       1.0  0.42494999999999994  0.64528  0.45495  1.0000
  C   C32       1.0  0.2785099999999999  0.6381099999999998  0.41770999999999997  1.0000
  C   C33       1.0  0.26155000000000006  0.6480999999999999  0.35532  1.0000
  C   C34       1.0  0.44666  0.64065  0.52233  1.0000
  C   C35       1.0  0.60409  0.69226  0.56679  1.0000
  C   C36       1.0  0.61906  0.70609  0.63127  1.0000
  C   C37       1.0  0.3334400000000001  0.61229  0.61102  1.0000
  C   C38       1.0  0.30914000000000014  0.59336  0.54602  1.0000
  C   C39       1.0  0.75564  0.07109000000000004  0.427  1.0000
  C   C40       1.0  0.6342  0.07145  0.45422  1.0000
  C   C41       1.0  0.47783  0.038409999999999916  0.4152799999999999  1.0000
  C   C42       1.0  0.44534000000000007  0.012169999999999993  0.3493  1.0000
  C   C43       1.0  0.56663  0.010560000000000002  0.32168  1.0000
  C   C44       1.0  0.72164  0.036790000000000045  0.36079  1.0000
  C   C45       1.0  0.8482900000000001  0.017589999999999995  0.33446  1.0000
  C   C46       1.0  0.5242800000000001  0.9873499999999998  0.25065  1.0000
  C   C47       1.0  0.28048000000000006  0.9843399999999999  0.30783  1.0000
  C   C48       1.0  0.013360000000000077  0.17352000000000006  0.86285  1.0000
  C   C49       1.0  0.041880000000000014  0.16409  0.92549  1.0000
  C   C50       1.0  0.17696999999999996  0.14454999999999998  0.95459  1.0000
  C   C51       1.0  0.27896999999999994  0.13688999999999998  0.9175499999999999  1.0000
  C   C52       1.0  0.24394000000000002  0.14737  0.85523  1.0000
  C   C53       1.0  0.21719999999999998  0.13938  0.02189  1.0000
  C   C54       1.0  0.15616  0.19202  0.06607  1.0000
  C   C55       1.0  0.21887  0.20605  0.13063  1.0000
  C   C56       1.0  0.389  0.11001999999999999  0.11099  1.0000
  C   C57       1.0  0.33004  0.09098  0.04592  1.0000
  C   C58       1.0  0.75913  0.42903  0.07327  1.0000
  C   C59       1.0  0.60988  0.42836  0.04585  1.0000
  C   C60       1.0  0.52492  0.46082  0.08456  1.0000
  C   C61       1.0  0.58448  0.48695999999999995  0.15052  1.0000
  C   C62       1.0  0.73562  0.48938999999999994  0.17839  1.0000
  C   C63       1.0  0.82574  0.46355  0.13949  1.0000
  C   C64       1.0  0.9975700000000001  0.48154  0.16575  1.0000
  C   C65       1.0  0.78659  0.51243  0.24944  1.0000
  C   C66       1.0  0.48882  0.51491  0.19177  1.0000
  C   C67       1.0  0.47516  0.3283  0.63694  1.0000
  C   C68       1.0  0.45015  0.33687  0.57416  1.0000
  C   C69       1.0  0.5750300000000002  0.35471  0.54505  1.0000
  C   C70       1.0  0.72148  0.36188  0.58229  1.0000
  C   C71       1.0  0.73843  0.35189  0.64468  1.0000
  C   C72       1.0  0.55332  0.35934999999999995  0.47766999999999993  1.0000
  C   C73       1.0  0.39588999999999996  0.30773  0.43321  1.0000
  C   C74       1.0  0.3809199999999999  0.29389999999999994  0.36872  1.0000
  C   C75       1.0  0.66654  0.3877  0.38898  1.0000
  C   C76       1.0  0.6908399999999999  0.4066299999999999  0.45397999999999994  1.0000
  N   N1        1.0  0.88727  0.83482  0.17196  1.0000
  N   N2        1.0  0.66056  0.82823  0.84649  1.0000
  N   N3        1.0  0.38292  0.66457  0.32815  1.0000
  N   N4        1.0  0.48684  0.67272  0.65378  1.0000
  N   N5        1.0  0.11270999999999999  0.16517  0.82803  1.0000
  N   N6        1.0  0.33943  0.17176  0.15351  1.0000
  N   N7        1.0  0.61707  0.33541999999999994  0.67185  1.0000
  N   N8        1.0  0.51314  0.32728  0.34622  1.0000
  O   O1        1.0  0.21982  0.10042000000000001  0.71162  1.0000
  O   O2        1.0  0.0001199999999999237  0.89663  0.64186  1.0000
  O   O3        1.0  0.4192800000000001  0.90042  0.76945  1.0000
  O   O4        1.0  0.57039  0.1389799999999999  0.78608  1.0000
  O   O5        1.0  0.84624  0.10528  0.67854  1.0000
  O   O6        1.0  0.7282100000000001  0.9554699999999999  0.73691  1.0000
  O   O7        1.0  0.9049400000000001  0.39998  0.78857  1.0000
  O   O8        1.0  0.9624200000000004  0.6061  0.85784  1.0000
  O   O9        1.0  0.2480699999999999  0.59972  0.73048  1.0000
  O   O10       1.0  0.14779  0.36123  0.71399  1.0000
  O   O11       1.0  0.56141  0.3949799999999999  0.82193  1.0000
  O   O12       1.0  0.5355099999999999  0.5449199999999998  0.7634  1.0000
  O   O13       1.0  0.78016  0.89957  0.28837  1.0000
  O   O14       1.0  0.99986  0.10336999999999995  0.35814  1.0000
  O   O15       1.0  0.5807  0.09956999999999999  0.23054000000000002  1.0000
  O   O16       1.0  0.4295799999999999  0.8610100000000002  0.21392  1.0000
  O   O17       1.0  0.1537400000000001  0.8947099999999999  0.32146  1.0000
  O   O18       1.0  0.27177  0.04453  0.26309  1.0000
  O   O19       1.0  0.09503999999999999  0.60001  0.21142  1.0000
  O   O20       1.0  0.03756000000000001  0.39389  0.14216  1.0000
  O   O21       1.0  0.75191  0.40027  0.26952  1.0000
  O   O22       1.0  0.85219  0.63876  0.28601  1.0000
  O   O23       1.0  0.43857  0.60501  0.17806  1.0000
  O   O24       1.0  0.46447  0.45507  0.2366  1.0000
