data_image0
_chemical_formula_structural       La8Cu8H20C100O80
_chemical_formula_sum              "La8 Cu8 H20 C100 O80"
_cell_length_a       10.34508
_cell_length_b       18.41273
_cell_length_c       15.338559999999998
_cell_angle_alpha    89.00804
_cell_angle_beta     90.50792
_cell_angle_gamma    93.53207000000002

_symmetry_space_group_name_H-M    'P 1'
_symmetry_Int_Tables_number       1

loop_
  _symmetry_equiv_pos_as_xyz
  'x,y,z'

loop_
  _atom_site_type_symbol
  _atom_site_label
  _atom_site_symmetry_multiplicity
  _atom_site_fract_x
  _atom_site_fract_y
  _atom_site_fract_z
  _atom_site_occupancy
  La  La1       1.0  0.48114  0.5788700000000001  0.89281  1.0000
  La  La2       1.0  0.67985  0.34961  0.60166  1.0000
  La  La3       1.0  0.011629999999999979  0.91608  0.4060800000000001  1.0000
  La  La4       1.0  0.81692  0.15538000000000005  0.10431  1.0000
  La  La5       1.0  0.51885  0.42093000000000014  0.10645  1.0000
  La  La6       1.0  0.18361  0.8432400000000002  0.89688  1.0000
  La  La7       1.0  0.32169000000000003  0.6504700000000002  0.39819  1.0000
  La  La8       1.0  0.98878  0.08279  0.5966900000000003  1.0000
  Cu  Cu1       1.0  0.76979  0.09064  0.33273  1.0000
  Cu  Cu2       1.0  0.26255  0.59077  0.17241000000000006  1.0000
  Cu  Cu3       1.0  0.55432  0.34143  0.32144  1.0000
  Cu  Cu4       1.0  0.4445799999999999  0.65836  0.6783700000000003  1.0000
  Cu  Cu5       1.0  0.23135  0.9096600000000001  0.66882  1.0000
  Cu  Cu6       1.0  0.73696  0.4098800000000001  0.82586  1.0000
  Cu  Cu7       1.0  0.054130000000000005  0.8446  0.19253  1.0000
  Cu  Cu8       1.0  0.9482799999999999  0.15539999999999998  0.8112100000000002  1.0000
  H   H1        1.0  0.62601  0.9930400000000001  0.7333500000000002  1.0000
  H   H2        1.0  0.019799999999999988  0.55933  0.58389  1.0000
  H   H3        1.0  0.9793100000000002  0.4411100000000001  0.4146700000000001  1.0000
  H   H4        1.0  0.47454999999999997  0.94492  0.09289000000000003  1.0000
  H   H5        1.0  0.59809  0.8892500000000001  0.44581  1.0000
  H   H6        1.0  0.3774  0.00705  0.26883  1.0000
  H   H7        1.0  0.5271  0.05464000000000001  0.90864  1.0000
  H   H8        1.0  0.10069999999999998  0.39091000000000004  0.06041000000000001  1.0000
  H   H9        1.0  0.40147000000000005  0.109  0.5534800000000002  1.0000
  H   H10       1.0  0.12284999999999999  0.49499000000000004  0.7556800000000002  1.0000
  H   H11       1.0  0.8994499999999999  0.60895  0.9391100000000002  1.0000
  H   H12       1.0  0.65976  0.74613  0.26866  1.0000
  H   H13       1.0  0.75872  0.7090700000000002  0.42738  1.0000
  H   H14       1.0  0.74317  0.7828200000000002  0.91912  1.0000
  H   H15       1.0  0.24413999999999997  0.28866  0.57563  1.0000
  H   H16       1.0  0.83802  0.74967  0.7649900000000002  1.0000
  H   H17       1.0  0.34225  0.25299  0.7318400000000003  1.0000
  H   H18       1.0  0.16208  0.25001  0.23527000000000006  1.0000
  H   H19       1.0  0.25658  0.21554  0.08131000000000002  1.0000
  H   H20       1.0  0.8785099999999999  0.50504  0.24312000000000006  1.0000
  C   C1        1.0  0.8640899999999999  0.5002  0.99298  1.0000
  C   C2        1.0  0.69458  0.17322  0.88727  1.0000
  C   C3        1.0  0.71952  0.5025700000000002  0.97911  1.0000
  C   C4        1.0  0.20452000000000004  0.12715000000000007  0.7159300000000002  1.0000
  C   C5        1.0  0.50306  0.77651  0.18566  1.0000
  C   C6        1.0  0.05732  0.43869  0.03297  1.0000
  C   C7        1.0  0.79608  0.87182  0.28686  1.0000
  C   C8        1.0  0.03160000000000001  0.25749000000000005  0.6816700000000002  1.0000
  C   C9        1.0  0.28058  0.49736  0.0202  1.0000
  C   C10       1.0  0.77932  0.99206  0.48572  1.0000
  C   C11       1.0  0.6834500000000001  0.8587100000000001  0.22678000000000006  1.0000
  C   C12       1.0  0.5667  0.29619000000000006  0.8064700000000002  1.0000
  C   C13       1.0  0.28662  0.16885000000000003  0.11916000000000003  1.0000
  C   C14       1.0  0.0608  0.79576  0.6913800000000002  1.0000
  C   C15       1.0  0.29779  0.3979600000000001  0.6156200000000002  1.0000
  C   C16       1.0  0.9471600000000002  0.3871000000000001  0.76297  1.0000
  C   C17       1.0  0.7368  0.54355  0.3312700000000001  1.0000
  C   C18       1.0  0.69884  0.62486  0.77694  1.0000
  C   C19       1.0  0.07837999999999999  0.5618799999999999  0.9723200000000002  1.0000
  C   C20       1.0  0.18588  0.6779600000000002  0.6065000000000003  1.0000
  C   C21       1.0  0.05363  0.61361  0.23575  1.0000
  C   C22       1.0  0.13824  0.41409  0.33346  1.0000
  C   C23       1.0  0.16097  0.6284500000000001  0.94249  1.0000
  C   C24       1.0  0.79931  0.89192  0.8764100000000002  1.0000
  C   C25       1.0  0.97842  0.60161  0.6217700000000003  1.0000
  C   C26       1.0  0.43139  0.39549  0.57904  1.0000
  C   C27       1.0  0.85392  0.016339999999999993  0.7989600000000002  1.0000
  C   C28       1.0  0.66041  0.12676999999999997  0.5570800000000002  1.0000
  C   C29       1.0  0.21372  0.33499  0.61169  1.0000
  C   C30       1.0  0.20102999999999996  0.10665000000000002  0.12599  1.0000
  C   C31       1.0  0.9013  0.66961  0.3404800000000001  1.0000
  C   C32       1.0  0.47048000000000006  0.24447  0.18831000000000006  1.0000
  C   C33       1.0  0.44725999999999994  0.8333400000000002  0.13948  1.0000
  C   C34       1.0  0.34505  0.52373  0.68731  1.0000
  C   C35       1.0  0.8534800000000001  0.5486100000000003  0.28557  1.0000
  C   C36       1.0  0.30295  0.009039999999999996  0.8224800000000002  1.0000
  C   C37       1.0  0.06725000000000002  0.10989000000000003  0.08864000000000002  1.0000
  C   C38       1.0  0.95245  0.33144000000000007  0.36625000000000013  1.0000
  C   C39       1.0  0.43481  0.7034  0.19352  1.0000
  C   C40       1.0  0.6355499999999997  0.99745  0.4966800000000001  1.0000
  C   C41       1.0  0.94284  0.56117  0.96648  1.0000
  C   C42       1.0  0.12405  0.29183  0.2752600000000001  1.0000
  C   C43       1.0  0.007599999999999993  0.27696  0.3188000000000001  1.0000
  C   C44       1.0  0.36388999999999994  0.0006299999999999994  0.50327  1.0000
  C   C45       1.0  0.9397299999999998  0.20421000000000006  0.31005  1.0000
  C   C46       1.0  0.14946  0.98207  0.2031  1.0000
  C   C47       1.0  0.55558  0.9374400000000002  0.4703400000000001  1.0000
  C   C48       1.0  0.35232  0.05158999999999999  0.22569000000000006  1.0000
  C   C49       1.0  0.40053  0.17334000000000002  0.16858  1.0000
  C   C50       1.0  0.18741  0.3606100000000001  0.2803900000000001  1.0000
  C   C51       1.0  0.13604  0.49965  0.006360000000000002  1.0000
  C   C52       1.0  0.63427  0.9145500000000001  0.17446000000000006  1.0000
  C   C53       1.0  0.04705000000000001  0.6687900000000001  0.6332000000000002  1.0000
  C   C54       1.0  0.60016  0.82596  0.8315100000000002  1.0000
  C   C55       1.0  0.8759399999999999  0.70821  0.72451  1.0000
  C   C56       1.0  0.06653  0.38840000000000013  0.71069  1.0000
  C   C57       1.0  0.31783  0.14074000000000006  0.77508  1.0000
  C   C58       1.0  0.93274  0.8873500000000001  0.91391  1.0000
  C   C59       1.0  0.02078999999999999  0.39877  0.37705  1.0000
  C   C60       1.0  0.22037000000000004  0.0065899999999999995  0.5150100000000001  1.0000
  C   C61       1.0  0.10105  0.32918  0.66147  1.0000
  C   C62       1.0  0.71348  0.8297300000000002  0.88155  1.0000
  C   C63       1.0  0.43561999999999995  0.1135  0.21954000000000007  1.0000
  C   C64       1.0  0.44389  0.06078000000000001  0.52902  1.0000
  C   C65       1.0  0.5284700000000001  0.7553900000000001  0.8116800000000002  1.0000
  C   C66       1.0  0.8134699999999999  0.322  0.39295  1.0000
  C   C67       1.0  0.76833  0.9503800000000001  0.8214800000000002  1.0000
  C   C68       1.0  0.49896999999999997  0.22288  0.81484  1.0000
  C   C69       1.0  0.6979700000000001  0.99043  0.17907000000000006  1.0000
  C   C70       1.0  0.65019  0.9481500000000002  0.7762600000000002  1.0000
  C   C71       1.0  0.78873  0.66327  0.3902  1.0000
  C   C72       1.0  0.8122  0.6396300000000003  0.71885  1.0000
  C   C73       1.0  0.9352  0.6112200000000002  0.28947  1.0000
  C   C74       1.0  0.8392000000000001  0.37145  0.05724000000000001  1.0000
  C   C75       1.0  0.44472  0.88551  0.72966  1.0000
  C   C76       1.0  0.14808  0.45099  0.71399  1.0000
  C   C77       1.0  0.23362  0.04869  0.18115  1.0000
  C   C78       1.0  0.38139  0.20964000000000002  0.77109  1.0000
  C   C79       1.0  0.33876  0.87075  0.44416  1.0000
  C   C80       1.0  0.62041  0.78962  0.22975  1.0000
  C   C81       1.0  0.20171  0.48982  0.3317700000000001  1.0000
  C   C82       1.0  0.5662900000000001  0.8864100000000001  0.7812700000000002  1.0000
  C   C83       1.0  0.55425  0.16615000000000005  0.8616100000000001  1.0000
  C   C84       1.0  0.48540000000000005  0.09846000000000002  0.87135  1.0000
  C   C85       1.0  0.30638000000000004  0.8256300000000001  0.11465  1.0000
  C   C86       1.0  0.65553  0.47598  0.31177000000000005  1.0000
  C   C87       1.0  0.55774  0.11520000000000001  0.27059  1.0000
  C   C88       1.0  0.36717  0.08487999999999998  0.8272500000000003  1.0000
  C   C89       1.0  0.51619  0.9010000000000001  0.13001  1.0000
  C   C90       1.0  0.57925  0.060320000000000006  0.52692  1.0000
  C   C91       1.0  0.96967  0.7418800000000001  0.3219100000000001  1.0000
  C   C92       1.0  0.30099  0.37535  0.22248  1.0000
  C   C93       1.0  0.70413  0.6006700000000001  0.38502  1.0000
  C   C94       1.0  0.99277  0.7230800000000001  0.68155  1.0000
  C   C95       1.0  0.26466  0.45569  0.6683400000000003  1.0000
  C   C96       1.0  0.57067  0.6042  0.4213300000000001  1.0000
  C   C97       1.0  0.79785  0.51066  0.6677900000000002  1.0000
  C   C98       1.0  0.42013  0.93772  0.47288  1.0000
  C   C99       1.0  0.86112  0.58627  0.6655500000000002  1.0000
  C   C100      1.0  0.9217599999999999  0.4379700000000001  0.02709  1.0000
  O   O1        1.0  0.71624  0.3821200000000001  0.06195000000000001  1.0000
  O   O2        1.0  0.51928  0.44252  0.6043000000000002  1.0000
  O   O3        1.0  0.22923999999999997  0.8081500000000001  0.17712  1.0000
  O   O4        1.0  0.22038  0.13467000000000007  0.63474  1.0000
  O   O5        1.0  0.38223000000000007  0.56718  0.6258800000000002  1.0000
  O   O6        1.0  0.7797399999999999  0.8629500000000002  0.3679000000000001  1.0000
  O   O7        1.0  0.11852000000000006  0.8255400000000003  0.6257400000000002  1.0000
  O   O8        1.0  0.48769  0.7118100000000003  0.8712100000000003  1.0000
  O   O9        1.0  0.51278  0.2879  0.12909000000000007  1.0000
  O   O10       1.0  0.8421800000000002  0.02577  0.42162  1.0000
  O   O11       1.0  0.28591  0.36825  0.14122  1.0000
  O   O12       1.0  0.26406  0.50708  0.26228  1.0000
  O   O13       1.0  0.16218000000000002  0.6467500000000003  0.26298  1.0000
  O   O14       1.0  0.021220000000000003  0.9348  0.8894500000000002  1.0000
  O   O15       1.0  0.44263  0.6695600000000002  0.26661  1.0000
  O   O16       1.0  0.37134  0.67714  0.12854000000000002  1.0000
  O   O17       1.0  0.78585  0.33466  0.4713100000000001  1.0000
  O   O18       1.0  0.13003  0.9708  0.28439  1.0000
  O   O19       1.0  0.68824  0.03462  0.11504  1.0000
  O   O20       1.0  0.31203000000000003  0.9642300000000001  0.88586  1.0000
  O   O21       1.0  0.48135999999999995  0.5580600000000001  0.3957900000000001  1.0000
  O   O22       1.0  0.63009  0.32284  0.87123  1.0000
  O   O23       1.0  0.9940199999999999  0.21439  0.62217  1.0000
  O   O24       1.0  0.15793  0.9740900000000001  0.58015  1.0000
  O   O25       1.0  0.66274  0.47345000000000004  0.9110800000000002  1.0000
  O   O26       1.0  0.54462  0.6588000000000003  0.4673100000000001  1.0000
  O   O27       1.0  0.21397  0.66531  0.52827  1.0000
  O   O28       1.0  0.98086  0.75377  0.23935000000000006  1.0000
  O   O29       1.0  0.47755  0.2543700000000001  0.2711500000000001  1.0000
  O   O30       1.0  0.05354  0.5783  0.16639  1.0000
  O   O31       1.0  0.72636  0.1565  0.96474  1.0000
  O   O32       1.0  0.33728  0.85347  0.7605000000000002  1.0000
  O   O33       1.0  0.73584  0.49394  0.7376600000000002  1.0000
  O   O34       1.0  0.28392000000000006  0.61778  0.93793  1.0000
  O   O35       1.0  0.3370600000000001  0.5260800000000001  0.08858  1.0000
  O   O36       1.0  0.97928  0.06296  0.11509  1.0000
  O   O37       1.0  0.24515  0.99605  0.7500800000000002  1.0000
  O   O38       1.0  0.73212  0.3056  0.3325500000000001  1.0000
  O   O39       1.0  0.75555  0.004069999999999998  0.2513700000000001  1.0000
  O   O40       1.0  0.006189999999999995  0.78455  0.38209  1.0000
  O   O41       1.0  0.05813000000000001  0.82536  0.76568  1.0000
  O   O42       1.0  0.58436  0.6071700000000002  0.7455  1.0000
  O   O43       1.0  0.77295  0.19200000000000006  0.82611  1.0000
  O   O44       1.0  0.4596  0.34126000000000006  0.5329000000000002  1.0000
  O   O45       1.0  0.9604799999999999  0.83191  0.9603400000000002  1.0000
  O   O46       1.0  0.66393  0.14864  0.23992  1.0000
  O   O47       1.0  0.11841000000000003  0.9373300000000001  0.14286  1.0000
  O   O48       1.0  0.94148  0.17461000000000004  0.23566  1.0000
  O   O49       1.0  0.5185000000000001  0.7458700000000003  0.7289000000000002  1.0000
  O   O50       1.0  0.88295  0.17455  0.3762900000000001  1.0000
  O   O51       1.0  0.88761  0.31224000000000013  0.07530000000000003  1.0000
  O   O52       1.0  0.21519999999999997  0.8803000000000001  0.43985  1.0000
  O   O53       1.0  0.0198  0.24674  0.76443  1.0000
  O   O54       1.0  0.71407  0.63168  0.8582300000000003  1.0000
  O   O55       1.0  0.44126999999999994  0.9201100000000001  0.6587800000000003  1.0000
  O   O56       1.0  0.18827  0.53143  0.39603  1.0000
  O   O57       1.0  0.11268000000000003  0.6877400000000001  0.92467  1.0000
  O   O58       1.0  0.64331  0.4617200000000001  0.23057000000000005  1.0000
  O   O59       1.0  0.55807  0.33001  0.7333600000000001  1.0000
  O   O60       1.0  0.35109  0.46229000000000003  0.9696700000000003  1.0000
  O   O61       1.0  0.56298  0.08  0.3411  1.0000
  O   O62       1.0  0.41539  0.39315  0.25396  1.0000
  O   O63       1.0  0.9106999999999998  0.89107  0.25708000000000003  1.0000
  O   O64       1.0  0.15494  0.04724999999999999  0.46633000000000013  1.0000
  O   O65       1.0  0.88284  0.06224  0.85822  1.0000
  O   O66       1.0  0.8384799999999999  0.35529  0.7340000000000002  1.0000
  O   O67       1.0  0.61111  0.18542  0.57299  1.0000
  O   O68       1.0  0.78347  0.11624  0.56446  1.0000
  O   O69       1.0  0.09023  0.10882  0.7466700000000002  1.0000
  O   O70       1.0  0.38843  0.81241  0.42696  1.0000
  O   O71       1.0  0.61784  0.43268000000000006  0.37329000000000007  1.0000
  O   O72       1.0  0.9467499999999999  0.42214  0.8323600000000002  1.0000
  O   O73       1.0  0.03937  0.16407  0.03989  1.0000
  O   O74       1.0  0.87606  0.02573  0.71775  1.0000
  O   O75       1.0  0.64897  0.5378700000000001  0.02935  1.0000
  O   O76       1.0  0.26678  0.6940900000000001  0.66732  1.0000
  O   O77       1.0  0.81144  0.4687500000000001  0.60384  1.0000
  O   O78       1.0  0.27341  0.84  0.036720000000000017  1.0000
  O   O79       1.0  0.8447399999999999  0.9510000000000001  0.5339500000000001  1.0000
  O   O80       1.0  0.35693  0.53829  0.76853  1.0000
