data_image0
_chemical_formula_structural       Na8Co4H48C96O32
_chemical_formula_sum              "Na8 Co4 H48 C96 O32"
_cell_length_a       13.43825
_cell_length_b       16.42474
_cell_length_c       16.42468
_cell_angle_alpha    80.3392
_cell_angle_beta     65.81892
_cell_angle_gamma    65.81849

_space_group_name_H-M_alt    "P 1"
_space_group_IT_number       1

loop_
  _space_group_symop_operation_xyz
  'x, y, z'

loop_
  _atom_site_type_symbol
  _atom_site_label
  _atom_site_symmetry_multiplicity
  _atom_site_fract_x
  _atom_site_fract_y
  _atom_site_fract_z
  _atom_site_occupancy
  Na  Na1       1.0  0.51484  0.07543  0.09112  1.0000
  Na  Na2       1.0  0.6749799999999994  0.92462  0.92066  1.0000
  Na  Na3       1.0  0.8350599999999996  0.5872600000000001  0.43227  1.0000
  Na  Na4       1.0  0.8453099999999998  0.41273  0.57529  1.0000
  Na  Na5       1.0  0.014969999999999997  0.09106  0.07545  1.0000
  Na  Na6       1.0  0.1749700000000001  0.92064  0.9245599999999998  1.0000
  Na  Na7       1.0  0.33506  0.43227  0.58727  1.0000
  Na  Na8       1.0  0.3452799999999998  0.57529  0.41322  1.0000
  Co  Co1       1.0  0.3627299999999999  0.00025  0.00022  1.0000
  Co  Co2       1.0  0.61151  0.50024  0.49983999999999995  1.0000
  Co  Co3       1.0  0.86272  0.00023  0.00025  1.0000
  Co  Co4       1.0  0.11150999999999991  0.49984  0.50024  1.0000
  H   H1        1.0  0.21059  0.27159  0.15515  1.0000
  H   H2        1.0  0.05622000000000009  0.38614  0.2708199999999999  1.0000
  H   H3        1.0  0.7651300000000001  0.26244  0.4411299999999999  1.0000
  H   H4        1.0  0.74935  0.11722  0.4441  1.0000
  H   H5        1.0  0.9056599999999999  0.0005  0.3296  1.0000
  H   H6        1.0  0.07827000000000003  0.02864  0.21711999999999995  1.0000
  H   H7        1.0  0.6374499999999995  0.7285200000000001  0.8447  1.0000
  H   H8        1.0  0.71311  0.61389  0.72936  1.0000
  H   H9        1.0  0.46886999999999995  0.73757  0.55928  1.0000
  H   H10       1.0  0.3106199999999998  0.88285  0.55614  1.0000
  H   H11       1.0  0.23558000000000012  0.99975  0.6703199999999998  1.0000
  H   H12       1.0  0.32459000000000016  0.97167  0.7822899999999998  1.0000
  H   H13       1.0  0.73225  0.65496  0.22862  1.0000
  H   H14       1.0  0.6922299999999999  0.7708  0.11424999999999998  1.0000
  H   H15       1.0  0.27786999999999995  0.94087  0.23772  1.0000
  H   H16       1.0  0.11622000000000002  0.94422  0.38307  1.0000
  H   H17       1.0  0.15559  0.82968  0.4998999999999999  1.0000
  H   H18       1.0  0.35653000000000007  0.71687  0.47159  1.0000
  H   H19       1.0  0.6154400000000001  0.34482  0.77152  1.0000
  H   H20       1.0  0.5775600000000002  0.22901000000000002  0.8858299999999998  1.0000
  H   H21       1.0  0.45663999999999993  0.05876  0.76242  1.0000
  H   H22       1.0  0.44359  0.05612  0.6172599999999998  1.0000
  H   H23       1.0  0.4850799999999998  0.17057  0.50066  1.0000
  H   H24       1.0  0.5438699999999999  0.28346  0.5292  1.0000
  H   H25       1.0  0.7106  0.15516  0.27158  1.0000
  H   H26       1.0  0.5562200000000003  0.27082  0.38613999999999987  1.0000
  H   H27       1.0  0.26513000000000003  0.44113  0.26244  1.0000
  H   H28       1.0  0.24936  0.4441  0.11721999999999998  1.0000
  H   H29       1.0  0.40567  0.3296  0.0005  1.0000
  H   H30       1.0  0.57826  0.21712  0.028639999999999992  1.0000
  H   H31       1.0  0.13744999999999988  0.8447  0.72852  1.0000
  H   H32       1.0  0.21311000000000005  0.72936  0.6138899999999998  1.0000
  H   H33       1.0  0.96887  0.55928  0.73758  1.0000
  H   H34       1.0  0.8106200000000001  0.55614  0.8828499999999998  1.0000
  H   H35       1.0  0.7355799999999998  0.6703200000000001  0.9997499999999999  1.0000
  H   H36       1.0  0.8246000000000001  0.78229  0.9716699999999998  1.0000
  H   H37       1.0  0.23224999999999996  0.22862  0.65496  1.0000
  H   H38       1.0  0.19223  0.11425  0.7708  1.0000
  H   H39       1.0  0.7778699999999998  0.23772  0.9408699999999998  1.0000
  H   H40       1.0  0.6162299999999999  0.38307  0.94422  1.0000
  H   H41       1.0  0.65559  0.4999  0.82968  1.0000
  H   H42       1.0  0.8565300000000001  0.47158  0.71687  1.0000
  H   H43       1.0  0.11544000000000007  0.77152  0.34482  1.0000
  H   H44       1.0  0.07756000000000005  0.88583  0.22901999999999995  1.0000
  H   H45       1.0  0.95663  0.76242  0.05876  1.0000
  H   H46       1.0  0.9435899999999997  0.61726  0.05612  1.0000
  H   H47       1.0  0.9850699999999999  0.50066  0.17056999999999994  1.0000
  H   H48       1.0  0.04386999999999999  0.5292  0.28346  1.0000
  C   C1        1.0  0.21769999999999992  0.11791  0.12533  1.0000
  C   C2        1.0  0.12057  0.1816  0.1973  1.0000
  C   C3        1.0  0.13210000000000002  0.26064  0.20222999999999994  1.0000
  C   C4        1.0  0.04453000000000003  0.32549  0.26662  1.0000
  C   C5        1.0  0.9426699999999996  0.31373  0.32676  1.0000
  C   C6        1.0  0.9289099999999999  0.23165  0.3262  1.0000
  C   C7        1.0  0.83235  0.2118  0.39156  1.0000
  C   C8        1.0  0.8238699999999998  0.13055  0.39274  1.0000
  C   C9        1.0  0.91228  0.06464  0.32846  1.0000
  C   C10       1.0  0.00847999999999999  0.08071  0.26465  1.0000
  C   C11       1.0  0.019850000000000007  0.16405  0.26067999999999997  1.0000
  C   C12       1.0  0.8544  0.38896  0.39168  1.0000
  C   C13       1.0  0.4607  0.88233  0.87506  1.0000
  C   C14       1.0  0.4993999999999999  0.81885  0.80274  1.0000
  C   C15       1.0  0.5949200000000001  0.73962  0.7978199999999998  1.0000
  C   C16       1.0  0.63639  0.67461  0.73373  1.0000
  C   C17       1.0  0.58245  0.6862  0.67403  1.0000
  C   C18       1.0  0.48646000000000006  0.76847  0.67421  1.0000
  C   C19       1.0  0.4355999999999998  0.78827  0.60881  1.0000
  C   C20       1.0  0.3470599999999998  0.86955  0.60745  1.0000
  C   C21       1.0  0.30522999999999995  0.93556  0.67154  1.0000
  C   C22       1.0  0.35386000000000023  0.91953  0.7351399999999998  1.0000
  C   C23       1.0  0.4444600000000002  0.83619  0.7394399999999999  1.0000
  C   C24       1.0  0.6341199999999995  0.61074  0.60969  1.0000
  C   C25       1.0  0.5844199999999999  0.62476  0.38251  1.0000
  C   C26       1.0  0.55182  0.69689  0.31874999999999987  1.0000
  C   C27       1.0  0.6426899999999997  0.70184  0.23969  1.0000
  C   C28       1.0  0.6198599999999997  0.76626  0.17486999999999994  1.0000
  C   C29       1.0  0.5060599999999998  0.82622  0.18678  1.0000
  C   C30       1.0  0.4102199999999999  0.82575  0.26882  1.0000
  C   C31       1.0  0.29395  0.89136  0.28851  1.0000
  C   C32       1.0  0.20402999999999993  0.89275  0.3697999999999999  1.0000
  C   C33       1.0  0.22645000000000004  0.82844  0.43571  1.0000
  C   C34       1.0  0.33866  0.76448  0.41967  1.0000
  C   C35       1.0  0.43352999999999997  0.76031  0.33631  1.0000
  C   C36       1.0  0.4925799999999999  0.89223  0.11263  1.0000
  C   C37       1.0  0.59055  0.37515  0.6180099999999997  1.0000
  C   C38       1.0  0.567  0.30281  0.6816199999999999  1.0000
  C   C39       1.0  0.58422  0.2977  0.7603799999999997  1.0000
  C   C40       1.0  0.56158  0.23322  0.82522  1.0000
  C   C41       1.0  0.51999  0.17298000000000002  0.81372  1.0000
  C   C42       1.0  0.50535  0.17359  0.73174  1.0000
  C   C43       1.0  0.4741200000000001  0.10838000000000002  0.7118699999999998  1.0000
  C   C44       1.0  0.46667999999999993  0.10739  0.6306499999999998  1.0000
  C   C45       1.0  0.4904399999999998  0.17175  0.56482  1.0000
  C   C46       1.0  0.52223  0.23568  0.58104  1.0000
  C   C47       1.0  0.5299699999999997  0.23933  0.66425  1.0000
  C   C48       1.0  0.49683000000000005  0.10825  0.8892999999999998  1.0000
  C   C49       1.0  0.7177  0.12534  0.11791  1.0000
  C   C50       1.0  0.62057  0.1973  0.18159999999999996  1.0000
  C   C51       1.0  0.63211  0.20224  0.26064  1.0000
  C   C52       1.0  0.5445400000000001  0.26663  0.3254899999999999  1.0000
  C   C53       1.0  0.44267  0.32676  0.31373  1.0000
  C   C54       1.0  0.4289099999999999  0.3262  0.23164999999999994  1.0000
  C   C55       1.0  0.3323499999999999  0.39156  0.21179999999999993  1.0000
  C   C56       1.0  0.32386999999999994  0.39274  0.13055  1.0000
  C   C57       1.0  0.41229  0.32846  0.06463999999999999  1.0000
  C   C58       1.0  0.5084799999999998  0.26464  0.08070999999999998  1.0000
  C   C59       1.0  0.5198500000000001  0.26068  0.16405  1.0000
  C   C60       1.0  0.35439999999999994  0.39168  0.3889599999999999  1.0000
  C   C61       1.0  0.9607  0.87505  0.88233  1.0000
  C   C62       1.0  0.9993999999999998  0.80274  0.8188499999999997  1.0000
  C   C63       1.0  0.0949199999999999  0.79782  0.73962  1.0000
  C   C64       1.0  0.13638999999999998  0.73373  0.67461  1.0000
  C   C65       1.0  0.08244999999999995  0.67403  0.6862  1.0000
  C   C66       1.0  0.9864599999999999  0.67421  0.76847  1.0000
  C   C67       1.0  0.9356  0.60881  0.78827  1.0000
  C   C68       1.0  0.8470599999999998  0.60745  0.86955  1.0000
  C   C69       1.0  0.8052299999999997  0.67154  0.93556  1.0000
  C   C70       1.0  0.85386  0.73514  0.91953  1.0000
  C   C71       1.0  0.94445  0.73944  0.8361899999999998  1.0000
  C   C72       1.0  0.13412  0.60969  0.61074  1.0000
  C   C73       1.0  0.08441999999999998  0.38251  0.62476  1.0000
  C   C74       1.0  0.051820000000000005  0.31875  0.69689  1.0000
  C   C75       1.0  0.14270000000000002  0.23969  0.70184  1.0000
  C   C76       1.0  0.11987000000000002  0.17487  0.76626  1.0000
  C   C77       1.0  0.006070000000000095  0.18678  0.8262199999999998  1.0000
  C   C78       1.0  0.9102199999999996  0.26881  0.82575  1.0000
  C   C79       1.0  0.7939600000000001  0.28851  0.89136  1.0000
  C   C80       1.0  0.7040300000000002  0.3698  0.89275  1.0000
  C   C81       1.0  0.7264499999999999  0.43571  0.82844  1.0000
  C   C82       1.0  0.8386599999999995  0.41967  0.7644799999999999  1.0000
  C   C83       1.0  0.9335299999999999  0.33631  0.76031  1.0000
  C   C84       1.0  0.9925900000000001  0.11263000000000001  0.8922299999999997  1.0000
  C   C85       1.0  0.09055000000000009  0.61801  0.37514999999999993  1.0000
  C   C86       1.0  0.06700000000000002  0.68162  0.30281  1.0000
  C   C87       1.0  0.08421999999999999  0.76038  0.29771  1.0000
  C   C88       1.0  0.061580000000000024  0.82522  0.23322  1.0000
  C   C89       1.0  0.01999000000000003  0.81372  0.17298  1.0000
  C   C90       1.0  0.005349999999999985  0.73174  0.17359  1.0000
  C   C91       1.0  0.9741199999999995  0.71187  0.10837999999999998  1.0000
  C   C92       1.0  0.9666799999999998  0.63065  0.10739  1.0000
  C   C93       1.0  0.9904299999999998  0.56482  0.17175  1.0000
  C   C94       1.0  0.02222999999999996  0.58103  0.23567999999999995  1.0000
  C   C95       1.0  0.029970000000000004  0.66425  0.23933  1.0000
  C   C96       1.0  0.9968200000000002  0.8893  0.10826  1.0000
  O   O1        1.0  0.32393  0.10686  0.10586  1.0000
  O   O2        1.0  0.19221000000000002  0.07534  0.08176999999999997  1.0000
  O   O3        1.0  0.74425  0.40548  0.41452  1.0000
  O   O4        1.0  0.8946000000000001  0.43175  0.4194599999999999  1.0000
  O   O5        1.0  0.5364599999999999  0.8919700000000002  0.89562  1.0000
  O   O6        1.0  0.34902000000000016  0.9258  0.91809  1.0000
  O   O7        1.0  0.5641100000000001  0.5946600000000001  0.5857199999999998  1.0000
  O   O8        1.0  0.7449499999999999  0.56718  0.58342  1.0000
  O   O9        1.0  0.6797699999999998  0.6048  0.39361999999999997  1.0000
  O   O10       1.0  0.51589  0.58142  0.42486  1.0000
  O   O11       1.0  0.40043  0.91428  0.09454999999999998  1.0000
  O   O12       1.0  0.5748  0.92126  0.07209  1.0000
  O   O13       1.0  0.6768700000000001  0.39507  0.60712  1.0000
  O   O14       1.0  0.52169  0.41877  0.5753099999999998  1.0000
  O   O15       1.0  0.40981  0.08519000000000002  0.9054699999999998  1.0000
  O   O16       1.0  0.56408  0.08136  0.93273  1.0000
  O   O17       1.0  0.8239299999999999  0.10585  0.10686  1.0000
  O   O18       1.0  0.69221  0.08177  0.07534  1.0000
  O   O19       1.0  0.24425000000000005  0.41451  0.4054799999999999  1.0000
  O   O20       1.0  0.39459999999999984  0.41946  0.43175  1.0000
  O   O21       1.0  0.03645999999999994  0.89562  0.89197  1.0000
  O   O22       1.0  0.8490199999999999  0.91809  0.9257999999999997  1.0000
  O   O23       1.0  0.06410999999999999  0.58572  0.59466  1.0000
  O   O24       1.0  0.24494999999999992  0.58342  0.5671799999999998  1.0000
  O   O25       1.0  0.17977000000000012  0.39362  0.6048  1.0000
  O   O26       1.0  0.015900000000000032  0.42486  0.58142  1.0000
  O   O27       1.0  0.9004300000000001  0.09455  0.9142899999999998  1.0000
  O   O28       1.0  0.07480999999999999  0.07208  0.92126  1.0000
  O   O29       1.0  0.17686000000000004  0.60712  0.39506999999999987  1.0000
  O   O30       1.0  0.02169  0.57531  0.41876999999999986  1.0000
  O   O31       1.0  0.9097999999999999  0.90547  0.08518999999999999  1.0000
  O   O32       1.0  0.06406999999999999  0.93273  0.08137  1.0000
