data_image0
_chemical_formula_structural       Zn8H64C80N8O32
_chemical_formula_sum              "Zn8 H64 C80 N8 O32"
_cell_length_a       10.14719
_cell_length_b       14.87765
_cell_length_c       18.407980000000002
_cell_angle_alpha    114.93353999999998
_cell_angle_beta     90.02401
_cell_angle_gamma    90.04977

_symmetry_space_group_name_H-M    'P 1'
_symmetry_Int_Tables_number       1

loop_
  _symmetry_equiv_pos_as_xyz
  'x,y,z'

loop_
  _atom_site_type_symbol
  _atom_site_label
  _atom_site_symmetry_multiplicity
  _atom_site_fract_x
  _atom_site_fract_y
  _atom_site_fract_z
  _atom_site_occupancy
  Zn  Zn1       1.0  0.71645  0.8921299999999995  0.7529499999999998  1.0000
  Zn  Zn2       1.0  0.9432  0.15003  0.95597  1.0000
  Zn  Zn3       1.0  0.21608000000000002  0.10664  0.74698  1.0000
  Zn  Zn4       1.0  0.44361000000000006  0.84964  0.54506  1.0000
  Zn  Zn5       1.0  0.28355  0.10786999999999997  0.24705  1.0000
  Zn  Zn6       1.0  0.0568  0.84997  0.044029999999999986  1.0000
  Zn  Zn7       1.0  0.78392  0.8933599999999998  0.25301  1.0000
  Zn  Zn8       1.0  0.55639  0.15034999999999993  0.4549399999999999  1.0000
  H   H1        1.0  0.29784  0.74658  0.77603  1.0000
  H   H2        1.0  0.1612  0.8633899999999998  0.75331  1.0000
  H   H3        1.0  0.36542  0.01588999999999997  0.85412  1.0000
  H   H4        1.0  0.38877  0.9153999999999999  0.9250199999999997  1.0000
  H   H5        1.0  0.77314  0.6954399999999995  0.7596599999999998  1.0000
  H   H6        1.0  0.9289800000000001  0.5538199999999998  0.68945  1.0000
  H   H7        1.0  0.09927  0.72511  0.5732599999999998  1.0000
  H   H8        1.0  0.94302  0.8601899999999998  0.65068  1.0000
  H   H9        1.0  0.45305000000000006  0.29613  0.39495  1.0000
  H   H10       1.0  0.33945  0.4590499999999999  0.45053  1.0000
  H   H11       1.0  0.36788  0.45947  0.68436  1.0000
  H   H12       1.0  0.48416000000000003  0.2936  0.61862  1.0000
  H   H13       1.0  0.08571  0.4758599999999999  0.58596  1.0000
  H   H14       1.0  0.11473  0.5246699999999997  0.51517  1.0000
  H   H15       1.0  0.26616  0.59634  0.67432  1.0000
  H   H16       1.0  0.30258  0.6243699999999998  0.59261  1.0000
  H   H17       1.0  0.79818  0.25377999999999995  0.72473  1.0000
  H   H18       1.0  0.66131  0.1364399999999999  0.7467  1.0000
  H   H19       1.0  0.8655600000000001  0.98477  0.64577  1.0000
  H   H20       1.0  0.8870400000000002  0.08569000000000006  0.57476  1.0000
  H   H21       1.0  0.27308  0.30402999999999997  0.74018  1.0000
  H   H22       1.0  0.42865  0.4459399999999999  0.81063  1.0000
  H   H23       1.0  0.59942  0.27498999999999985  0.9268599999999998  1.0000
  H   H24       1.0  0.44353  0.1396  0.84928  1.0000
  H   H25       1.0  0.9535400000000002  0.70457  0.10491999999999997  1.0000
  H   H26       1.0  0.84005  0.5414799999999997  0.04959  1.0000
  H   H27       1.0  0.8678400000000001  0.5402  0.81547  1.0000
  H   H28       1.0  0.98402  0.70622  0.88092  1.0000
  H   H29       1.0  0.5861  0.52417  0.91405  1.0000
  H   H30       1.0  0.61503  0.47554999999999986  0.9849599999999998  1.0000
  H   H31       1.0  0.76604  0.4035499999999999  0.82579  1.0000
  H   H32       1.0  0.8025699999999999  0.37565  0.90753  1.0000
  H   H33       1.0  0.70215  0.2534099999999999  0.22396  1.0000
  H   H34       1.0  0.8388  0.13661000000000004  0.24668000000000004  1.0000
  H   H35       1.0  0.63458  0.9841099999999998  0.14587  1.0000
  H   H36       1.0  0.61122  0.08459999999999995  0.07497999999999998  1.0000
  H   H37       1.0  0.22685999999999998  0.30456  0.24033  1.0000
  H   H38       1.0  0.07102  0.4461799999999998  0.31055  1.0000
  H   H39       1.0  0.9007300000000001  0.27488  0.42674  1.0000
  H   H40       1.0  0.05697000000000001  0.13981  0.34932  1.0000
  H   H41       1.0  0.54695  0.70387  0.60505  1.0000
  H   H42       1.0  0.66054  0.5409399999999999  0.5494699999999998  1.0000
  H   H43       1.0  0.63212  0.5405199999999998  0.31563  1.0000
  H   H44       1.0  0.51584  0.7064  0.38137  1.0000
  H   H45       1.0  0.91429  0.5241399999999998  0.4140299999999999  1.0000
  H   H46       1.0  0.88527  0.4753199999999999  0.4848199999999999  1.0000
  H   H47       1.0  0.73384  0.4036599999999999  0.32566999999999996  1.0000
  H   H48       1.0  0.69742  0.37562  0.40738999999999986  1.0000
  H   H49       1.0  0.20181  0.7462099999999998  0.27525999999999995  1.0000
  H   H50       1.0  0.33869  0.86356  0.2533  1.0000
  H   H51       1.0  0.13444  0.015230000000000006  0.35422  1.0000
  H   H52       1.0  0.11295  0.9142999999999999  0.42523  1.0000
  H   H53       1.0  0.72692  0.69597  0.25982  1.0000
  H   H54       1.0  0.57135  0.5540599999999998  0.18937  1.0000
  H   H55       1.0  0.40057  0.7250099999999998  0.07314  1.0000
  H   H56       1.0  0.55646  0.8603999999999999  0.15072  1.0000
  H   H57       1.0  0.04645  0.2954299999999999  0.89508  1.0000
  H   H58       1.0  0.15994  0.45850999999999986  0.9504  1.0000
  H   H59       1.0  0.13216  0.45979999999999993  0.18453  1.0000
  H   H60       1.0  0.01597  0.29377  0.11908  1.0000
  H   H61       1.0  0.41390000000000005  0.47582  0.08594  1.0000
  H   H62       1.0  0.38497  0.52444  0.015039999999999998  1.0000
  H   H63       1.0  0.23395  0.59645  0.17420999999999995  1.0000
  H   H64       1.0  0.19742  0.6243499999999997  0.09246  1.0000
  C   C1        1.0  0.34023  0.8205499999999997  0.7949499999999999  1.0000
  C   C2        1.0  0.26349  0.89002  0.7651  1.0000
  C   C3        1.0  0.27429  0.9746599999999997  0.85116  1.0000
  C   C4        1.0  0.30647  0.8952399999999998  0.88283  1.0000
  C   C5        1.0  0.48660000000000003  0.81326  0.77655  1.0000
  C   C6        1.0  0.31666  0.9020699999999998  0.69313  1.0000
  C   C7        1.0  0.16274  0.04781999999999999  0.88187  1.0000
  C   C8        1.0  0.19045  0.8598999999999998  0.91619  1.0000
  C   C9        1.0  0.84912  0.69892  0.71927  1.0000
  C   C10       1.0  0.9345100000000001  0.62051  0.679  1.0000
  C   C11       1.0  0.02597  0.6267499999999998  0.62434  1.0000
  C   C12       1.0  0.029299999999999996  0.7148099999999998  0.61395  1.0000
  C   C13       1.0  0.94252  0.7906899999999997  0.6570199999999999  1.0000
  C   C14       1.0  0.43240999999999996  0.3345499999999999  0.45882  1.0000
  C   C15       1.0  0.36875  0.4257199999999998  0.49052999999999997  1.0000
  C   C16       1.0  0.34246  0.47288999999999975  0.57287  1.0000
  C   C17       1.0  0.38524  0.42543999999999976  0.62006  1.0000
  C   C18       1.0  0.44884  0.3343699999999999  0.58499  1.0000
  C   C19       1.0  0.11807999999999999  0.54261  0.57951  1.0000
  C   C20       1.0  0.26267  0.5664399999999998  0.60874  1.0000
  C   C21       1.0  0.8403200000000001  0.17974  0.70526  1.0000
  C   C22       1.0  0.76368  0.11011000000000003  0.73499  1.0000
  C   C23       1.0  0.77423  0.025660000000000033  0.649  1.0000
  C   C24       1.0  0.8054900000000002  0.10536  0.61741  1.0000
  C   C25       1.0  0.98687  0.18676  0.72334  1.0000
  C   C26       1.0  0.8169600000000001  0.09753999999999989  0.80663  1.0000
  C   C27       1.0  0.6627  0.9523399999999997  0.61878  1.0000
  C   C28       1.0  0.68843  0.14089999999999994  0.58502  1.0000
  C   C29       1.0  0.34898  0.30065  0.7807  1.0000
  C   C30       1.0  0.43431  0.3792599999999999  0.82109  1.0000
  C   C31       1.0  0.52589  0.37325999999999987  0.87581  1.0000
  C   C32       1.0  0.52936  0.28518999999999994  0.8861499999999999  1.0000
  C   C33       1.0  0.4426399999999999  0.2091199999999999  0.84298  1.0000
  C   C34       1.0  0.93291  0.66595  0.04102  1.0000
  C   C35       1.0  0.86927  0.5746399999999999  0.00945  1.0000
  C   C36       1.0  0.84277  0.5271299999999999  0.9271199999999999  1.0000
  C   C37       1.0  0.8853599999999999  0.5744099999999998  0.87977  1.0000
  C   C38       1.0  0.94892  0.6655999999999997  0.91468  1.0000
  C   C39       1.0  0.61824  0.45745999999999987  0.9206  1.0000
  C   C40       1.0  0.76274  0.43353999999999987  0.89138  1.0000
  C   C41       1.0  0.65977  0.17944999999999994  0.20505  1.0000
  C   C42       1.0  0.7365000000000002  0.10997999999999997  0.2349  1.0000
  C   C43       1.0  0.7257  0.02533  0.14883  1.0000
  C   C44       1.0  0.69353  0.10475999999999998  0.11717  1.0000
  C   C45       1.0  0.51339  0.18674  0.22345  1.0000
  C   C46       1.0  0.68333  0.09792999999999996  0.30687  1.0000
  C   C47       1.0  0.83726  0.95218  0.11812  1.0000
  C   C48       1.0  0.8095500000000001  0.14009999999999995  0.0838  1.0000
  C   C49       1.0  0.15087  0.30108  0.28073  1.0000
  C   C50       1.0  0.06548  0.37949  0.321  1.0000
  C   C51       1.0  0.97403  0.3732499999999999  0.37566  1.0000
  C   C52       1.0  0.9706900000000002  0.2851899999999999  0.38604  1.0000
  C   C53       1.0  0.05747  0.20930999999999989  0.34298  1.0000
  C   C54       1.0  0.56758  0.6654499999999998  0.54117  1.0000
  C   C55       1.0  0.63124  0.5742799999999998  0.50947  1.0000
  C   C56       1.0  0.65753  0.5271099999999997  0.42713  1.0000
  C   C57       1.0  0.61476  0.5745499999999999  0.37993  1.0000
  C   C58       1.0  0.55115  0.6656299999999998  0.4150099999999999  1.0000
  C   C59       1.0  0.8819200000000001  0.4573899999999999  0.42049  1.0000
  C   C60       1.0  0.73732  0.4335499999999998  0.39125999999999994  1.0000
  C   C61       1.0  0.15968  0.8202599999999998  0.29474  1.0000
  C   C62       1.0  0.23631  0.88989  0.26501  1.0000
  C   C63       1.0  0.22577  0.9743299999999998  0.35099  1.0000
  C   C64       1.0  0.1945  0.8946399999999999  0.38259  1.0000
  C   C65       1.0  0.013130000000000001  0.81324  0.27666  1.0000
  C   C66       1.0  0.18304  0.9024599999999999  0.19337  1.0000
  C   C67       1.0  0.33729  0.04765999999999999  0.38121  1.0000
  C   C68       1.0  0.31157  0.8590899999999998  0.4149799999999999  1.0000
  C   C69       1.0  0.65102  0.69935  0.2193  1.0000
  C   C70       1.0  0.56568  0.6207299999999999  0.17891  1.0000
  C   C71       1.0  0.4741  0.62674  0.12417999999999998  1.0000
  C   C72       1.0  0.47064  0.7148099999999998  0.11385  1.0000
  C   C73       1.0  0.55736  0.79088  0.15701  1.0000
  C   C74       1.0  0.06708  0.33405000000000007  0.9589700000000001  1.0000
  C   C75       1.0  0.13072  0.4253599999999999  0.99054  1.0000
  C   C76       1.0  0.15723  0.4728599999999999  0.07288  1.0000
  C   C77       1.0  0.11463  0.42559  0.12023  1.0000
  C   C78       1.0  0.05106999999999999  0.3343899999999999  0.08531  1.0000
  C   C79       1.0  0.38175  0.5425399999999998  0.0794  1.0000
  C   C80       1.0  0.23726  0.56645  0.10862  1.0000
  N   N1        1.0  0.85282  0.7829199999999996  0.7083199999999998  1.0000
  N   N2        1.0  0.47128  0.28924  0.50532  1.0000
  N   N3        1.0  0.35273  0.21661999999999995  0.79163  1.0000
  N   N4        1.0  0.9716000000000001  0.71106  0.9943299999999999  1.0000
  N   N5        1.0  0.14718  0.21707999999999994  0.29168  1.0000
  N   N6        1.0  0.52871  0.71076  0.49467  1.0000
  N   N7        1.0  0.64726  0.78338  0.20836  1.0000
  N   N8        1.0  0.028390000000000002  0.28893999999999986  0.00567  1.0000
  O   O1        1.0  0.54786  0.8987799999999998  0.80408  1.0000
  O   O2        1.0  0.54033  0.7313999999999999  0.7378499999999999  1.0000
  O   O3        1.0  0.32632  0.9871699999999998  0.69168  1.0000
  O   O4        1.0  0.35321  0.82338  0.63402  1.0000
  O   O5        1.0  0.08782  0.04985999999999996  0.93775  1.0000
  O   O6        1.0  0.14663  0.10888999999999992  0.8498499999999998  1.0000
  O   O7        1.0  0.20671  0.8759899999999998  0.99081  1.0000
  O   O8        1.0  0.09438  0.8174  0.8727  1.0000
  O   O9        1.0  0.04809  0.10121999999999985  0.6949199999999998  1.0000
  O   O10       1.0  0.04067  0.26855  0.76274  1.0000
  O   O11       1.0  0.8266300000000001  0.01207  0.80729  1.0000
  O   O12       1.0  0.8536700000000002  0.17604000000000003  0.86597  1.0000
  O   O13       1.0  0.58717  0.9503700000000002  0.56322  1.0000
  O   O14       1.0  0.64677  0.8911699999999998  0.65075  1.0000
  O   O15       1.0  0.70303  0.12496999999999994  0.51036  1.0000
  O   O16       1.0  0.59364  0.18362999999999982  0.6294099999999998  1.0000
  O   O17       1.0  0.45214  0.10121  0.19592  1.0000
  O   O18       1.0  0.45966  0.2686  0.26215  1.0000
  O   O19       1.0  0.67368  0.012829999999999987  0.30832  1.0000
  O   O20       1.0  0.64678  0.17661999999999994  0.36597  1.0000
  O   O21       1.0  0.91217  0.95014  0.06225  1.0000
  O   O22       1.0  0.85337  0.8911099999999998  0.15014  1.0000
  O   O23       1.0  0.79329  0.12400999999999997  0.00919  1.0000
  O   O24       1.0  0.9056100000000001  0.18258999999999995  0.1273  1.0000
  O   O25       1.0  0.9519  0.89877  0.30507  1.0000
  O   O26       1.0  0.9593200000000001  0.73145  0.23726  1.0000
  O   O27       1.0  0.17337  0.9879299999999998  0.19271  1.0000
  O   O28       1.0  0.14633  0.82396  0.13403  1.0000
  O   O29       1.0  0.41283  0.049630000000000014  0.43677  1.0000
  O   O30       1.0  0.35322  0.10882999999999997  0.34925  1.0000
  O   O31       1.0  0.29696  0.8750299999999998  0.48963  1.0000
  O   O32       1.0  0.40636  0.8163699999999999  0.37059  1.0000
