data_image0
_chemical_formula_structural       Co6H70C98N8O24
_chemical_formula_sum              "Co6 H70 C98 N8 O24"
_cell_length_a       11.64252
_cell_length_b       15.0285
_cell_length_c       19.46922
_cell_angle_alpha    70.87799
_cell_angle_beta     76.21996
_cell_angle_gamma    83.63480000000001

_symmetry_space_group_name_H-M    'P 1'
_symmetry_Int_Tables_number       1

loop_
  _symmetry_equiv_pos_as_xyz
  'x,y,z'

loop_
  _atom_site_type_symbol
  _atom_site_label
  _atom_site_symmetry_multiplicity
  _atom_site_fract_x
  _atom_site_fract_y
  _atom_site_fract_z
  _atom_site_occupancy
  Co  Co1       1.0  0.59859  0.28483  0.07633  1.0000
  Co  Co2       1.0  0.7667700000000001  0.50593  0.42291  1.0000
  Co  Co3       1.0  0.40141  0.7150899999999999  0.9237700000000001  1.0000
  Co  Co4       1.0  0.23317  0.49409000000000003  0.57711  1.0000
  Co  Co5       1.0  0.50007  0.49995  0.99999  1.0000
  Co  Co6       1.0  0.5000000000000001  0.49987000000000004  0.5  1.0000
  H   H1        1.0  0.77859  0.69963  0.29861  1.0000
  H   H2        1.0  0.9255800000000001  0.8242200000000002  0.2299  1.0000
  H   H3        1.0  0.15562000000000004  0.66678  0.37722  1.0000
  H   H4        1.0  0.000900000000000025  0.55148  0.43813  1.0000
  H   H5        1.0  0.09623999999999996  0.8676700000000003  0.15066  1.0000
  H   H6        1.0  0.25222  0.9841500000000002  0.08592  1.0000
  H   H7        1.0  0.38506000000000007  0.9126000000000002  0.28598  1.0000
  H   H8        1.0  0.22566  0.80043  0.35292  1.0000
  H   H9        1.0  0.62276  0.9323000000000002  0.02857  1.0000
  H   H10       1.0  0.48579999999999984  0.8849600000000002  0.08269  1.0000
  H   H11       1.0  0.7060699999999999  0.8824000000000002  0.14584  1.0000
  H   H12       1.0  0.6522500000000001  0.7837  0.13248  1.0000
  H   H13       1.0  0.5667700000000001  0.83515  0.1989  1.0000
  H   H14       1.0  0.6793  0.09214000000000003  0.03558  1.0000
  H   H15       1.0  0.3401  0.2927200000000001  0.08425  1.0000
  H   H16       1.0  0.18637999999999996  0.3825400000000001  0.14648  1.0000
  H   H17       1.0  0.15174  0.15034000000000003  0.35073  1.0000
  H   H18       1.0  0.30956999999999996  0.061700000000000005  0.28887  1.0000
  H   H19       1.0  0.9929000000000001  0.40823  0.19743  1.0000
  H   H20       1.0  0.8456099999999999  0.49577  0.26977  1.0000
  H   H21       1.0  0.9593  0.3546900000000002  0.46428  1.0000
  H   H22       1.0  0.11885999999999998  0.2676600000000001  0.39922  1.0000
  H   H23       1.0  0.68513  0.28073  0.82012  1.0000
  H   H24       1.0  0.62271  0.32871  0.6976  1.0000
  H   H25       1.0  0.30029999999999996  0.4528  0.79318  1.0000
  H   H26       1.0  0.3674200000000001  0.41336  0.91304  1.0000
  H   H27       1.0  0.96746  0.3285  0.03715  1.0000
  H   H28       1.0  0.8282199999999998  0.6132700000000002  0.9854  1.0000
  H   H29       1.0  0.7292  0.50875  0.78884  1.0000
  H   H30       1.0  0.80968  0.489  0.66322  1.0000
  H   H31       1.0  0.51766  0.65813  0.5834  1.0000
  H   H32       1.0  0.44437  0.6859600000000001  0.70667  1.0000
  H   H33       1.0  0.58358  0.19794  0.52859  1.0000
  H   H34       1.0  0.47778000000000004  0.28709000000000007  0.54871  1.0000
  H   H35       1.0  0.5628500000000001  0.21901000000000004  0.61506  1.0000
  H   H36       1.0  0.22138999999999998  0.30037  0.70141  1.0000
  H   H37       1.0  0.07440999999999999  0.17577000000000004  0.77012  1.0000
  H   H38       1.0  0.8443800000000001  0.33320000000000005  0.62279  1.0000
  H   H39       1.0  0.99909  0.4485  0.56188  1.0000
  H   H40       1.0  0.90376  0.13230999999999998  0.84936  1.0000
  H   H41       1.0  0.7477699999999999  0.015830000000000066  0.9140800000000001  1.0000
  H   H42       1.0  0.61495  0.08737  0.71403  1.0000
  H   H43       1.0  0.7743400000000003  0.19954999999999998  0.64708  1.0000
  H   H44       1.0  0.3772200000000001  0.06770000000000005  0.9714299999999999  1.0000
  H   H45       1.0  0.5141799999999999  0.11504999999999996  0.9173300000000001  1.0000
  H   H46       1.0  0.29395  0.11761000000000003  0.85416  1.0000
  H   H47       1.0  0.3477400000000001  0.2163  0.86752  1.0000
  H   H48       1.0  0.43324000000000007  0.16485999999999998  0.8011  1.0000
  H   H49       1.0  0.3206899999999999  0.9078800000000004  0.9644600000000001  1.0000
  H   H50       1.0  0.65987  0.7072400000000001  0.9157699999999999  1.0000
  H   H51       1.0  0.8135899999999999  0.6174399999999999  0.85355  1.0000
  H   H52       1.0  0.84822  0.8496200000000004  0.64931  1.0000
  H   H53       1.0  0.6903899999999998  0.9382600000000003  0.71116  1.0000
  H   H54       1.0  0.007109999999999987  0.59176  0.8026  1.0000
  H   H55       1.0  0.15442  0.50424  0.73026  1.0000
  H   H56       1.0  0.04069999999999998  0.64529  0.53574  1.0000
  H   H57       1.0  0.88111  0.7323100000000002  0.60081  1.0000
  H   H58       1.0  0.31479999999999997  0.7192700000000002  0.17993  1.0000
  H   H59       1.0  0.37732000000000004  0.6713100000000002  0.3024  1.0000
  H   H60       1.0  0.69968  0.5472300000000001  0.20677  1.0000
  H   H61       1.0  0.6324499999999998  0.58664  0.08694  1.0000
  H   H62       1.0  0.032309999999999964  0.6715100000000005  0.96284  1.0000
  H   H63       1.0  0.17154999999999992  0.38673000000000013  0.01461  1.0000
  H   H64       1.0  0.27047999999999994  0.49130000000000007  0.21127  1.0000
  H   H65       1.0  0.19024999999999997  0.51097  0.3369  1.0000
  H   H66       1.0  0.48228000000000004  0.3418500000000001  0.41663  1.0000
  H   H67       1.0  0.55551  0.31407  0.2933  1.0000
  H   H68       1.0  0.41642999999999997  0.8019800000000002  0.47140999999999994  1.0000
  H   H69       1.0  0.5222299999999999  0.7128500000000002  0.45128000000000007  1.0000
  H   H70       1.0  0.43718  0.7809400000000001  0.38494  1.0000
  C   C1        1.0  0.8634099999999999  0.69597  0.31378  1.0000
  C   C2        1.0  0.94679  0.7644  0.27526  1.0000
  C   C3        1.0  0.05604999999999998  0.7565300000000001  0.29603  1.0000
  C   C4        1.0  0.07433999999999995  0.6783400000000004  0.35667  1.0000
  C   C5        1.0  0.98673  0.61298  0.39203  1.0000
  C   C6        1.0  0.14858  0.82616  0.25653  1.0000
  C   C7        1.0  0.15777000000000002  0.87874  0.18103  1.0000
  C   C8        1.0  0.2469  0.94316  0.1441  1.0000
  C   C9        1.0  0.32970999999999995  0.9563700000000003  0.18148  1.0000
  C   C10       1.0  0.3209200000000001  0.90317  0.25663  1.0000
  C   C11       1.0  0.23138000000000003  0.83956  0.29408  1.0000
  C   C12       1.0  0.42316999999999994  0.025359999999999997  0.14423  1.0000
  C   C13       1.0  0.56514  0.9168100000000002  0.08428  1.0000
  C   C14       1.0  0.6267400000000002  0.85087  0.14394  1.0000
  C   C15       1.0  0.59387  0.08541  0.0735  1.0000
  C   C16       1.0  0.4294  0.11642000000000002  0.14558  1.0000
  C   C17       1.0  0.33665000000000006  0.17053  0.18219  1.0000
  C   C18       1.0  0.29875  0.26081  0.14258  1.0000
  C   C19       1.0  0.21064  0.31146  0.17792  1.0000
  C   C20       1.0  0.15748999999999996  0.27342000000000005  0.25369  1.0000
  C   C21       1.0  0.19370999999999997  0.18214000000000008  0.29258  1.0000
  C   C22       1.0  0.28185  0.13156  0.25751  1.0000
  C   C23       1.0  0.06804  0.3276800000000002  0.29265  1.0000
  C   C24       1.0  0.9903199999999999  0.39484  0.25623  1.0000
  C   C25       1.0  0.90725  0.44343  0.29605  1.0000
  C   C26       1.0  0.97105  0.36513999999999996  0.4051  1.0000
  C   C27       1.0  0.05755000000000003  0.31501  0.36869  1.0000
  C   C28       1.0  0.57098  0.32031000000000004  0.94369  1.0000
  C   C29       1.0  0.53024  0.3446700000000002  0.87325  1.0000
  C   C30       1.0  0.60159  0.31895  0.8132  1.0000
  C   C31       1.0  0.5664699999999999  0.3447600000000002  0.74565  1.0000
  C   C32       1.0  0.45779000000000003  0.39331999999999995  0.73843  1.0000
  C   C33       1.0  0.38449999999999995  0.41556  0.79956  1.0000
  C   C34       1.0  0.42118  0.39292000000000005  0.86633  1.0000
  C   C35       1.0  0.42143999999999987  0.42371000000000003  0.66541  1.0000
  C   C36       1.0  0.76344  0.4322200000000001  0.02506  1.0000
  C   C37       1.0  0.88537  0.4673100000000001  0.01249  1.0000
  C   C38       1.0  0.98262  0.4034100000000001  0.02085  1.0000
  C   C39       1.0  0.9039100000000002  0.56423  0.9916299999999999  1.0000
  C   C40       1.0  0.5317899999999997  0.6094100000000005  0.83045  1.0000
  C   C41       1.0  0.5819399999999999  0.59857  0.75533  1.0000
  C   C42       1.0  0.68516  0.54314  0.74303  1.0000
  C   C43       1.0  0.72961  0.5317  0.67327  1.0000
  C   C44       1.0  0.6689  0.5726000000000002  0.61556  1.0000
  C   C45       1.0  0.56563  0.6284200000000002  0.62781  1.0000
  C   C46       1.0  0.52391  0.64277  0.6966  1.0000
  C   C47       1.0  0.70831  0.5528500000000004  0.54356  1.0000
  C   C48       1.0  0.66414  0.32201  0.52226  1.0000
  C   C49       1.0  0.56435  0.25327000000000005  0.55569  1.0000
  C   C50       1.0  0.13656999999999994  0.3040300000000002  0.68624  1.0000
  C   C51       1.0  0.05319000000000002  0.23559  0.72475  1.0000
  C   C52       1.0  0.94394  0.24345000000000003  0.70398  1.0000
  C   C53       1.0  0.92565  0.32164999999999994  0.64334  1.0000
  C   C54       1.0  0.013259999999999982  0.387  0.60799  1.0000
  C   C55       1.0  0.8514  0.17383000000000012  0.74348  1.0000
  C   C56       1.0  0.84222  0.12124000000000001  0.81898  1.0000
  C   C57       1.0  0.7530900000000001  0.05681  0.85591  1.0000
  C   C58       1.0  0.67028  0.04360999999999998  0.81854  1.0000
  C   C59       1.0  0.67908  0.09681000000000002  0.74338  1.0000
  C   C60       1.0  0.7686099999999998  0.16042  0.70593  1.0000
  C   C61       1.0  0.5768099999999998  0.9746200000000004  0.85579  1.0000
  C   C62       1.0  0.4348599999999999  0.08318999999999996  0.9157300000000002  1.0000
  C   C63       1.0  0.3732699999999999  0.14913000000000004  0.85606  1.0000
  C   C64       1.0  0.4061299999999999  0.9145700000000002  0.9265400000000001  1.0000
  C   C65       1.0  0.57059  0.8835500000000001  0.85446  1.0000
  C   C66       1.0  0.66335  0.8294500000000004  0.81785  1.0000
  C   C67       1.0  0.7012600000000001  0.73917  0.85746  1.0000
  C   C68       1.0  0.78936  0.6885200000000004  0.82212  1.0000
  C   C69       1.0  0.84251  0.7265600000000002  0.74634  1.0000
  C   C70       1.0  0.8062700000000002  0.8178199999999999  0.70746  1.0000
  C   C71       1.0  0.71813  0.8684100000000001  0.74253  1.0000
  C   C72       1.0  0.93195  0.67229  0.70738  1.0000
  C   C73       1.0  0.009689999999999983  0.6051500000000001  0.74379  1.0000
  C   C74       1.0  0.09276000000000005  0.55657  0.70397  1.0000
  C   C75       1.0  0.02893999999999999  0.63485  0.59492  1.0000
  C   C76       1.0  0.9424299999999999  0.6849700000000001  0.63134  1.0000
  C   C77       1.0  0.42888  0.67962  0.056389999999999996  1.0000
  C   C78       1.0  0.46964000000000006  0.65529  0.12681  1.0000
  C   C79       1.0  0.39835  0.6810400000000002  0.18685  1.0000
  C   C80       1.0  0.43355  0.65525  0.25436  1.0000
  C   C81       1.0  0.5422300000000002  0.60668  0.26157  1.0000
  C   C82       1.0  0.61549  0.5844700000000003  0.20042  1.0000
  C   C83       1.0  0.57874  0.6070800000000001  0.13367  1.0000
  C   C84       1.0  0.5785900000000002  0.57628  0.3346  1.0000
  C   C85       1.0  0.23643000000000017  0.56769  0.9749799999999998  1.0000
  C   C86       1.0  0.11443999999999999  0.53269  0.98753  1.0000
  C   C87       1.0  0.017170000000000005  0.5966  0.97915  1.0000
  C   C88       1.0  0.09586999999999998  0.4357800000000001  0.00837  1.0000
  C   C89       1.0  0.4682700000000003  0.39061  0.16961  1.0000
  C   C90       1.0  0.41797  0.40155  0.24470999999999998  1.0000
  C   C91       1.0  0.31469  0.45694000000000007  0.257  1.0000
  C   C92       1.0  0.27029000000000003  0.46829000000000004  0.3268  1.0000
  C   C93       1.0  0.33101  0.4273799999999999  0.38448  1.0000
  C   C94       1.0  0.4342599999999999  0.3715700000000001  0.37225  1.0000
  C   C95       1.0  0.4759999999999999  0.3572900000000001  0.30344  1.0000
  C   C96       1.0  0.29164  0.4471500000000002  0.45646  1.0000
  C   C97       1.0  0.3358900000000001  0.6779000000000004  0.47772999999999993  1.0000
  C   C98       1.0  0.43566000000000005  0.74666  0.4443  1.0000
  N   N1        1.0  0.52797  0.007429999999999999  0.09782  1.0000
  N   N2        1.0  0.53735  0.15265000000000006  0.10124  1.0000
  N   N3        1.0  0.89554  0.42862999999999996  0.3698  1.0000
  N   N4        1.0  0.8824899999999999  0.6202600000000001  0.37128  1.0000
  N   N5        1.0  0.47201  0.99255  0.9022  1.0000
  N   N6        1.0  0.4626599999999999  0.8473100000000001  0.8988200000000001  1.0000
  N   N7        1.0  0.10446000000000001  0.5713700000000003  0.63023  1.0000
  N   N8        1.0  0.11748999999999998  0.3797400000000002  0.62874  1.0000
  O   O1        1.0  0.5125100000000001  0.35752  0.9952599999999999  1.0000
  O   O2        1.0  0.6561200000000003  0.26318000000000014  0.9572599999999999  1.0000
  O   O3        1.0  0.31083  0.44225000000000003  0.6667  1.0000
  O   O4        1.0  0.50268  0.42833999999999994  0.60798  1.0000
  O   O5        1.0  0.5612200000000003  0.548  0.88672  1.0000
  O   O6        1.0  0.46216000000000007  0.6815800000000001  0.83252  1.0000
  O   O7        1.0  0.6400100000000001  0.58026  0.49588  1.0000
  O   O8        1.0  0.8056  0.50894  0.52755  1.0000
  O   O9        1.0  0.6810000000000002  0.49331  0.00865  1.0000
  O   O10       1.0  0.75392  0.34244000000000013  0.05139  1.0000
  O   O11       1.0  0.6396699999999997  0.4043800000000002  0.47578000000000004  1.0000
  O   O12       1.0  0.7637900000000002  0.29891  0.53666  1.0000
  O   O13       1.0  0.48729999999999996  0.6423500000000002  0.00485  1.0000
  O   O14       1.0  0.34381999999999996  0.7368200000000003  0.04277  1.0000
  O   O15       1.0  0.6891900000000001  0.55772  0.33332  1.0000
  O   O16       1.0  0.4973200000000001  0.57162  0.39202  1.0000
  O   O17       1.0  0.43914  0.4520200000000001  0.11325  1.0000
  O   O18       1.0  0.53794  0.3184200000000001  0.16765  1.0000
  O   O19       1.0  0.35995000000000005  0.41969  0.50413  1.0000
  O   O20       1.0  0.19438999999999984  0.49108000000000007  0.47249  1.0000
  O   O21       1.0  0.31880999999999987  0.5065700000000002  0.99149  1.0000
  O   O22       1.0  0.24605  0.6574600000000002  0.94855  1.0000
  O   O23       1.0  0.36035  0.5955300000000002  0.52423  1.0000
  O   O24       1.0  0.23627999999999996  0.7010500000000002  0.46330000000000005  1.0000
