data_image0
_chemical_formula_structural       Ag8H56C68S8O24
_chemical_formula_sum              "Ag8 H56 C68 S8 O24"
_cell_length_a       6.73712
_cell_length_b       11.70336
_cell_length_c       25.25447
_cell_angle_alpha    98.40203
_cell_angle_beta     90.0
_cell_angle_gamma    90.0

_space_group_name_H-M_alt    "P 1"
_space_group_IT_number       1

loop_
  _space_group_symop_operation_xyz
  'x, y, z'

loop_
  _atom_site_type_symbol
  _atom_site_label
  _atom_site_symmetry_multiplicity
  _atom_site_fract_x
  _atom_site_fract_y
  _atom_site_fract_z
  _atom_site_occupancy
  Ag  Ag1       1.0  0.11502000000000001  0.9258000000000001  0.45666  1.0000
  Ag  Ag2       1.0  0.4916900000000001  0.8286  0.54565  1.0000
  Ag  Ag3       1.0  0.11502000000000001  0.0742  0.04334  1.0000
  Ag  Ag4       1.0  0.4916900000000001  0.17140000000000008  0.9543400000000001  1.0000
  Ag  Ag5       1.0  0.8849900000000003  0.0742  0.54334  1.0000
  Ag  Ag6       1.0  0.50831  0.1714000000000001  0.45434000000000013  1.0000
  Ag  Ag7       1.0  0.8849900000000003  0.9257900000000002  0.9566600000000001  1.0000
  Ag  Ag8       1.0  0.50831  0.8286  0.04566  1.0000
  H   H1        1.0  0.2986000000000001  0.13232  0.68555  1.0000
  H   H2        1.0  0.05635000000000001  0.25537  0.74091  1.0000
  H   H3        1.0  0.11161000000000001  0.27882  0.54665  1.0000
  H   H4        1.0  0.8569100000000002  0.39271000000000006  0.60056  1.0000
  H   H5        1.0  0.02578  0.54926  0.72655  1.0000
  H   H6        1.0  0.7638  0.54107  0.6558600000000001  1.0000
  H   H7        1.0  0.57847  0.43238  0.6507000000000001  1.0000
  H   H8        1.0  0.7598000000000003  0.2939600000000001  0.7671300000000002  1.0000
  H   H9        1.0  0.5739  0.28797  0.71697  1.0000
  H   H10       1.0  0.3113400000000001  0.55837  0.77655  1.0000
  H   H11       1.0  0.48871  0.8104700000000001  0.71737  1.0000
  H   H12       1.0  0.2771  0.4803000000000001  0.63983  1.0000
  H   H13       1.0  0.26008000000000003  0.90866  0.66145  1.0000
  H   H14       1.0  0.04975  0.5785999999999999  0.58467  1.0000
  H   H15       1.0  0.2986000000000001  0.8676700000000002  0.8144400000000003  1.0000
  H   H16       1.0  0.05635000000000001  0.74462  0.75909  1.0000
  H   H17       1.0  0.11161000000000001  0.72118  0.9533500000000003  1.0000
  H   H18       1.0  0.8569100000000002  0.60728  0.8994400000000001  1.0000
  H   H19       1.0  0.02578  0.45073000000000013  0.77345  1.0000
  H   H20       1.0  0.7638  0.4589200000000001  0.84413  1.0000
  H   H21       1.0  0.57847  0.56762  0.8492900000000001  1.0000
  H   H22       1.0  0.7598000000000003  0.7060300000000002  0.73286  1.0000
  H   H23       1.0  0.5739  0.7120200000000001  0.7830200000000003  1.0000
  H   H24       1.0  0.3113400000000001  0.44163  0.72344  1.0000
  H   H25       1.0  0.48871  0.18952000000000008  0.7826200000000002  1.0000
  H   H26       1.0  0.2771  0.51969  0.86016  1.0000
  H   H27       1.0  0.26008000000000003  0.09134000000000005  0.8385400000000002  1.0000
  H   H28       1.0  0.04975  0.4213900000000001  0.9153300000000002  1.0000
  H   H29       1.0  0.7014  0.8676700000000003  0.31444000000000005  1.0000
  H   H30       1.0  0.9436500000000002  0.74463  0.25909  1.0000
  H   H31       1.0  0.88839  0.72118  0.45335  1.0000
  H   H32       1.0  0.14309  0.60729  0.39944  1.0000
  H   H33       1.0  0.97422  0.45073000000000013  0.27345  1.0000
  H   H34       1.0  0.2362  0.45893  0.3441300000000001  1.0000
  H   H35       1.0  0.42153000000000007  0.56762  0.34929  1.0000
  H   H36       1.0  0.24020000000000005  0.70604  0.23287000000000005  1.0000
  H   H37       1.0  0.42610000000000003  0.7120200000000001  0.28303  1.0000
  H   H38       1.0  0.6886600000000002  0.44163  0.22344  1.0000
  H   H39       1.0  0.51129  0.18953  0.28262  1.0000
  H   H40       1.0  0.7229000000000002  0.5197000000000002  0.3601600000000001  1.0000
  H   H41       1.0  0.7399200000000001  0.09134  0.33855  1.0000
  H   H42       1.0  0.95025  0.4213900000000001  0.41533000000000003  1.0000
  H   H43       1.0  0.7014  0.13233  0.18556  1.0000
  H   H44       1.0  0.9436500000000002  0.25537  0.24091000000000004  1.0000
  H   H45       1.0  0.88839  0.27882  0.04665000000000001  1.0000
  H   H46       1.0  0.14309  0.39271000000000006  0.10056000000000001  1.0000
  H   H47       1.0  0.97422  0.5492700000000001  0.22655000000000006  1.0000
  H   H48       1.0  0.2362  0.54108  0.15587  1.0000
  H   H49       1.0  0.42153000000000007  0.43238000000000015  0.15071000000000004  1.0000
  H   H50       1.0  0.24020000000000005  0.29396  0.26713  1.0000
  H   H51       1.0  0.42610000000000003  0.28798  0.21697000000000002  1.0000
  H   H52       1.0  0.6886600000000002  0.55837  0.27656  1.0000
  H   H53       1.0  0.51129  0.8104700000000001  0.21737000000000004  1.0000
  H   H54       1.0  0.7229000000000002  0.4803000000000001  0.13984  1.0000
  H   H55       1.0  0.7399200000000001  0.90866  0.16145  1.0000
  H   H56       1.0  0.95025  0.57861  0.08467  1.0000
  C   C1        1.0  0.22193  0.19931  0.61324  1.0000
  C   C2        1.0  0.20388000000000003  0.19142000000000006  0.66761  1.0000
  C   C3        1.0  0.06469  0.26018  0.69826  1.0000
  C   C4        1.0  0.09735000000000003  0.2727  0.58912  1.0000
  C   C5        1.0  0.9396600000000003  0.3359300000000001  0.6754700000000002  1.0000
  C   C6        1.0  0.95525  0.3385500000000001  0.62022  1.0000
  C   C7        1.0  0.6704600000000002  0.48952  0.67918  1.0000
  C   C8        1.0  0.80128  0.4165900000000001  0.71127  1.0000
  C   C9        1.0  0.53612  0.57217  0.71677  1.0000
  C   C10       1.0  0.66708  0.3468900000000001  0.74441  1.0000
  C   C11       1.0  0.40076  0.63757  0.6831800000000001  1.0000
  C   C12       1.0  0.39295000000000013  0.7585200000000002  0.6887000000000002  1.0000
  C   C13       1.0  0.27497  0.5741600000000001  0.6452500000000002  1.0000
  C   C14       1.0  0.26413  0.8149300000000002  0.6575800000000002  1.0000
  C   C15       1.0  0.14116  0.74933  0.62031  1.0000
  C   C16       1.0  0.14568  0.6285200000000001  0.6140300000000001  1.0000
  C   C17       1.0  0.22193  0.8006800000000002  0.8867500000000001  1.0000
  C   C18       1.0  0.20388000000000003  0.80857  0.83238  1.0000
  C   C19       1.0  0.06469  0.7398100000000002  0.8017300000000003  1.0000
  C   C20       1.0  0.09735000000000003  0.7273000000000001  0.9108700000000001  1.0000
  C   C21       1.0  0.9396600000000003  0.6640600000000001  0.8245300000000002  1.0000
  C   C22       1.0  0.95525  0.6614500000000002  0.87978  1.0000
  C   C23       1.0  0.6704600000000002  0.51048  0.82082  1.0000
  C   C24       1.0  0.80128  0.58341  0.78872  1.0000
  C   C25       1.0  0.53612  0.4278300000000002  0.7832200000000002  1.0000
  C   C26       1.0  0.66708  0.6531000000000001  0.75559  1.0000
  C   C27       1.0  0.40076  0.3624300000000001  0.81681  1.0000
  C   C28       1.0  0.39295000000000013  0.24147  0.81129  1.0000
  C   C29       1.0  0.27497  0.42584  0.8547500000000001  1.0000
  C   C30       1.0  0.26413  0.18506000000000003  0.84241  1.0000
  C   C31       1.0  0.14116  0.2506600000000001  0.8796900000000001  1.0000
  C   C32       1.0  0.14568  0.3714700000000001  0.88596  1.0000
  C   C33       1.0  0.7780700000000003  0.80069  0.38675000000000004  1.0000
  C   C34       1.0  0.7961200000000003  0.80857  0.33238  1.0000
  C   C35       1.0  0.93531  0.7398100000000002  0.30174  1.0000
  C   C36       1.0  0.9026500000000002  0.7273000000000001  0.41088  1.0000
  C   C37       1.0  0.06034  0.66407  0.32453  1.0000
  C   C38       1.0  0.04475  0.6614500000000001  0.37978  1.0000
  C   C39       1.0  0.32954000000000006  0.51048  0.32082  1.0000
  C   C40       1.0  0.19872  0.58341  0.28872  1.0000
  C   C41       1.0  0.46389  0.42783  0.28322  1.0000
  C   C42       1.0  0.33292000000000005  0.65311  0.25559  1.0000
  C   C43       1.0  0.5992400000000002  0.3624300000000001  0.31681  1.0000
  C   C44       1.0  0.6070500000000002  0.24148  0.3113  1.0000
  C   C45       1.0  0.72503  0.42584  0.35475  1.0000
  C   C46       1.0  0.73587  0.18506000000000006  0.34241000000000005  1.0000
  C   C47       1.0  0.8588400000000003  0.25066  0.37969  1.0000
  C   C48       1.0  0.85432  0.37148  0.38596  1.0000
  C   C49       1.0  0.7780700000000003  0.19931  0.11325000000000003  1.0000
  C   C50       1.0  0.7961200000000003  0.19143  0.16761  1.0000
  C   C51       1.0  0.93531  0.26019000000000003  0.19826  1.0000
  C   C52       1.0  0.9026500000000002  0.2727  0.08912  1.0000
  C   C53       1.0  0.06034  0.33593000000000006  0.17547  1.0000
  C   C54       1.0  0.04475  0.3385500000000001  0.12022000000000002  1.0000
  C   C55       1.0  0.32954000000000006  0.48952  0.17918000000000003  1.0000
  C   C56       1.0  0.19872  0.4165900000000002  0.21127000000000007  1.0000
  C   C57       1.0  0.46389  0.57217  0.21677000000000002  1.0000
  C   C58       1.0  0.33292000000000005  0.3468900000000001  0.24441  1.0000
  C   C59       1.0  0.5992400000000002  0.63757  0.18318  1.0000
  C   C60       1.0  0.6070500000000002  0.7585200000000002  0.18870000000000006  1.0000
  C   C61       1.0  0.72503  0.5741600000000001  0.14525000000000002  1.0000
  C   C62       1.0  0.73587  0.81494  0.15759  1.0000
  C   C63       1.0  0.8588400000000003  0.7493400000000001  0.12031000000000003  1.0000
  C   C64       1.0  0.85432  0.6285200000000001  0.11404  1.0000
  C   C65       1.0  0.9296  0.5  0.7500000000000002  1.0000
  C   C66       1.0  0.40753  0.5  0.7500000000000002  1.0000
  C   C67       1.0  0.07040000000000002  0.5  0.25  1.0000
  C   C68       1.0  0.5924700000000002  0.5  0.25  1.0000
  S   S1        1.0  0.40139  0.11586999999999999  0.57274  1.0000
  S   S2        1.0  0.99614  0.8166200000000001  0.57479  1.0000
  S   S3        1.0  0.40139  0.8841200000000001  0.92725  1.0000
  S   S4        1.0  0.99614  0.18337  0.9252  1.0000
  S   S5        1.0  0.59861  0.8841200000000001  0.42725  1.0000
  S   S6        1.0  0.00386  0.18338000000000002  0.42521  1.0000
  S   S7        1.0  0.59861  0.11588000000000002  0.07275000000000001  1.0000
  S   S8        1.0  0.00386  0.8166200000000001  0.07479000000000001  1.0000
  O   O1        1.0  0.45518  0.017829999999999988  0.60093  1.0000
  O   O2        1.0  0.29691  0.08011  0.52047  1.0000
  O   O3        1.0  0.56966  0.19448000000000007  0.56568  1.0000
  O   O4        1.0  0.9591200000000001  0.9370000000000003  0.60049  1.0000
  O   O5        1.0  0.13126  0.81122  0.5266  1.0000
  O   O6        1.0  0.81613  0.74441  0.56324  1.0000
  O   O7        1.0  0.45518  0.9821600000000001  0.8990600000000002  1.0000
  O   O8        1.0  0.29691  0.9198800000000003  0.97952  1.0000
  O   O9        1.0  0.56966  0.8055200000000002  0.9343200000000003  1.0000
  O   O10       1.0  0.9591200000000001  0.06298999999999999  0.89951  1.0000
  O   O11       1.0  0.13126  0.18877000000000008  0.9733900000000001  1.0000
  O   O12       1.0  0.81613  0.2555800000000001  0.9367600000000003  1.0000
  O   O13       1.0  0.54482  0.9821600000000001  0.39906  1.0000
  O   O14       1.0  0.7030900000000002  0.9198800000000003  0.47952000000000006  1.0000
  O   O15       1.0  0.43034  0.8055200000000002  0.4343200000000001  1.0000
  O   O16       1.0  0.04088000000000001  0.063  0.39951  1.0000
  O   O17       1.0  0.86874  0.18878000000000003  0.47339  1.0000
  O   O18       1.0  0.18387000000000006  0.25559  0.4367600000000001  1.0000
  O   O19       1.0  0.54482  0.017840000000000005  0.10094000000000002  1.0000
  O   O20       1.0  0.7030900000000002  0.08012  0.020470000000000002  1.0000
  O   O21       1.0  0.43034  0.19448000000000004  0.06568000000000002  1.0000
  O   O22       1.0  0.04088000000000001  0.9370000000000003  0.10049000000000001  1.0000
  O   O23       1.0  0.86874  0.81122  0.02661  1.0000
  O   O24       1.0  0.18387000000000006  0.74441  0.06324  1.0000
