data_image0
_chemical_formula_structural       Cd4H72C72N24
_chemical_formula_sum              "Cd4 H72 C72 N24"
_cell_length_a       10.9527
_cell_length_b       10.936339999999998
_cell_length_c       18.61515
_cell_angle_alpha    95.17593999999998
_cell_angle_beta     95.52861
_cell_angle_gamma    108.78762

_space_group_name_H-M_alt    "P 1"
_space_group_IT_number       1

loop_
  _space_group_symop_operation_xyz
  'x, y, z'

loop_
  _atom_site_type_symbol
  _atom_site_label
  _atom_site_symmetry_multiplicity
  _atom_site_fract_x
  _atom_site_fract_y
  _atom_site_fract_z
  _atom_site_occupancy
  Cd  Cd1       1.0  0.24735  0.21719999999999998  0.70414  1.0000
  Cd  Cd2       1.0  0.21862999999999996  0.24789999999999998  0.20498  1.0000
  Cd  Cd3       1.0  0.7813599999999999  0.7520899999999999  0.7950199999999997  1.0000
  Cd  Cd4       1.0  0.75265  0.7828  0.29586  1.0000
  H   H1        1.0  0.7814899999999999  0.28831999999999997  0.51361  1.0000
  H   H2        1.0  0.41218  0.14954  0.37663  1.0000
  H   H3        1.0  0.6202900000000001  0.8857600000000001  0.4214  1.0000
  H   H4        1.0  0.8225099999999999  0.9570299999999999  0.49735999999999997  1.0000
  H   H5        1.0  0.8549199999999999  0.09492  0.56384  1.0000
  H   H6        1.0  0.06905999999999998  0.25212  0.5708099999999999  1.0000
  H   H7        1.0  0.14071  0.23410999999999998  0.35154999999999986  1.0000
  H   H8        1.0  0.8960099999999999  0.05768999999999998  0.3605299999999999  1.0000
  H   H9        1.0  0.50361  0.37433999999999995  0.42106  1.0000
  H   H10       1.0  0.67228  0.44315  0.45135  1.0000
  H   H11       1.0  0.34936999999999985  0.2983199999999999  0.5232099999999997  1.0000
  H   H12       1.0  0.61933  0.49513  0.70773  1.0000
  H   H13       1.0  0.7478799999999999  0.51467  0.5846  1.0000
  H   H14       1.0  0.30352999999999997  0.8791099999999998  0.36713  1.0000
  H   H15       1.0  0.41825  0.80273  0.3486799999999999  1.0000
  H   H16       1.0  0.21138000000000004  0.97664  0.26741  1.0000
  H   H17       1.0  0.44633999999999996  0.9465799999999999  0.10527  1.0000
  H   H18       1.0  0.54571  0.8777  0.23291  1.0000
  H   H19       1.0  0.28728  0.78167  0.01308  1.0000
  H   H20       1.0  0.14973  0.41180999999999995  0.87718  1.0000
  H   H21       1.0  0.88491  0.61852  0.9204  1.0000
  H   H22       1.0  0.9555599999999999  0.8212299999999999  0.9953199999999999  1.0000
  H   H23       1.0  0.09221999999999998  0.85319  0.06278  1.0000
  H   H24       1.0  0.25099  0.06719  0.07044999999999997  1.0000
  H   H25       1.0  0.23333  0.14250999999999991  0.8514699999999997  1.0000
  H   H26       1.0  0.05638999999999992  0.89745  0.8596299999999998  1.0000
  H   H27       1.0  0.37442  0.50475  0.92127  1.0000
  H   H28       1.0  0.4425099999999999  0.6734199999999999  0.9518599999999999  1.0000
  H   H29       1.0  0.29762999999999995  0.34892  0.02332  1.0000
  H   H30       1.0  0.4977599999999999  0.61676  0.20783999999999997  1.0000
  H   H31       1.0  0.5164499999999999  0.7468899999999999  0.08488  1.0000
  H   H32       1.0  0.8796700000000001  0.30184  0.86689  1.0000
  H   H33       1.0  0.80279  0.4163199999999999  0.8479599999999999  1.0000
  H   H34       1.0  0.9759799999999998  0.20983  0.76737  1.0000
  H   H35       1.0  0.94994  0.44877  0.60573  1.0000
  H   H36       1.0  0.88053  0.54682  0.73299  1.0000
  H   H37       1.0  0.71271  0.21832  0.98692  1.0000
  H   H38       1.0  0.8502599999999999  0.58818  0.12281999999999997  1.0000
  H   H39       1.0  0.11508  0.38147  0.0796  1.0000
  H   H40       1.0  0.04443  0.17876  0.00468  1.0000
  H   H41       1.0  0.90777  0.14681  0.9372199999999999  1.0000
  H   H42       1.0  0.7489999999999999  0.93281  0.92955  1.0000
  H   H43       1.0  0.7666499999999999  0.85748  0.14853  1.0000
  H   H44       1.0  0.9436099999999998  0.10253999999999999  0.14036  1.0000
  H   H45       1.0  0.6255799999999999  0.49523999999999996  0.07873  1.0000
  H   H46       1.0  0.5574799999999998  0.32657  0.04814  1.0000
  H   H47       1.0  0.7023699999999999  0.65108  0.97668  1.0000
  H   H48       1.0  0.50223  0.38324  0.79216  1.0000
  H   H49       1.0  0.48353999999999997  0.25309999999999994  0.9151199999999999  1.0000
  H   H50       1.0  0.12032999999999995  0.69815  0.13311  1.0000
  H   H51       1.0  0.1972  0.58368  0.15203999999999995  1.0000
  H   H52       1.0  0.02400999999999998  0.79017  0.23263  1.0000
  H   H53       1.0  0.05006000000000003  0.55123  0.39427  1.0000
  H   H54       1.0  0.11945999999999998  0.45317  0.26701  1.0000
  H   H55       1.0  0.21850999999999998  0.7116799999999999  0.48638999999999993  1.0000
  H   H56       1.0  0.58781  0.85045  0.62337  1.0000
  H   H57       1.0  0.3796999999999999  0.11423  0.5786  1.0000
  H   H58       1.0  0.17748  0.04296000000000001  0.50264  1.0000
  H   H59       1.0  0.14508  0.90508  0.43616  1.0000
  H   H60       1.0  0.93093  0.74788  0.4291899999999999  1.0000
  H   H61       1.0  0.85928  0.76588  0.64845  1.0000
  H   H62       1.0  0.10398999999999997  0.9423  0.6394699999999999  1.0000
  H   H63       1.0  0.49638  0.62565  0.5789399999999998  1.0000
  H   H64       1.0  0.32771  0.55684  0.54865  1.0000
  H   H65       1.0  0.65062  0.70167  0.47679  1.0000
  H   H66       1.0  0.38066  0.50487  0.29227  1.0000
  H   H67       1.0  0.25212  0.48532  0.4154  1.0000
  H   H68       1.0  0.69646  0.12088999999999998  0.63287  1.0000
  H   H69       1.0  0.58174  0.19726000000000002  0.65132  1.0000
  H   H70       1.0  0.78861  0.023350000000000013  0.73259  1.0000
  H   H71       1.0  0.55366  0.05341999999999997  0.89473  1.0000
  H   H72       1.0  0.45428  0.12229999999999999  0.7670899999999999  1.0000
  C   C1        1.0  0.71446  0.08470999999999998  0.47096999999999994  1.0000
  C   C2        1.0  0.7041099999999999  0.20906999999999998  0.47997  1.0000
  C   C3        1.0  0.59517  0.23273  0.4465299999999999  1.0000
  C   C4        1.0  0.4960600000000001  0.13051  0.40349  1.0000
  C   C5        1.0  0.50446  0.005080000000000004  0.39427  1.0000
  C   C6        1.0  0.61366  0.98328  0.42842  1.0000
  C   C7        1.0  0.8347  0.06121  0.50514  1.0000
  C   C8        1.0  0.060820000000000006  0.22584  0.51236  1.0000
  C   C9        1.0  0.09144  0.21225  0.39915  1.0000
  C   C10       1.0  0.9698099999999998  0.12429999999999998  0.40192  1.0000
  C   C11       1.0  0.58288  0.36658999999999997  0.45908999999999994  1.0000
  C   C12       1.0  0.43971  0.34848  0.55904  1.0000
  C   C13       1.0  0.5819599999999999  0.45349  0.6517  1.0000
  C   C14       1.0  0.64858  0.4631799999999999  0.5921  1.0000
  C   C15       1.0  0.39780999999999994  0.89435  0.3473799999999999  1.0000
  C   C16       1.0  0.28629  0.95835  0.23855  1.0000
  C   C17       1.0  0.41023999999999994  0.94169  0.15746  1.0000
  C   C18       1.0  0.46149999999999997  0.9072099999999998  0.21986  1.0000
  C   C19       1.0  0.08374999999999995  0.7136  0.9702199999999999  1.0000
  C   C20       1.0  0.20827000000000004  0.70384  0.9795899999999998  1.0000
  C   C21       1.0  0.23239  0.59509  0.9466099999999998  1.0000
  C   C22       1.0  0.13040999999999994  0.49554999999999993  0.9036999999999998  1.0000
  C   C23       1.0  0.004829999999999959  0.5033099999999999  0.8941699999999999  1.0000
  C   C24       1.0  0.98255  0.61235  0.92779  1.0000
  C   C25       1.0  0.05965000000000002  0.83359  0.00392  1.0000
  C   C26       1.0  0.22480999999999998  0.0599  0.01199  1.0000
  C   C27       1.0  0.21136  0.0924  0.89889  1.0000
  C   C28       1.0  0.12309999999999999  0.97065  0.90127  1.0000
  C   C29       1.0  0.36642  0.58344  0.95937  1.0000
  C   C30       1.0  0.34851  0.43892  0.05918999999999999  1.0000
  C   C31       1.0  0.4552599999999999  0.5801399999999999  0.15185  1.0000
  C   C32       1.0  0.46451999999999993  0.64747  0.09232  1.0000
  C   C33       1.0  0.8945999999999998  0.39639  0.8471199999999999  1.0000
  C   C34       1.0  0.95864  0.28562999999999994  0.7385899999999999  1.0000
  C   C35       1.0  0.9441199999999998  0.41167  0.65776  1.0000
  C   C36       1.0  0.90942  0.46228  0.71995  1.0000
  C   C37       1.0  0.91624  0.28639  0.029779999999999997  1.0000
  C   C38       1.0  0.79172  0.29616  0.02041  1.0000
  C   C39       1.0  0.7676  0.4049  0.05339  1.0000
  C   C40       1.0  0.86959  0.50444  0.09629999999999997  1.0000
  C   C41       1.0  0.9951599999999999  0.49668999999999996  0.10583  1.0000
  C   C42       1.0  0.017440000000000008  0.38764  0.07220999999999997  1.0000
  C   C43       1.0  0.94035  0.16640999999999997  0.9960799999999999  1.0000
  C   C44       1.0  0.77518  0.9400899999999998  0.98801  1.0000
  C   C45       1.0  0.78863  0.9075899999999999  0.10111  1.0000
  C   C46       1.0  0.8769  0.029349999999999998  0.09873  1.0000
  C   C47       1.0  0.6335699999999999  0.4165499999999999  0.04063  1.0000
  C   C48       1.0  0.65148  0.56108  0.94081  1.0000
  C   C49       1.0  0.54474  0.41985  0.8481499999999998  1.0000
  C   C50       1.0  0.53547  0.35251999999999994  0.9076799999999999  1.0000
  C   C51       1.0  0.10539  0.60361  0.15288  1.0000
  C   C52       1.0  0.04134999999999997  0.71436  0.26141  1.0000
  C   C53       1.0  0.055879999999999985  0.58833  0.34224  1.0000
  C   C54       1.0  0.09057999999999998  0.53771  0.28005  1.0000
  C   C55       1.0  0.28553  0.91529  0.52903  1.0000
  C   C56       1.0  0.29588  0.79092  0.52003  1.0000
  C   C57       1.0  0.40482  0.76726  0.55347  1.0000
  C   C58       1.0  0.50393  0.86949  0.59651  1.0000
  C   C59       1.0  0.4955299999999999  0.99491  0.60573  1.0000
  C   C60       1.0  0.38634  0.016720000000000006  0.57158  1.0000
  C   C61       1.0  0.16529000000000002  0.9387799999999998  0.49486  1.0000
  C   C62       1.0  0.9391699999999998  0.7741500000000001  0.48764  1.0000
  C   C63       1.0  0.90856  0.7877499999999998  0.6008499999999998  1.0000
  C   C64       1.0  0.030179999999999936  0.8756899999999999  0.59808  1.0000
  C   C65       1.0  0.41711  0.63341  0.54091  1.0000
  C   C66       1.0  0.56028  0.6515099999999999  0.44096  1.0000
  C   C67       1.0  0.41802999999999996  0.5465  0.3483  1.0000
  C   C68       1.0  0.35140999999999994  0.5368099999999999  0.4078999999999999  1.0000
  C   C69       1.0  0.60218  0.10564999999999995  0.6526199999999999  1.0000
  C   C70       1.0  0.7137  0.041649999999999965  0.7614499999999998  1.0000
  C   C71       1.0  0.58975  0.0583  0.84254  1.0000
  C   C72       1.0  0.5385  0.09278  0.78014  1.0000
  N   N1        1.0  0.9515099999999999  0.13359000000000001  0.47449  1.0000
  N   N2        1.0  0.14789999999999998  0.27522  0.46817999999999993  1.0000
  N   N3        1.0  0.55677  0.3957  0.53347  1.0000
  N   N4        1.0  0.45167000000000007  0.38230000000000003  0.63065  1.0000
  N   N5        1.0  0.38093999999999995  0.9174499999999999  0.27126999999999996  1.0000
  N   N6        1.0  0.3004699999999999  0.9731499999999998  0.16935  1.0000
  N   N7        1.0  0.1323  0.95112  0.97375  1.0000
  N   N8        1.0  0.27441  0.14776  0.96808  1.0000
  N   N9        1.0  0.39594  0.55638  0.033699999999999994  1.0000
  N   N10       1.0  0.38321999999999995  0.45002  0.13075  1.0000
  N   N11       1.0  0.91822  0.38038999999999995  0.77119  1.0000
  N   N12       1.0  0.97433  0.30095  0.66961  1.0000
  N   N13       1.0  0.8676899999999999  0.04888  0.026249999999999992  1.0000
  N   N14       1.0  0.7255799999999999  0.85223  0.03192  1.0000
  N   N15       1.0  0.60405  0.44361  0.9663  1.0000
  N   N16       1.0  0.61677  0.54997  0.86925  1.0000
  N   N17       1.0  0.08177  0.6196  0.22880999999999999  1.0000
  N   N18       1.0  0.02565999999999997  0.69905  0.33039  1.0000
  N   N19       1.0  0.04848999999999997  0.8664099999999999  0.52551  1.0000
  N   N20       1.0  0.85209  0.72478  0.53182  1.0000
  N   N21       1.0  0.44322  0.60429  0.46653  1.0000
  N   N22       1.0  0.54832  0.6176899999999999  0.36934999999999996  1.0000
  N   N23       1.0  0.61906  0.08254999999999997  0.72873  1.0000
  N   N24       1.0  0.69952  0.02684000000000001  0.83065  1.0000
