data_image0
_chemical_formula_structural       In4H48C88O20
_chemical_formula_sum              "In4 H48 C88 O20"
_cell_length_a       14.51205
_cell_length_b       16.388250000000003
_cell_length_c       15.98111
_cell_angle_alpha    90.0
_cell_angle_beta     90.0
_cell_angle_gamma    104.80156

_symmetry_space_group_name_H-M    'P 1'
_symmetry_Int_Tables_number       1

loop_
  _symmetry_equiv_pos_as_xyz
  'x,y,z'

loop_
  _atom_site_type_symbol
  _atom_site_label
  _atom_site_symmetry_multiplicity
  _atom_site_fract_x
  _atom_site_fract_y
  _atom_site_fract_z
  _atom_site_occupancy
  In  In1       1.0  0.5000000000000002  0.5  0.0  1.0000
  In  In2       1.0  0.0  0.5  0.0  1.0000
  In  In3       1.0  0.75  0.5  0.99814  1.0000
  In  In4       1.0  0.25  0.5  0.00186  1.0000
  H   H1        1.0  0.69225  0.71017  0.5003  1.0000
  H   H2        1.0  0.73397  0.92262  0.71333  1.0000
  H   H3        1.0  0.73275  0.92255  0.287  1.0000
  H   H4        1.0  0.8047799999999998  0.64169  0.76923  1.0000
  H   H5        1.0  0.8317299999999999  0.7334  0.64186  1.0000
  H   H6        1.0  0.5640800000000002  0.79389  0.68466  1.0000
  H   H7        1.0  0.53579  0.69908  0.80942  1.0000
  H   H8        1.0  0.81141  0.6458  0.23198  1.0000
  H   H9        1.0  0.83412  0.73726  0.3591  1.0000
  H   H10       1.0  0.56204  0.78874  0.31527  1.0000
  H   H11       1.0  0.53764  0.69357  0.19054  1.0000
  H   H12       1.0  0.09384  0.3881  0.95773  1.0000
  H   H13       1.0  0.8077500000000002  0.28982  0.5003  1.0000
  H   H14       1.0  0.7660300000000002  0.07737  0.71333  1.0000
  H   H15       1.0  0.76725  0.07744  0.287  1.0000
  H   H16       1.0  0.69522  0.3583  0.76923  1.0000
  H   H17       1.0  0.66827  0.2666  0.64186  1.0000
  H   H18       1.0  0.93592  0.20611  0.68466  1.0000
  H   H19       1.0  0.9642  0.30092  0.80942  1.0000
  H   H20       1.0  0.68859  0.3542  0.23198  1.0000
  H   H21       1.0  0.6658799999999999  0.2627299999999999  0.3591  1.0000
  H   H22       1.0  0.93795  0.21126  0.31527  1.0000
  H   H23       1.0  0.96235  0.30642  0.19054  1.0000
  H   H24       1.0  0.40616  0.61189  0.95773  1.0000
  H   H25       1.0  0.30775  0.28982  0.4997  1.0000
  H   H26       1.0  0.26603  0.07737  0.28666  1.0000
  H   H27       1.0  0.26725  0.07744  0.713  1.0000
  H   H28       1.0  0.19522  0.3583  0.23077  1.0000
  H   H29       1.0  0.16827  0.2666  0.35813  1.0000
  H   H30       1.0  0.43592  0.20611  0.31534  1.0000
  H   H31       1.0  0.4642  0.30092  0.19058  1.0000
  H   H32       1.0  0.18859  0.3542  0.76801  1.0000
  H   H33       1.0  0.16588  0.2627299999999999  0.6409  1.0000
  H   H34       1.0  0.43795  0.21126  0.68473  1.0000
  H   H35       1.0  0.46235  0.30642  0.80945  1.0000
  H   H36       1.0  0.90616  0.61189  0.04226  1.0000
  H   H37       1.0  0.19225  0.71017  0.4997  1.0000
  H   H38       1.0  0.23397000000000004  0.92262  0.28666  1.0000
  H   H39       1.0  0.23275000000000004  0.92255  0.713  1.0000
  H   H40       1.0  0.30478  0.64169  0.23077  1.0000
  H   H41       1.0  0.33173  0.7334  0.35813  1.0000
  H   H42       1.0  0.06407999999999998  0.79389  0.31534  1.0000
  H   H43       1.0  0.03579  0.69908  0.19058  1.0000
  H   H44       1.0  0.31141  0.6458  0.76801  1.0000
  H   H45       1.0  0.33412  0.73726  0.6409  1.0000
  H   H46       1.0  0.062040000000000005  0.78874  0.68473  1.0000
  H   H47       1.0  0.037650000000000024  0.69357  0.80945  1.0000
  H   H48       1.0  0.59384  0.3881  0.04226  1.0000
  C   C1        1.0  0.65189  0.60776  0.87124  1.0000
  C   C2        1.0  0.65883  0.60752  0.12869  1.0000
  C   C3        1.0  0.66874  0.6649  0.79693  1.0000
  C   C4        1.0  0.67353  0.6645  0.20331  1.0000
  C   C5        1.0  0.75247  0.67501  0.74977  1.0000
  C   C6        1.0  0.75726  0.67728  0.2508  1.0000
  C   C7        1.0  0.76719  0.72624  0.67886  1.0000
  C   C8        1.0  0.76962  0.72834  0.32177  1.0000
  C   C9        1.0  0.69969  0.7698  0.65473  1.0000
  C   C10       1.0  0.69978  0.76943  0.34557  1.0000
  C   C11       1.0  0.61678  0.76061  0.70321  1.0000
  C   C12       1.0  0.61664  0.75746  0.2969  1.0000
  C   C13       1.0  0.60087  0.70792  0.773  1.0000
  C   C14       1.0  0.60292  0.70464  0.22711  1.0000
  C   C15       1.0  0.71328  0.82095  0.57681  1.0000
  C   C16       1.0  0.71254  0.82083  0.4234300000000001  1.0000
  C   C17       1.0  0.73058  0.91  0.57795  1.0000
  C   C18       1.0  0.72997  0.90992  0.42233  1.0000
  C   C19       1.0  0.7408700000000001  0.95697  0.65448  1.0000
  C   C20       1.0  0.7402800000000002  0.95693  0.34584  1.0000
  C   C21       1.0  0.70658  0.77865  0.50014  1.0000
  C   C22       1.0  0.7401  0.95494  0.50014  1.0000
  C   C23       1.0  0.8481  0.39224  0.87124  1.0000
  C   C24       1.0  0.8411700000000001  0.39248  0.12869  1.0000
  C   C25       1.0  0.83125  0.3351  0.79693  1.0000
  C   C26       1.0  0.82647  0.3355  0.20331  1.0000
  C   C27       1.0  0.7475200000000001  0.32499  0.74977  1.0000
  C   C28       1.0  0.74273  0.32271  0.2508  1.0000
  C   C29       1.0  0.73281  0.27376  0.67886  1.0000
  C   C30       1.0  0.7303700000000002  0.27165  0.32177  1.0000
  C   C31       1.0  0.8003  0.2302  0.65473  1.0000
  C   C32       1.0  0.80022  0.23056  0.34557  1.0000
  C   C33       1.0  0.8832100000000002  0.23938  0.70321  1.0000
  C   C34       1.0  0.8833600000000003  0.24253  0.29691  1.0000
  C   C35       1.0  0.89913  0.29208  0.773  1.0000
  C   C36       1.0  0.89708  0.29535  0.22711  1.0000
  C   C37       1.0  0.78672  0.17905  0.57681  1.0000
  C   C38       1.0  0.78745  0.17916  0.4234300000000001  1.0000
  C   C39       1.0  0.7694200000000001  0.09  0.57795  1.0000
  C   C40       1.0  0.77003  0.09008  0.42233  1.0000
  C   C41       1.0  0.75913  0.04302  0.65448  1.0000
  C   C42       1.0  0.75972  0.04306  0.34584  1.0000
  C   C43       1.0  0.79342  0.22134  0.50014  1.0000
  C   C44       1.0  0.75989  0.04506  0.50014  1.0000
  C   C45       1.0  0.3481000000000001  0.39224  0.12876  1.0000
  C   C46       1.0  0.34117  0.39248  0.8713  1.0000
  C   C47       1.0  0.33126  0.3351  0.20306  1.0000
  C   C48       1.0  0.32647  0.3355  0.79669  1.0000
  C   C49       1.0  0.24753  0.32499  0.25022  1.0000
  C   C50       1.0  0.24273999999999998  0.32271  0.7492  1.0000
  C   C51       1.0  0.23280999999999996  0.27376  0.3211400000000001  1.0000
  C   C52       1.0  0.23037  0.27165  0.67823  1.0000
  C   C53       1.0  0.3003100000000001  0.2302  0.3452600000000001  1.0000
  C   C54       1.0  0.30022  0.23056  0.65442  1.0000
  C   C55       1.0  0.38321  0.23938  0.29679  1.0000
  C   C56       1.0  0.38336  0.24253  0.7030900000000002  1.0000
  C   C57       1.0  0.39913  0.29208  0.227  1.0000
  C   C58       1.0  0.39708  0.29535  0.77288  1.0000
  C   C59       1.0  0.28672  0.17905  0.42319  1.0000
  C   C60       1.0  0.28745  0.17916  0.57657  1.0000
  C   C61       1.0  0.26942  0.09  0.42204000000000014  1.0000
  C   C62       1.0  0.27003  0.09008  0.57767  1.0000
  C   C63       1.0  0.25913  0.04302  0.34552  1.0000
  C   C64       1.0  0.25972  0.04306  0.65416  1.0000
  C   C65       1.0  0.29342  0.22134  0.49986  1.0000
  C   C66       1.0  0.2599  0.04506  0.49986  1.0000
  C   C67       1.0  0.15189000000000002  0.60776  0.12876  1.0000
  C   C68       1.0  0.15883  0.60752  0.8713  1.0000
  C   C69       1.0  0.16874  0.6649  0.20306  1.0000
  C   C70       1.0  0.17353000000000002  0.6645  0.79669  1.0000
  C   C71       1.0  0.25247  0.67501  0.25022  1.0000
  C   C72       1.0  0.25726  0.67728  0.7492  1.0000
  C   C73       1.0  0.26719  0.72624  0.3211400000000001  1.0000
  C   C74       1.0  0.26961999999999997  0.72834  0.67823  1.0000
  C   C75       1.0  0.19969  0.7698  0.3452600000000001  1.0000
  C   C76       1.0  0.19978  0.76943  0.65442  1.0000
  C   C77       1.0  0.11678000000000001  0.76061  0.29679  1.0000
  C   C78       1.0  0.11663999999999997  0.75746  0.7030900000000002  1.0000
  C   C79       1.0  0.10087  0.70792  0.227  1.0000
  C   C80       1.0  0.10292  0.70464  0.77288  1.0000
  C   C81       1.0  0.21328000000000003  0.82095  0.42319  1.0000
  C   C82       1.0  0.21254  0.82083  0.57657  1.0000
  C   C83       1.0  0.23058  0.91  0.42204000000000014  1.0000
  C   C84       1.0  0.22997  0.90992  0.57767  1.0000
  C   C85       1.0  0.24087  0.95697  0.34552  1.0000
  C   C86       1.0  0.24028000000000005  0.95693  0.65416  1.0000
  C   C87       1.0  0.20658  0.77865  0.49986  1.0000
  C   C88       1.0  0.2401  0.95494  0.49986  1.0000
  O   O1        1.0  0.3948  0.57168  0.003800000000000001  1.0000
  O   O2        1.0  0.56873  0.59166  0.9043  1.0000
  O   O3        1.0  0.73232  0.58736  0.09973  1.0000
  O   O4        1.0  0.72152  0.57954  0.89538  1.0000
  O   O5        1.0  0.57404  0.5837  0.10048000000000003  1.0000
  O   O6        1.0  0.1052  0.42832  0.003800000000000001  1.0000
  O   O7        1.0  0.93127  0.40834  0.9043  1.0000
  O   O8        1.0  0.76768  0.41263  0.09973  1.0000
  O   O9        1.0  0.77848  0.42046  0.89538  1.0000
  O   O10       1.0  0.92595  0.41629  0.10048000000000003  1.0000
  O   O11       1.0  0.6052000000000001  0.42832  0.9962  1.0000
  O   O12       1.0  0.43127000000000004  0.40834  0.09569  1.0000
  O   O13       1.0  0.26768  0.41263  0.90026  1.0000
  O   O14       1.0  0.27848  0.42046  0.10461  1.0000
  O   O15       1.0  0.42595  0.41629  0.8995200000000002  1.0000
  O   O16       1.0  0.8948  0.57168  0.9962  1.0000
  O   O17       1.0  0.06873000000000003  0.59166  0.09569  1.0000
  O   O18       1.0  0.23232  0.58736  0.90026  1.0000
  O   O19       1.0  0.22152  0.57954  0.10461  1.0000
  O   O20       1.0  0.07405  0.5837  0.8995200000000002  1.0000
