data_image0
_chemical_formula_structural       Ni8H72C80N8O40
_chemical_formula_sum              "Ni8 H72 C80 N8 O40"
_cell_length_a       9.73581
_cell_length_b       10.53833
_cell_length_c       23.75432
_cell_angle_alpha    90.0
_cell_angle_beta     90.0
_cell_angle_gamma    90.0

_symmetry_space_group_name_H-M    'P 1'
_symmetry_Int_Tables_number       1

loop_
  _symmetry_equiv_pos_as_xyz
  'x,y,z'

loop_
  _atom_site_type_symbol
  _atom_site_label
  _atom_site_symmetry_multiplicity
  _atom_site_fract_x
  _atom_site_fract_y
  _atom_site_fract_z
  _atom_site_occupancy
  Ni  Ni1       1.0  0.38663999999999993  0.49389000000000005  0.7896800000000003  1.0000
  Ni  Ni2       1.0  0.35742  0.00213  0.71211  1.0000
  Ni  Ni3       1.0  0.61336  0.49389000000000005  0.21033000000000004  1.0000
  Ni  Ni4       1.0  0.6425799999999999  0.00213  0.2879  1.0000
  Ni  Ni5       1.0  0.88664  0.50611  0.71033  1.0000
  Ni  Ni6       1.0  0.8574199999999998  0.9978699999999999  0.7879000000000003  1.0000
  Ni  Ni7       1.0  0.11336  0.50611  0.28968  1.0000
  Ni  Ni8       1.0  0.14258  0.9978699999999999  0.21210000000000007  1.0000
  H   H1        1.0  0.25039  0.40541000000000005  0.64387  1.0000
  H   H2        1.0  0.1995  0.52073  0.7248400000000002  1.0000
  H   H3        1.0  0.45454999999999995  0.52672  0.61882  1.0000
  H   H4        1.0  0.4960399999999999  0.3633  0.62038  1.0000
  H   H5        1.0  0.4262  0.08027  0.86795  1.0000
  H   H6        1.0  0.31461  0.15894  0.78952  1.0000
  H   H7        1.0  0.29173  0.87816  0.8650300000000001  1.0000
  H   H8        1.0  0.47036  0.8550999999999999  0.8771200000000001  1.0000
  H   H9        1.0  0.47254999999999997  0.60132  0.90109  1.0000
  H   H10       1.0  0.62131  0.53421  0.9823900000000001  1.0000
  H   H11       1.0  0.6853999999999999  0.17869  0.89414  1.0000
  H   H12       1.0  0.54684  0.26583  0.8171500000000003  1.0000
  H   H13       1.0  0.7629  0.38014  0.02739  1.0000
  H   H14       1.0  0.76035  0.11215  0.9756800000000002  1.0000
  H   H15       1.0  0.01933  0.8807099999999999  0.10982  1.0000
  H   H16       1.0  0.86679  0.947  0.029980000000000003  1.0000
  H   H17       1.0  0.8879799999999999  0.32915  0.09580000000000002  1.0000
  H   H18       1.0  0.04379  0.24718  0.17036  1.0000
  H   H19       1.0  0.7496099999999999  0.40541000000000005  0.3561300000000001  1.0000
  H   H20       1.0  0.8005  0.52073  0.27516  1.0000
  H   H21       1.0  0.54545  0.52672  0.38118  1.0000
  H   H22       1.0  0.50396  0.3633  0.37962  1.0000
  H   H23       1.0  0.5738  0.08027  0.13205  1.0000
  H   H24       1.0  0.6853999999999999  0.15894  0.21048000000000003  1.0000
  H   H25       1.0  0.70827  0.87816  0.13497  1.0000
  H   H26       1.0  0.52964  0.8550999999999999  0.12288  1.0000
  H   H27       1.0  0.52745  0.60132  0.09891  1.0000
  H   H28       1.0  0.37869  0.53421  0.01761  1.0000
  H   H29       1.0  0.31461  0.17869  0.10586000000000001  1.0000
  H   H30       1.0  0.45316  0.26583  0.18285000000000007  1.0000
  H   H31       1.0  0.2371  0.38014  0.9726100000000002  1.0000
  H   H32       1.0  0.23965  0.11215  0.024320000000000005  1.0000
  H   H33       1.0  0.98067  0.8807099999999999  0.89018  1.0000
  H   H34       1.0  0.13321  0.947  0.97002  1.0000
  H   H35       1.0  0.11201999999999998  0.32915  0.9042  1.0000
  H   H36       1.0  0.9562099999999999  0.24718  0.8296500000000002  1.0000
  H   H37       1.0  0.75039  0.59459  0.85613  1.0000
  H   H38       1.0  0.69951  0.47926  0.77516  1.0000
  H   H39       1.0  0.95455  0.47328  0.8811900000000003  1.0000
  H   H40       1.0  0.99604  0.6367  0.8796200000000002  1.0000
  H   H41       1.0  0.9262  0.91973  0.6320500000000001  1.0000
  H   H42       1.0  0.8146099999999998  0.8410599999999999  0.71049  1.0000
  H   H43       1.0  0.79173  0.12183000000000001  0.6349700000000001  1.0000
  H   H44       1.0  0.9703699999999998  0.1449  0.62288  1.0000
  H   H45       1.0  0.97255  0.3986799999999999  0.5989200000000001  1.0000
  H   H46       1.0  0.12131  0.4657899999999999  0.5176100000000001  1.0000
  H   H47       1.0  0.18539  0.8213100000000001  0.60586  1.0000
  H   H48       1.0  0.04684  0.73416  0.68285  1.0000
  H   H49       1.0  0.2629  0.61986  0.4726100000000001  1.0000
  H   H50       1.0  0.26035  0.88785  0.52432  1.0000
  H   H51       1.0  0.51933  0.11929  0.39018000000000014  1.0000
  H   H52       1.0  0.36679  0.05299  0.4700200000000001  1.0000
  H   H53       1.0  0.38798  0.67084  0.4042000000000001  1.0000
  H   H54       1.0  0.54379  0.75282  0.32964000000000004  1.0000
  H   H55       1.0  0.24961  0.59459  0.14387000000000003  1.0000
  H   H56       1.0  0.3005  0.47926  0.22484000000000004  1.0000
  H   H57       1.0  0.04545  0.47328  0.11882000000000001  1.0000
  H   H58       1.0  0.00396  0.6367  0.12038000000000001  1.0000
  H   H59       1.0  0.0738  0.91973  0.36795  1.0000
  H   H60       1.0  0.18539  0.8410599999999999  0.28952  1.0000
  H   H61       1.0  0.20826999999999998  0.12184  0.36503  1.0000
  H   H62       1.0  0.029639999999999996  0.1449  0.37712  1.0000
  H   H63       1.0  0.027450000000000002  0.3986799999999999  0.4010900000000001  1.0000
  H   H64       1.0  0.87869  0.4657899999999999  0.48239  1.0000
  H   H65       1.0  0.8146099999999998  0.8213100000000001  0.3941400000000001  1.0000
  H   H66       1.0  0.95316  0.73416  0.31715  1.0000
  H   H67       1.0  0.7371  0.61986  0.5274  1.0000
  H   H68       1.0  0.73965  0.88785  0.47568000000000005  1.0000
  H   H69       1.0  0.48066999999999993  0.11929  0.60982  1.0000
  H   H70       1.0  0.63321  0.05299  0.52998  1.0000
  H   H71       1.0  0.61203  0.67084  0.5958  1.0000
  H   H72       1.0  0.45620999999999995  0.75282  0.67036  1.0000
  C   C1        1.0  0.33509  0.29379  0.70983  1.0000
  C   C2        1.0  0.33032  0.41787  0.67606  1.0000
  C   C3        1.0  0.46692  0.4445  0.64683  1.0000
  C   C4        1.0  0.5876  0.47169  0.68579  1.0000
  C   C5        1.0  0.55631  0.03457  0.7971800000000001  1.0000
  C   C6        1.0  0.41978  0.02257  0.8294300000000002  1.0000
  C   C7        1.0  0.39428  0.8846099999999999  0.84572  1.0000
  C   C8        1.0  0.39613  0.78734  0.7979300000000003  1.0000
  C   C9        1.0  0.52122  0.50845  0.9028  1.0000
  C   C10       1.0  0.60391  0.47005  0.94724  1.0000
  C   C11       1.0  0.66266  0.34774  0.94762  1.0000
  C   C12       1.0  0.6407  0.27262  0.89946  1.0000
  C   C13       1.0  0.56098  0.31948  0.8557700000000001  1.0000
  C   C14       1.0  0.74143  0.30646  0.9963700000000001  1.0000
  C   C15       1.0  0.78515  0.18629  0.006070000000000002  1.0000
  C   C16       1.0  0.98894  0.9792299999999999  0.10389000000000001  1.0000
  C   C17       1.0  0.90377  0.0171  0.06003  1.0000
  C   C18       1.0  0.86683  0.1457  0.05418  1.0000
  C   C19       1.0  0.9164  0.22929999999999998  0.09569000000000001  1.0000
  C   C20       1.0  0.00236  0.18495  0.13789  1.0000
  C   C21       1.0  0.66491  0.29379  0.29017  1.0000
  C   C22       1.0  0.66968  0.41787  0.32394000000000006  1.0000
  C   C23       1.0  0.53308  0.4445  0.3531700000000001  1.0000
  C   C24       1.0  0.4124  0.47169  0.31422  1.0000
  C   C25       1.0  0.44369  0.03457  0.20283  1.0000
  C   C26       1.0  0.58023  0.02257  0.17057  1.0000
  C   C27       1.0  0.60573  0.8846099999999999  0.15428000000000003  1.0000
  C   C28       1.0  0.60387  0.78734  0.20207  1.0000
  C   C29       1.0  0.47877999999999993  0.50845  0.0972  1.0000
  C   C30       1.0  0.39609  0.47005  0.05276  1.0000
  C   C31       1.0  0.33735  0.34774  0.05238  1.0000
  C   C32       1.0  0.3593  0.27262  0.10054000000000003  1.0000
  C   C33       1.0  0.43901999999999997  0.31948  0.14423  1.0000
  C   C34       1.0  0.25857  0.30646  0.00363  1.0000
  C   C35       1.0  0.21485999999999997  0.18629  0.9939400000000003  1.0000
  C   C36       1.0  0.01106  0.9792299999999999  0.8961200000000001  1.0000
  C   C37       1.0  0.09622999999999998  0.0171  0.9399800000000001  1.0000
  C   C38       1.0  0.13317  0.1457  0.94583  1.0000
  C   C39       1.0  0.08359999999999998  0.22929999999999998  0.9043100000000001  1.0000
  C   C40       1.0  0.99764  0.18495  0.8621100000000003  1.0000
  C   C41       1.0  0.83509  0.70621  0.7901700000000002  1.0000
  C   C42       1.0  0.8303199999999998  0.58213  0.8239400000000001  1.0000
  C   C43       1.0  0.96692  0.5555  0.85318  1.0000
  C   C44       1.0  0.0876  0.52831  0.8142200000000003  1.0000
  C   C45       1.0  0.056310000000000006  0.96543  0.7028300000000002  1.0000
  C   C46       1.0  0.91978  0.97743  0.67058  1.0000
  C   C47       1.0  0.8942799999999999  0.11539  0.6542800000000001  1.0000
  C   C48       1.0  0.89613  0.21266  0.70207  1.0000
  C   C49       1.0  0.02122  0.49155  0.5972000000000001  1.0000
  C   C50       1.0  0.10391  0.52995  0.55276  1.0000
  C   C51       1.0  0.16266  0.65226  0.5523800000000001  1.0000
  C   C52       1.0  0.1407  0.72738  0.60054  1.0000
  C   C53       1.0  0.06098  0.68052  0.64424  1.0000
  C   C54       1.0  0.24143  0.69354  0.50363  1.0000
  C   C55       1.0  0.28514  0.81371  0.49393  1.0000
  C   C56       1.0  0.48893999999999993  0.02077  0.39612  1.0000
  C   C57       1.0  0.40376999999999996  0.98289  0.43998  1.0000
  C   C58       1.0  0.36683  0.8543  0.44582  1.0000
  C   C59       1.0  0.4164  0.7707  0.4043100000000001  1.0000
  C   C60       1.0  0.50236  0.8150499999999999  0.36211  1.0000
  C   C61       1.0  0.16491  0.70621  0.20983000000000004  1.0000
  C   C62       1.0  0.16968  0.58213  0.17606  1.0000
  C   C63       1.0  0.03308  0.5555  0.14683000000000002  1.0000
  C   C64       1.0  0.9124100000000002  0.52831  0.18578000000000003  1.0000
  C   C65       1.0  0.94369  0.96543  0.29717000000000005  1.0000
  C   C66       1.0  0.08022  0.97743  0.32943000000000006  1.0000
  C   C67       1.0  0.10572  0.11539  0.34572  1.0000
  C   C68       1.0  0.10387  0.21266  0.29793  1.0000
  C   C69       1.0  0.9787799999999999  0.49155  0.40280000000000005  1.0000
  C   C70       1.0  0.89609  0.52995  0.4472400000000001  1.0000
  C   C71       1.0  0.8373500000000001  0.65226  0.44762  1.0000
  C   C72       1.0  0.8592999999999998  0.72738  0.39946  1.0000
  C   C73       1.0  0.93902  0.68052  0.35577000000000003  1.0000
  C   C74       1.0  0.75857  0.69354  0.49637  1.0000
  C   C75       1.0  0.71486  0.81371  0.50607  1.0000
  C   C76       1.0  0.51106  0.02077  0.60389  1.0000
  C   C77       1.0  0.59623  0.9829  0.56003  1.0000
  C   C78       1.0  0.63318  0.8543  0.5541800000000001  1.0000
  C   C79       1.0  0.58361  0.7707  0.5957  1.0000
  C   C80       1.0  0.49764  0.8150499999999999  0.63789  1.0000
  N   N1        1.0  0.49845999999999996  0.43397  0.85742  1.0000
  N   N2        1.0  0.04033  0.06167  0.1419  1.0000
  N   N3        1.0  0.50154  0.4339799999999999  0.14258  1.0000
  N   N4        1.0  0.9596699999999999  0.06167  0.8581000000000002  1.0000
  N   N5        1.0  0.9984599999999999  0.56602  0.64258  1.0000
  N   N6        1.0  0.54034  0.93833  0.35810000000000003  1.0000
  N   N7        1.0  0.00154  0.56602  0.3574200000000001  1.0000
  N   N8        1.0  0.45966999999999997  0.93833  0.64191  1.0000
  O   O1        1.0  0.33336  0.30257  0.76381  1.0000
  O   O2        1.0  0.3399  0.19314  0.68126  1.0000
  O   O3        1.0  0.29806  0.52593  0.7102000000000002  1.0000
  O   O4        1.0  0.5691  0.47426000000000007  0.73931  1.0000
  O   O5        1.0  0.7027  0.48867999999999995  0.6622  1.0000
  O   O6        1.0  0.5492699999999999  0.049729999999999996  0.7444100000000001  1.0000
  O   O7        1.0  0.66599  0.026539999999999998  0.82629  1.0000
  O   O8        1.0  0.30575  0.0648  0.79577  1.0000
  O   O9        1.0  0.36845  0.8175299999999999  0.7475900000000001  1.0000
  O   O10       1.0  0.42397999999999997  0.67514  0.81516  1.0000
  O   O11       1.0  0.66665  0.30257  0.2362  1.0000
  O   O12       1.0  0.66011  0.19314  0.3187400000000001  1.0000
  O   O13       1.0  0.7019399999999999  0.52593  0.2898  1.0000
  O   O14       1.0  0.4309  0.47426000000000007  0.2607  1.0000
  O   O15       1.0  0.2973  0.48867999999999995  0.33781  1.0000
  O   O16       1.0  0.45074  0.049729999999999996  0.2556  1.0000
  O   O17       1.0  0.33401  0.026539999999999998  0.17371  1.0000
  O   O18       1.0  0.6942499999999999  0.0648  0.20423000000000002  1.0000
  O   O19       1.0  0.63155  0.8175299999999999  0.25241  1.0000
  O   O20       1.0  0.57602  0.67514  0.18484  1.0000
  O   O21       1.0  0.8333599999999999  0.69742  0.7362  1.0000
  O   O22       1.0  0.8399  0.80686  0.8187400000000002  1.0000
  O   O23       1.0  0.7980699999999998  0.47407  0.7898  1.0000
  O   O24       1.0  0.0691  0.52574  0.7607000000000002  1.0000
  O   O25       1.0  0.2027  0.51132  0.8378100000000002  1.0000
  O   O26       1.0  0.04926  0.95026  0.7556000000000002  1.0000
  O   O27       1.0  0.16598999999999997  0.9734599999999999  0.67372  1.0000
  O   O28       1.0  0.80575  0.9352  0.7042300000000002  1.0000
  O   O29       1.0  0.8684500000000002  0.18246  0.75241  1.0000
  O   O30       1.0  0.9239799999999999  0.32486  0.6848400000000001  1.0000
  O   O31       1.0  0.16663999999999998  0.69742  0.26381  1.0000
  O   O32       1.0  0.16011  0.80686  0.18126  1.0000
  O   O33       1.0  0.20194  0.47407  0.21020000000000003  1.0000
  O   O34       1.0  0.9309000000000001  0.52574  0.23930000000000004  1.0000
  O   O35       1.0  0.7973  0.51132  0.16219  1.0000
  O   O36       1.0  0.95074  0.95026  0.24440000000000006  1.0000
  O   O37       1.0  0.83401  0.9734599999999999  0.32629  1.0000
  O   O38       1.0  0.19424999999999998  0.9352  0.29577000000000003  1.0000
  O   O39       1.0  0.13155  0.18247  0.24759  1.0000
  O   O40       1.0  0.07602  0.32486  0.31516000000000005  1.0000
