data_image0
_chemical_formula_structural       Cu8P12H44C64N8O36
_chemical_formula_sum              "Cu8 P12 H44 C64 N8 O36"
_cell_length_a       9.13797
_cell_length_b       15.03005
_cell_length_c       14.93135
_cell_angle_alpha    90.32141
_cell_angle_beta     89.59017
_cell_angle_gamma    108.16845

_symmetry_space_group_name_H-M    'P 1'
_symmetry_Int_Tables_number       1

loop_
  _symmetry_equiv_pos_as_xyz
  'x,y,z'

loop_
  _atom_site_type_symbol
  _atom_site_label
  _atom_site_symmetry_multiplicity
  _atom_site_fract_x
  _atom_site_fract_y
  _atom_site_fract_z
  _atom_site_occupancy
  Cu  Cu1       1.0  0.87678  0.86098  0.10253  1.0000
  Cu  Cu2       1.0  0.62417  0.13455  0.5991300000000002  1.0000
  Cu  Cu3       1.0  0.5164400000000001  0.14078000000000004  0.3898300000000001  1.0000
  Cu  Cu4       1.0  0.99582  0.8597800000000001  0.89193  1.0000
  Cu  Cu5       1.0  0.13721000000000003  0.13909  0.89058  1.0000
  Cu  Cu6       1.0  0.36314000000000013  0.8577500000000002  0.38539  1.0000
  Cu  Cu7       1.0  0.4829900000000001  0.85987  0.59716  1.0000
  Cu  Cu8       1.0  0.008180000000000031  0.14279000000000006  0.10464  1.0000
  P   P1        1.0  0.03393000000000001  0.81026  0.27367  1.0000
  P   P2        1.0  0.46658  0.18598000000000006  0.77378  1.0000
  P   P3        1.0  0.7255  0.19349000000000002  0.21827  1.0000
  P   P4        1.0  0.77872  0.80794  0.7230200000000002  1.0000
  P   P5        1.0  0.96847  0.18748000000000006  0.72189  1.0000
  P   P6        1.0  0.5353800000000002  0.8134500000000002  0.21583000000000005  1.0000
  P   P7        1.0  0.27709  0.80854  0.7733500000000002  1.0000
  P   P8        1.0  0.22529  0.1904  0.2730900000000001  1.0000
  P   P9        1.0  0.67717  0.99896  0.45200000000000007  1.0000
  P   P10       1.0  0.81851  0.99934  0.96036  1.0000
  P   P11       1.0  0.18254  0.00207  0.03861  1.0000
  P   P12       1.0  0.31045000000000006  0.99914  0.52891  1.0000
  H   H1        1.0  0.78282  0.8482400000000001  0.37761  1.0000
  H   H2        1.0  0.46295000000000003  0.62419  0.91913  1.0000
  H   H3        1.0  0.63748  0.77629  0.96759  1.0000
  H   H4        1.0  0.82469  0.65911  0.16854  1.0000
  H   H5        1.0  0.65722  0.4990000000000001  0.13049  1.0000
  H   H6        1.0  0.7103  0.14941  0.88798  1.0000
  H   H7        1.0  0.07318999999999999  0.36772  0.42738  1.0000
  H   H8        1.0  0.90506  0.21552000000000002  0.48132  1.0000
  H   H9        1.0  0.65518  0.33634  0.6454400000000002  1.0000
  H   H10       1.0  0.80764  0.4961700000000001  0.59849  1.0000
  H   H11       1.0  0.43888999999999995  0.15389  0.11359000000000001  1.0000
  H   H12       1.0  0.34630000000000005  0.3757800000000001  0.5762300000000002  1.0000
  H   H13       1.0  0.36932  0.22443  0.52829  1.0000
  H   H14       1.0  0.6656599999999999  0.34229  0.32018  1.0000
  H   H15       1.0  0.65896  0.5018  0.35874  1.0000
  H   H16       1.0  0.056020000000000014  0.84758  0.6064300000000002  1.0000
  H   H17       1.0  0.19882  0.63197  0.0668  1.0000
  H   H18       1.0  0.1828  0.78308  0.013770000000000003  1.0000
  H   H19       1.0  0.82018  0.6588  0.84491  1.0000
  H   H20       1.0  0.8144100000000001  0.49988000000000005  0.8906500000000002  1.0000
  H   H21       1.0  0.20262  0.15001  0.60199  1.0000
  H   H22       1.0  0.56369  0.36993  0.0704  1.0000
  H   H23       1.0  0.39716  0.21809  0.015230000000000004  1.0000
  H   H24       1.0  0.16114000000000006  0.33917000000000014  0.84488  1.0000
  H   H25       1.0  0.31525  0.49901  0.89162  1.0000
  H   H26       1.0  0.28892  0.85149  0.11058000000000003  1.0000
  H   H27       1.0  0.9607300000000001  0.62121  0.57563  1.0000
  H   H28       1.0  0.12714000000000003  0.77444  0.52426  1.0000
  H   H29       1.0  0.31864  0.65873  0.3213000000000001  1.0000
  H   H30       1.0  0.15724000000000005  0.49736  0.36101  1.0000
  H   H31       1.0  0.55841  0.84677  0.8868500000000002  1.0000
  H   H32       1.0  0.70661  0.63207  0.42702  1.0000
  H   H33       1.0  0.6858800000000002  0.7827300000000001  0.48022  1.0000
  H   H34       1.0  0.31145  0.65745  0.64187  1.0000
  H   H35       1.0  0.30913  0.49861  0.59539  1.0000
  H   H36       1.0  0.93585  0.15051  0.37846  1.0000
  H   H37       1.0  0.8332  0.37506  0.9185200000000002  1.0000
  H   H38       1.0  0.85284  0.22363000000000005  0.96732  1.0000
  H   H39       1.0  0.16356  0.34326  0.16652  1.0000
  H   H40       1.0  0.15996  0.50326  0.12808  1.0000
  H   H41       1.0  0.21885000000000002  0.9999700000000001  0.26105  1.0000
  H   H42       1.0  0.29648  0.99665  0.75131  1.0000
  H   H43       1.0  0.71894  0.00423  0.23095000000000004  1.0000
  H   H44       1.0  0.7903000000000001  0.9978700000000001  0.74211  1.0000
  C   C1        1.0  0.002969999999999985  0.91518  0.31626  1.0000
  C   C2        1.0  0.86799  0.91478  0.3623600000000001  1.0000
  C   C3        1.0  0.54606  0.54505  0.018830000000000006  1.0000
  C   C4        1.0  0.5397  0.62603  0.9750500000000002  1.0000
  C   C5        1.0  0.63797  0.7126600000000001  0.0008800000000000002  1.0000
  C   C6        1.0  0.74424  0.64716  0.11301  1.0000
  C   C7        1.0  0.64882  0.55794  0.09114  1.0000
  C   C8        1.0  0.50199  0.08237  0.8160100000000002  1.0000
  C   C9        1.0  0.6297  0.08277  0.8683700000000002  1.0000
  C   C10       1.0  0.9530600000000001  0.44834  0.50542  1.0000
  C   C11       1.0  0.9807999999999999  0.36673  0.4743  1.0000
  C   C12       1.0  0.88704  0.27993  0.50374  1.0000
  C   C13       1.0  0.74681  0.34758  0.5959  1.0000
  C   C14       1.0  0.8348  0.43663  0.5694500000000001  1.0000
  C   C15       1.0  0.58935  0.0881  0.17555  1.0000
  C   C16       1.0  0.45635999999999993  0.08757  0.12861  1.0000
  C   C17       1.0  0.50507  0.45529  0.4733100000000001  1.0000
  C   C18       1.0  0.41938000000000003  0.37415  0.51885  1.0000
  C   C19       1.0  0.4310300000000001  0.28785000000000005  0.49305  1.0000
  C   C20       1.0  0.59891  0.35382  0.37723  1.0000
  C   C21       1.0  0.59324  0.44277  0.39944  1.0000
  C   C22       1.0  0.91181  0.91314  0.67706  1.0000
  C   C23       1.0  0.039370000000000016  0.91381  0.62385  1.0000
  C   C24       1.0  0.0021500000000000013  0.54954  0.98638  1.0000
  C   C25       1.0  0.1091500000000001  0.6318600000000001  0.019050000000000008  1.0000
  C   C26       1.0  0.10266999999999998  0.71806  0.9899100000000002  1.0000
  C   C27       1.0  0.8989300000000001  0.64857  0.8951500000000001  1.0000
  C   C28       1.0  0.89825  0.56011  0.92123  1.0000
  C   C29       1.0  0.9952200000000001  0.08287  0.6754900000000003  1.0000
  C   C30       1.0  0.1219  0.08338  0.62167  1.0000
  C   C31       1.0  0.45239  0.4509  0.98815  1.0000
  C   C32       1.0  0.47534999999999994  0.36923  0.02146  1.0000
  C   C33       1.0  0.38253000000000004  0.28261000000000003  0.99155  1.0000
  C   C34       1.0  0.24971  0.35039  0.89572  1.0000
  C   C35       1.0  0.33818000000000004  0.4392900000000001  0.92233  1.0000
  C   C36       1.0  0.50553  0.9186300000000001  0.17408  1.0000
  C   C37       1.0  0.37308  0.91815  0.12648  1.0000
  C   C38       1.0  0.044900000000000044  0.54268  0.47417  1.0000
  C   C39       1.0  0.036140000000000026  0.62352  0.51833  1.0000
  C   C40       1.0  0.12991000000000003  0.71078  0.49115  1.0000
  C   C41       1.0  0.23827  0.6458300000000001  0.37748000000000004  1.0000
  C   C42       1.0  0.14688  0.55615  0.40062  1.0000
  C   C43       1.0  0.41786  0.91283  0.81519  1.0000
  C   C44       1.0  0.54518  0.91325  0.8678200000000003  1.0000
  C   C45       1.0  0.50459  0.54897  0.50394  1.0000
  C   C46       1.0  0.61358  0.63162  0.4733100000000001  1.0000
  C   C47       1.0  0.60409  0.7176  0.50245  1.0000
  C   C48       1.0  0.39417  0.64746  0.59328  1.0000
  C   C49       1.0  0.39574  0.55911  0.5671  1.0000
  C   C50       1.0  0.08845  0.08478  0.31595  1.0000
  C   C51       1.0  0.9542400000000001  0.0843  0.36314  1.0000
  C   C52       1.0  0.9998900000000001  0.45575  0.017150000000000006  1.0000
  C   C53       1.0  0.90936  0.37417  0.974  1.0000
  C   C54       1.0  0.91857  0.2878200000000001  0.00019  1.0000
  C   C55       1.0  0.09406000000000003  0.3549  0.11169000000000003  1.0000
  C   C56       1.0  0.09043000000000002  0.4438000000000001  0.08923000000000003  1.0000
  C   C57       1.0  0.8448200000000001  0.9993900000000001  0.38752  1.0000
  C   C58       1.0  0.11378000000000003  0.00018000000000000023  0.29554  1.0000
  C   C59       1.0  0.6522  0.99838  0.89447  1.0000
  C   C60       1.0  0.39624  0.99722  0.79084  1.0000
  C   C61       1.0  0.34899  0.00242  0.10264  1.0000
  C   C62       1.0  0.61478  0.00362  0.19594  1.0000
  C   C63       1.0  0.14428000000000002  0.99881  0.59529  1.0000
  C   C64       1.0  0.8894100000000001  0.9978700000000001  0.70133  1.0000
  N   N1        1.0  0.74203  0.72337  0.06654  1.0000
  N   N2        1.0  0.7686500000000002  0.26981  0.5610000000000003  1.0000
  N   N3        1.0  0.52183  0.27754  0.42511  1.0000
  N   N4        1.0  0.99665  0.72662  0.9314300000000002  1.0000
  N   N5        1.0  0.26866  0.27295  0.93207  1.0000
  N   N6        1.0  0.2324700000000001  0.7218400000000003  0.42387  1.0000
  N   N7        1.0  0.49368  0.7260500000000002  0.55904  1.0000
  N   N8        1.0  0.012290000000000004  0.27823  0.06583  1.0000
  O   O1        1.0  0.73406  0.08788000000000001  0.51004  1.0000
  O   O2        1.0  0.01404999999999998  0.81237  0.16961000000000007  1.0000
  O   O3        1.0  0.21305000000000002  0.83081  0.2789  1.0000
  O   O4        1.0  0.9345300000000001  0.72377  0.32021  1.0000
  O   O5        1.0  0.7640000000000002  0.9096800000000003  0.01727  1.0000
  O   O6        1.0  0.49579  0.18823  0.6705100000000003  1.0000
  O   O7        1.0  0.28798  0.16359  0.78127  1.0000
  O   O8        1.0  0.55987  0.27361  0.82171  1.0000
  O   O9        1.0  0.14148000000000002  0.90906  0.9860000000000002  1.0000
  O   O10       1.0  0.70412  0.19143000000000002  0.32246000000000014  1.0000
  O   O11       1.0  0.88379  0.17398000000000002  0.21092  1.0000
  O   O12       1.0  0.71243  0.28025  0.17376000000000003  1.0000
  O   O13       1.0  0.35016  0.09024  0.47404  1.0000
  O   O14       1.0  0.80728  0.80865  0.8259300000000003  1.0000
  O   O15       1.0  0.6163300000000002  0.8191800000000001  0.71403  1.0000
  O   O16       1.0  0.7916300000000001  0.7199200000000002  0.6774800000000002  1.0000
  O   O17       1.0  0.25696000000000013  0.90688  0.47485  1.0000
  O   O18       1.0  0.9987399999999999  0.18736000000000003  0.8246400000000003  1.0000
  O   O19       1.0  0.79366  0.17497000000000004  0.71488  1.0000
  O   O20       1.0  0.06803000000000002  0.27481  0.6746400000000002  1.0000
  O   O21       1.0  0.23890999999999998  0.09177000000000005  0.9819400000000003  1.0000
  O   O22       1.0  0.49801  0.8075800000000002  0.31814  1.0000
  O   O23       1.0  0.71178  0.83053  0.21131  1.0000
  O   O24       1.0  0.4396  0.72764  0.16501000000000005  1.0000
  O   O25       1.0  0.8590200000000001  0.09294000000000002  0.01238  1.0000
  O   O26       1.0  0.30288000000000015  0.8040300000000002  0.67008  1.0000
  O   O27       1.0  0.12258000000000012  0.8319800000000003  0.7814300000000002  1.0000
  O   O28       1.0  0.28187000000000006  0.72154  0.8215500000000001  1.0000
  O   O29       1.0  0.63068  0.90551  0.50316  1.0000
  O   O30       1.0  0.19388  0.196  0.17095  1.0000
  O   O31       1.0  0.38472  0.17427  0.27766000000000013  1.0000
  O   O32       1.0  0.21677  0.27632  0.3242500000000001  1.0000
  O   O33       1.0  0.54147  0.00288  0.38864  1.0000
  O   O34       1.0  0.9566600000000001  0.99729  0.89694  1.0000
  O   O35       1.0  0.04485  0.00426  0.10196000000000002  1.0000
  O   O36       1.0  0.44820999999999994  0.99876  0.59261  1.0000
