data_image0
_chemical_formula_structural       Co4H76C100N12O16
_chemical_formula_sum              "Co4 H76 C100 N12 O16"
_cell_length_a       9.89493
_cell_length_b       11.37311
_cell_length_c       26.574
_cell_angle_alpha    85.32746
_cell_angle_beta     79.23413
_cell_angle_gamma    64.14261

_space_group_name_H-M_alt    "P 1"
_space_group_IT_number       1

loop_
  _space_group_symop_operation_xyz
  'x, y, z'

loop_
  _atom_site_type_symbol
  _atom_site_label
  _atom_site_symmetry_multiplicity
  _atom_site_fract_x
  _atom_site_fract_y
  _atom_site_fract_z
  _atom_site_occupancy
  Co  Co1       1.0  0.63443  0.3242  0.07641000000000002  1.0000
  Co  Co2       1.0  0.20891  0.17595  0.57646  1.0000
  Co  Co3       1.0  0.03553999999999998  0.67585  0.9235300000000002  1.0000
  Co  Co4       1.0  0.9611399999999998  0.82395  0.42354  1.0000
  H   H1        1.0  0.53035  0.97378  0.07025000000000002  1.0000
  H   H2        1.0  0.12325000000000003  0.33214  0.07694  1.0000
  H   H3        1.0  0.09377000000000005  0.9683  0.07376  1.0000
  H   H4        1.0  0.6999499999999999  0.54133  0.10634  1.0000
  H   H5        1.0  0.5857100000000001  0.78382  0.10770000000000002  1.0000
  H   H6        1.0  0.23424000000000003  0.78152  0.03286  1.0000
  H   H7        1.0  0.36279999999999996  0.53999  0.03571  1.0000
  H   H8        1.0  0.7958699999999999  0.17723  0.8181900000000001  1.0000
  H   H9        1.0  0.8222500000000001  0.32169999999999993  0.81345  1.0000
  H   H10       1.0  0.74405  0.10363999999999998  0.00428  1.0000
  H   H11       1.0  0.8378100000000002  0.0505  0.9113100000000002  1.0000
  H   H12       1.0  0.74457  0.45816999999999997  0.88674  1.0000
  H   H13       1.0  0.66146  0.49101  0.97986  1.0000
  H   H14       1.0  0.05618999999999995  0.04573  0.8365300000000001  1.0000
  H   H15       1.0  0.08397999999999992  0.18747  0.8412300000000003  1.0000
  H   H16       1.0  0.06568000000000007  0.03367  0.65087  1.0000
  H   H17       1.0  0.98913  0.01499  0.7453500000000002  1.0000
  H   H18       1.0  0.1874  0.27426  0.76681  1.0000
  H   H19       1.0  0.25399  0.28289  0.67153  1.0000
  H   H20       1.0  0.7541300000000006  0.52592  0.57032  1.0000
  H   H21       1.0  0.7052999999999999  0.16801  0.57691  1.0000
  H   H22       1.0  0.3116700000000003  0.53242  0.57378  1.0000
  H   H23       1.0  0.49160000000000004  0.95833  0.60624  1.0000
  H   H24       1.0  0.6195  0.71573  0.60772  1.0000
  H   H25       1.0  0.2650600000000002  0.71929  0.5328800000000001  1.0000
  H   H26       1.0  0.15252000000000002  0.9607499999999999  0.53566  1.0000
  H   H27       1.0  0.22305000000000005  0.32292  0.31816  1.0000
  H   H28       1.0  0.39419000000000004  0.17838  0.31343  1.0000
  H   H29       1.0  0.09752000000000004  0.39658  0.50427  1.0000
  H   H30       1.0  0.13811  0.4496899999999999  0.4113  1.0000
  H   H31       1.0  0.4528  0.04174  0.3867000000000001  1.0000
  H   H32       1.0  0.40259  0.00892  0.47982000000000014  1.0000
  H   H33       1.0  0.35161999999999993  0.45421  0.33657000000000004  1.0000
  H   H34       1.0  0.5215  0.31241  0.34126  1.0000
  H   H35       1.0  0.34882  0.46661  0.15093  1.0000
  H   H36       1.0  0.2536799999999999  0.48524  0.24540000000000006  1.0000
  H   H37       1.0  0.7119100000000002  0.22561  0.26680000000000004  1.0000
  H   H38       1.0  0.78704  0.21702  0.17154  1.0000
  H   H39       1.0  0.5746  0.025909999999999996  0.9296500000000002  1.0000
  H   H40       1.0  0.5322399999999999  0.66802  0.92314  1.0000
  H   H41       1.0  0.13553999999999988  0.03236  0.9262600000000002  1.0000
  H   H42       1.0  0.34800999999999993  0.45829999999999993  0.8937400000000002  1.0000
  H   H43       1.0  0.47742999999999997  0.21571  0.89225  1.0000
  H   H44       1.0  0.04791999999999988  0.21921  0.9671600000000002  1.0000
  H   H45       1.0  0.9381200000000002  0.46065  0.96437  1.0000
  H   H46       1.0  0.79119  0.82298  0.18188000000000001  1.0000
  H   H47       1.0  0.95751  0.6784  0.18654  1.0000
  H   H48       1.0  0.8519100000000002  0.89646  0.9957300000000002  1.0000
  H   H49       1.0  0.7994100000000001  0.94971  0.08868000000000002  1.0000
  H   H50       1.0  0.08941999999999996  0.54177  0.11329  1.0000
  H   H51       1.0  0.13242999999999996  0.50889  0.020200000000000006  1.0000
  H   H52       1.0  0.9382300000000001  0.9541999999999999  0.16352  1.0000
  H   H53       1.0  0.11283000000000001  0.81243  0.1587  1.0000
  H   H54       1.0  0.7495900000000002  0.96666  0.3491  1.0000
  H   H55       1.0  0.74911  0.9852799999999999  0.25464  1.0000
  H   H56       1.0  0.22882999999999995  0.72563  0.23321  1.0000
  H   H57       1.0  0.20848000000000017  0.71708  0.32845  1.0000
  H   H58       1.0  0.8507600000000001  0.47371  0.42973  1.0000
  H   H59       1.0  0.4501  0.83195  0.4230900000000001  1.0000
  H   H60       1.0  0.41789000000000004  0.46792  0.42630000000000007  1.0000
  H   H61       1.0  0.05656000000000001  0.04112  0.39364  1.0000
  H   H62       1.0  0.9437300000000001  0.28362  0.39228000000000013  1.0000
  H   H63       1.0  0.51714  0.28135  0.4671700000000001  1.0000
  H   H64       1.0  0.6484899999999997  0.03983  0.46427000000000007  1.0000
  H   H65       1.0  0.8641399999999999  0.67715  0.6818500000000001  1.0000
  H   H66       1.0  0.88566  0.82166  0.68651  1.0000
  H   H67       1.0  0.9984100000000001  0.60365  0.49572  1.0000
  H   H68       1.0  0.9991499999999999  0.55047  0.5886700000000001  1.0000
  H   H69       1.0  0.8812599999999999  0.95811  0.6132300000000003  1.0000
  H   H70       1.0  0.8913899999999998  0.99095  0.52012  1.0000
  H   H71       1.0  0.14275  0.54571  0.66355  1.0000
  H   H72       1.0  0.17536999999999994  0.68737  0.6587200000000001  1.0000
  H   H73       1.0  0.9664800000000001  0.5334999999999999  0.84913  1.0000
  H   H74       1.0  0.98451  0.5149299999999999  0.75467  1.0000
  H   H75       1.0  0.20428999999999992  0.77422  0.7332100000000003  1.0000
  H   H76       1.0  0.17545000000000002  0.78273  0.8284700000000002  1.0000
  C   C1        1.0  0.32265000000000016  0.951  0.07172  1.0000
  C   C2        1.0  0.40743000000000007  0.02273  0.07219  1.0000
  C   C3        1.0  0.33668  0.15947  0.07414  1.0000
  C   C4        1.0  0.17929000000000003  0.22604999999999997  0.07553  1.0000
  C   C5        1.0  0.09311000000000008  0.15604  0.07541  1.0000
  C   C6        1.0  0.16469  0.01945  0.0733  1.0000
  C   C7        1.0  0.5958000000000001  0.59938  0.09112000000000003  1.0000
  C   C8        1.0  0.53137  0.73491  0.09112000000000003  1.0000
  C   C9        1.0  0.3967500000000002  0.80679  0.07085  1.0000
  C   C10       1.0  0.33572000000000013  0.734  0.05049  1.0000
  C   C11       1.0  0.40715000000000007  0.5984199999999998  0.05146  1.0000
  C   C12       1.0  0.42887999999999993  0.2339  0.07518  1.0000
  C   C13       1.0  0.92478  0.22607  0.07807000000000003  1.0000
  C   C14       1.0  0.8521899999999998  0.22769  0.83359  1.0000
  C   C15       1.0  0.7461000000000001  0.17839  0.97636  1.0000
  C   C16       1.0  0.7966299999999998  0.15062  0.9243500000000002  1.0000
  C   C17       1.0  0.7954799999999999  0.25168  0.8901200000000002  1.0000
  C   C18       1.0  0.7450100000000001  0.37589999999999996  0.91082  1.0000
  C   C19       1.0  0.6973500000000001  0.3955199999999999  0.9633600000000002  1.0000
  C   C20       1.0  0.027469999999999994  0.1452  0.82139  1.0000
  C   C21       1.0  0.09152999999999994  0.08406  0.67819  1.0000
  C   C22       1.0  0.04894999999999996  0.07485  0.73078  1.0000
  C   C23       1.0  0.08184999999999991  0.14362  0.7645700000000002  1.0000
  C   C24       1.0  0.15854000000000015  0.21865999999999997  0.74263  1.0000
  C   C25       1.0  0.19697000000000003  0.22352  0.6896  1.0000
  C   C26       1.0  0.52341  0.54919  0.57177  1.0000
  C   C27       1.0  0.6800699999999997  0.47719  0.5722500000000001  1.0000
  C   C28       1.0  0.74603  0.34046  0.5741700000000001  1.0000
  C   C29       1.0  0.6551199999999999  0.2741  0.5755200000000001  1.0000
  C   C30       1.0  0.4987400000000003  0.34442  0.5754  1.0000
  C   C31       1.0  0.43384000000000006  0.48100999999999994  0.57332  1.0000
  C   C32       1.0  0.44532000000000005  0.9005  0.59105  1.0000
  C   C33       1.0  0.5161899999999999  0.76496  0.59112  1.0000
  C   C34       1.0  0.4532000000000003  0.69339  0.57089  1.0000
  C   C35       1.0  0.31929999999999975  0.76648  0.5504900000000001  1.0000
  C   C36       1.0  0.25537000000000026  0.90204  0.5514  1.0000
  C   C37       1.0  0.91284  0.26583  0.57518  1.0000
  C   C38       1.0  0.39955999999999997  0.27534  0.5781  1.0000
  C   C39       1.0  0.32992  0.27237  0.33359  1.0000
  C   C40       1.0  0.17443000000000003  0.32177999999999995  0.47635  1.0000
  C   C41       1.0  0.19717999999999994  0.34954  0.42434000000000005  1.0000
  C   C42       1.0  0.29717  0.24838999999999997  0.39011000000000007  1.0000
  C   C43       1.0  0.3709699999999999  0.12408999999999999  0.4108000000000001  1.0000
  C   C44       1.0  0.34296000000000004  0.10449999999999998  0.4633400000000001  1.0000
  C   C45       1.0  0.4226099999999999  0.35475  0.3214200000000001  1.0000
  C   C46       1.0  0.42523000000000005  0.4160499999999999  0.17823  1.0000
  C   C47       1.0  0.37349000000000004  0.4252699999999999  0.23082000000000003  1.0000
  C   C48       1.0  0.47536  0.35639  0.26460000000000006  1.0000
  C   C49       1.0  0.6272599999999999  0.28126  0.24263  1.0000
  C   C50       1.0  0.67047  0.27641  0.1896  1.0000
  C   C51       1.0  0.34534999999999993  0.04914  0.9282400000000001  1.0000
  C   C52       1.0  0.5025499999999999  0.9771  0.9277200000000001  1.0000
  C   C53       1.0  0.5704800000000001  0.84033  0.9258500000000002  1.0000
  C   C54       1.0  0.48076999999999975  0.77409  0.9245200000000002  1.0000
  C   C55       1.0  0.32426  0.8444  0.9246400000000002  1.0000
  C   C56       1.0  0.2572599999999999  0.98098  0.9267400000000002  1.0000
  C   C57       1.0  0.28647999999999985  0.40047  0.9089300000000002  1.0000
  C   C58       1.0  0.35745999999999994  0.26493  0.9088500000000002  1.0000
  C   C59       1.0  0.2742  0.19335999999999998  0.9291  1.0000
  C   C60       1.0  0.1198099999999999  0.26641  0.9495100000000002  1.0000
  C   C61       1.0  0.05676999999999991  0.40198  0.9486000000000002  1.0000
  C   C62       1.0  0.7383799999999998  0.76553  0.9248500000000001  1.0000
  C   C63       1.0  0.2278600000000001  0.7752699999999999  0.92185  1.0000
  C   C64       1.0  0.9135199999999998  0.77242  0.16641  1.0000
  C   C65       1.0  0.9008700000000001  0.8217099999999999  0.023650000000000004  1.0000
  C   C66       1.0  0.8716  0.84955  0.07565  1.0000
  C   C67       1.0  0.9373300000000006  0.74846  0.10989000000000002  1.0000
  C   C68       1.0  0.03176000000000007  0.6241299999999999  0.08921000000000001  1.0000
  C   C69       1.0  0.056330000000000026  0.60448  0.036680000000000004  1.0000
  C   C70       1.0  0.99411  0.85469  0.17860000000000006  1.0000
  C   C71       1.0  0.8533500000000002  0.9160399999999999  0.32179  1.0000
  C   C72       1.0  0.8543  0.9252199999999999  0.26921  1.0000
  C   C73       1.0  0.99001  0.8562699999999999  0.23542000000000002  1.0000
  C   C74       1.0  0.11991999999999998  0.78121  0.25737  1.0000
  C   C75       1.0  0.10998999999999998  0.77641  0.3104  1.0000
  C   C76       1.0  0.6446300000000001  0.45076  0.42831  1.0000
  C   C77       1.0  0.72977  0.5226  0.42781  1.0000
  C   C78       1.0  0.6608100000000002  0.6593499999999999  0.42589000000000005  1.0000
  C   C79       1.0  0.50473  0.72585  0.42451  1.0000
  C   C80       1.0  0.4185400000000001  0.6557  0.42464000000000013  1.0000
  C   C81       1.0  0.48827  0.51912  0.42675000000000013  1.0000
  C   C82       1.0  0.9371400000000001  0.09917  0.4088700000000001  1.0000
  C   C83       1.0  0.87278  0.23469  0.4088700000000001  1.0000
  C   C84       1.0  0.7178399999999999  0.30657  0.42916000000000004  1.0000
  C   C85       1.0  0.6363  0.23383  0.4495300000000001  1.0000
  C   C86       1.0  0.7086500000000001  0.09825999999999999  0.44854  1.0000
  C   C87       1.0  0.7542200000000002  0.73369  0.4248700000000001  1.0000
  C   C88       1.0  0.2528400000000001  0.72483  0.42188  1.0000
  C   C89       1.0  0.9358699999999999  0.7276299999999999  0.6663900000000003  1.0000
  C   C90       1.0  0.9725300000000002  0.67837  0.52364  1.0000
  C   C91       1.0  0.97106  0.6505799999999999  0.5756400000000002  1.0000
  C   C92       1.0  0.9357199999999999  0.75159  0.6098700000000001  1.0000
  C   C93       1.0  0.9058699999999997  0.87583  0.5891600000000001  1.0000
  C   C94       1.0  0.9107800000000003  0.89546  0.53662  1.0000
  C   C95       1.0  0.09889000000000008  0.6452299999999999  0.67862  1.0000
  C   C96       1.0  0.01965999999999988  0.58395  0.8218200000000002  1.0000
  C   C97       1.0  0.029659999999999936  0.57485  0.7692400000000001  1.0000
  C   C98       1.0  0.09634000000000002  0.6436899999999999  0.73544  1.0000
  C   C99       1.0  0.15112  0.71865  0.75738  1.0000
  C   C100      1.0  0.13650000000000015  0.7234  0.81041  1.0000
  N   N1        1.0  0.5350000000000003  0.5302999999999999  0.07193  1.0000
  N   N2        1.0  0.6961299999999999  0.29898  0.99622  1.0000
  N   N3        1.0  0.16425999999999996  0.15774  0.65725  1.0000
  N   N4        1.0  0.3153599999999999  0.96986  0.57183  1.0000
  N   N5        1.0  0.24519  0.20114  0.49621  1.0000
  N   N6        1.0  0.57177  0.34223999999999993  0.15727  1.0000
  N   N7        1.0  0.1372299999999999  0.46981  0.92816  1.0000
  N   N8        1.0  0.99154  0.70107  0.0038  1.0000
  N   N9        1.0  0.97889  0.84221  0.34275  1.0000
  N   N10       1.0  0.8570300000000001  0.030139999999999997  0.4280600000000001  1.0000
  N   N11       1.0  0.9425099999999998  0.79893  0.50376  1.0000
  N   N12       1.0  0.07142999999999997  0.65759  0.84276  1.0000
  O   O1        1.0  0.56829  0.16912  0.08074  1.0000
  O   O2        1.0  0.36901  0.3575  0.07093  1.0000
  O   O3        1.0  0.84747  0.15886  0.08371  1.0000
  O   O4        1.0  0.8592400000000001  0.34997  0.07489000000000001  1.0000
  O   O5        1.0  0.9874499999999999  0.33046  0.58077  1.0000
  O   O6        1.0  0.9768400000000002  0.14227  0.57089  1.0000
  O   O7        1.0  0.25501  0.34352  0.58365  1.0000
  O   O8        1.0  0.45720000000000005  0.15138  0.5750300000000002  1.0000
  O   O9        1.0  0.8187299999999998  0.83005  0.9192400000000001  1.0000
  O   O10       1.0  0.7981800000000002  0.64198  0.9291500000000003  1.0000
  O   O11       1.0  0.08880999999999994  0.8433999999999999  0.9163800000000001  1.0000
  O   O12       1.0  0.28245  0.65131  0.9248100000000002  1.0000
  O   O13       1.0  0.89923  0.66875  0.41928  1.0000
  O   O14       1.0  0.6903800000000001  0.85728  0.42916000000000004  1.0000
  O   O15       1.0  0.18213  0.65676  0.41633  1.0000
  O   O16       1.0  0.18298999999999999  0.84877  0.42494  1.0000
