data_image0
_chemical_formula_structural       Ni8H40C72O40
_chemical_formula_sum              "Ni8 H40 C72 O40"
_cell_length_a       13.1906
_cell_length_b       14.25262
_cell_length_c       14.45421
_cell_angle_alpha    90.0
_cell_angle_beta     114.42459999999998
_cell_angle_gamma    90.0

_space_group_name_H-M_alt    "P 1"
_space_group_IT_number       1

loop_
  _space_group_symop_operation_xyz
  'x, y, z'

loop_
  _atom_site_type_symbol
  _atom_site_label
  _atom_site_symmetry_multiplicity
  _atom_site_fract_x
  _atom_site_fract_y
  _atom_site_fract_z
  _atom_site_occupancy
  Ni  Ni1       1.0  0.4724200000000002  0.59609  0.23417000000000004  1.0000
  Ni  Ni2       1.0  0.63931  0.70619  0.3959200000000001  1.0000
  Ni  Ni3       1.0  0.027579999999999997  0.09608999999999997  0.26583  1.0000
  Ni  Ni4       1.0  0.86069  0.20618999999999996  0.10408  1.0000
  Ni  Ni5       1.0  0.52758  0.40390999999999994  0.7658300000000002  1.0000
  Ni  Ni6       1.0  0.3606900000000001  0.29381  0.60408  1.0000
  Ni  Ni7       1.0  0.9724200000000002  0.90391  0.73417  1.0000
  Ni  Ni8       1.0  0.1393200000000001  0.79381  0.8959200000000003  1.0000
  H   H1        1.0  0.07142000000000005  0.1649  0.82372  1.0000
  H   H2        1.0  0.95419  0.23849  0.80511  1.0000
  H   H3        1.0  0.97305  0.22868999999999998  0.4974300000000001  1.0000
  H   H4        1.0  0.7507  0.4049299999999999  0.25762  1.0000
  H   H5        1.0  0.80707  0.46115  0.56852  1.0000
  H   H6        1.0  0.03727999999999999  0.20489  0.97068  1.0000
  H   H7        1.0  0.25216  0.4275399999999999  0.95514  1.0000
  H   H8        1.0  0.25444  0.34727  0.24366  1.0000
  H   H9        1.0  0.96684  0.17878  0.6432200000000002  1.0000
  H   H10       1.0  0.08526999999999997  0.25375  0.6741400000000001  1.0000
  H   H11       1.0  0.4285800000000002  0.6649  0.6762900000000002  1.0000
  H   H12       1.0  0.54581  0.7384899999999999  0.6949  1.0000
  H   H13       1.0  0.52695  0.72869  0.00257  1.0000
  H   H14       1.0  0.7493  0.90493  0.24238  1.0000
  H   H15       1.0  0.6929400000000001  0.96114  0.9314900000000002  1.0000
  H   H16       1.0  0.4627200000000001  0.70489  0.5293200000000001  1.0000
  H   H17       1.0  0.24784  0.92754  0.54487  1.0000
  H   H18       1.0  0.24556000000000008  0.8472699999999997  0.25634000000000007  1.0000
  H   H19       1.0  0.53317  0.67878  0.85678  1.0000
  H   H20       1.0  0.41473  0.75375  0.82586  1.0000
  H   H21       1.0  0.9285800000000002  0.8351  0.17629  1.0000
  H   H22       1.0  0.04581000000000002  0.76151  0.19490000000000002  1.0000
  H   H23       1.0  0.026949999999999995  0.77131  0.50257  1.0000
  H   H24       1.0  0.24930000000000002  0.59507  0.7423800000000003  1.0000
  H   H25       1.0  0.1929300000000001  0.53885  0.4314800000000001  1.0000
  H   H26       1.0  0.9627200000000001  0.7951  0.02932  1.0000
  H   H27       1.0  0.74784  0.57246  0.04486  1.0000
  H   H28       1.0  0.74557  0.65273  0.75635  1.0000
  H   H29       1.0  0.03316999999999999  0.8212199999999998  0.35678  1.0000
  H   H30       1.0  0.91473  0.74625  0.32586  1.0000
  H   H31       1.0  0.57142  0.3351  0.32371  1.0000
  H   H32       1.0  0.45419000000000015  0.26151  0.3051000000000001  1.0000
  H   H33       1.0  0.4730500000000002  0.27131  0.9974300000000003  1.0000
  H   H34       1.0  0.2507000000000001  0.09506999999999999  0.75762  1.0000
  H   H35       1.0  0.30707  0.03885  0.06852  1.0000
  H   H36       1.0  0.5372800000000002  0.29511  0.47068  1.0000
  H   H37       1.0  0.75216  0.07245999999999998  0.45514000000000004  1.0000
  H   H38       1.0  0.7544400000000002  0.15273  0.7436600000000002  1.0000
  H   H39       1.0  0.46683  0.32122  0.14322000000000001  1.0000
  H   H40       1.0  0.58527  0.24625  0.17414  1.0000
  C   C1        1.0  0.6952  0.523  0.37332000000000004  1.0000
  C   C2        1.0  0.7719900000000001  0.44149  0.4095  1.0000
  C   C3        1.0  0.26099  0.39549  0.10423000000000003  1.0000
  C   C4        1.0  0.8934000000000001  0.34108  0.54543  1.0000
  C   C5        1.0  0.03215000000000008  0.2332  0.7950000000000003  1.0000
  C   C6        1.0  0.8656200000000002  0.31193  0.37141  1.0000
  C   C7        1.0  0.91673  0.28826  0.47506  1.0000
  C   C8        1.0  0.79131  0.38702  0.33771  1.0000
  C   C9        1.0  0.8229  0.41951  0.51284  1.0000
  C   C10       1.0  0.09996  0.25838  0.00612  1.0000
  C   C11       1.0  0.22059000000000004  0.38379  0.9990100000000001  1.0000
  C   C12       1.0  0.14013000000000006  0.3149699999999999  0.9496000000000001  1.0000
  C   C13       1.0  0.2233  0.33782  0.16193  1.0000
  C   C14       1.0  0.34545  0.46932  0.15547  1.0000
  C   C15       1.0  0.007790000000000009  0.24279  0.68406  1.0000
  C   C16       1.0  0.14283000000000007  0.26988  0.11223000000000002  1.0000
  C   C17       1.0  0.8943800000000001  0.256  0.29903  1.0000
  C   C18       1.0  0.10127000000000003  0.20969999999999994  0.17170000000000002  1.0000
  C   C19       1.0  0.8048  0.023  0.12668  1.0000
  C   C20       1.0  0.72801  0.94149  0.09050000000000002  1.0000
  C   C21       1.0  0.23901999999999998  0.8954899999999998  0.39577  1.0000
  C   C22       1.0  0.6066  0.84108  0.9545800000000002  1.0000
  C   C23       1.0  0.46786  0.7332  0.705  1.0000
  C   C24       1.0  0.63438  0.81193  0.12859  1.0000
  C   C25       1.0  0.58327  0.78825  0.02495  1.0000
  C   C26       1.0  0.7086900000000002  0.8870199999999998  0.16229  1.0000
  C   C27       1.0  0.6771  0.91951  0.9871600000000001  1.0000
  C   C28       1.0  0.40004  0.75838  0.4938800000000001  1.0000
  C   C29       1.0  0.27941  0.88379  0.50099  1.0000
  C   C30       1.0  0.35987  0.81497  0.5504  1.0000
  C   C31       1.0  0.2767  0.83781  0.33807  1.0000
  C   C32       1.0  0.15455000000000005  0.9693199999999997  0.3445300000000001  1.0000
  C   C33       1.0  0.49221000000000015  0.7427899999999997  0.8159400000000002  1.0000
  C   C34       1.0  0.35717  0.7698799999999999  0.38777000000000006  1.0000
  C   C35       1.0  0.60562  0.756  0.20097  1.0000
  C   C36       1.0  0.39873  0.7097  0.32831000000000005  1.0000
  C   C37       1.0  0.3048  0.47699999999999987  0.62668  1.0000
  C   C38       1.0  0.22801000000000007  0.55851  0.5905  1.0000
  C   C39       1.0  0.7390200000000002  0.60451  0.89577  1.0000
  C   C40       1.0  0.10660000000000007  0.65891  0.4545800000000001  1.0000
  C   C41       1.0  0.96786  0.7668  0.20500000000000004  1.0000
  C   C42       1.0  0.13438  0.68807  0.62859  1.0000
  C   C43       1.0  0.08326999999999998  0.71174  0.52495  1.0000
  C   C44       1.0  0.20869000000000004  0.61298  0.6622900000000002  1.0000
  C   C45       1.0  0.17710000000000004  0.58049  0.48716  1.0000
  C   C46       1.0  0.9000400000000002  0.74162  0.99388  1.0000
  C   C47       1.0  0.77941  0.6162099999999999  0.0009900000000000002  1.0000
  C   C48       1.0  0.85987  0.68503  0.0504  1.0000
  C   C49       1.0  0.7767000000000001  0.66218  0.83807  1.0000
  C   C50       1.0  0.6545500000000002  0.53068  0.8445300000000002  1.0000
  C   C51       1.0  0.9922100000000003  0.75721  0.31594000000000005  1.0000
  C   C52       1.0  0.85717  0.73012  0.88777  1.0000
  C   C53       1.0  0.10562000000000013  0.744  0.7009700000000002  1.0000
  C   C54       1.0  0.89873  0.7903  0.82831  1.0000
  C   C55       1.0  0.19520000000000012  0.97699  0.8733200000000002  1.0000
  C   C56       1.0  0.27199  0.05851  0.9095  1.0000
  C   C57       1.0  0.7609900000000002  0.10451  0.60423  1.0000
  C   C58       1.0  0.3934  0.15892  0.04543000000000001  1.0000
  C   C59       1.0  0.53215  0.2668  0.295  1.0000
  C   C60       1.0  0.36562  0.18807  0.87141  1.0000
  C   C61       1.0  0.41673  0.21174  0.97506  1.0000
  C   C62       1.0  0.29130999999999996  0.11297999999999997  0.83771  1.0000
  C   C63       1.0  0.3229000000000001  0.08049  0.012840000000000002  1.0000
  C   C64       1.0  0.59996  0.24162  0.50612  1.0000
  C   C65       1.0  0.72059  0.11620999999999997  0.4990100000000001  1.0000
  C   C66       1.0  0.64013  0.18503  0.4496  1.0000
  C   C67       1.0  0.7233  0.16218  0.66193  1.0000
  C   C68       1.0  0.84545  0.03068  0.65547  1.0000
  C   C69       1.0  0.50779  0.25721  0.18406  1.0000
  C   C70       1.0  0.6428300000000002  0.23012  0.6122300000000002  1.0000
  C   C71       1.0  0.39438  0.244  0.79903  1.0000
  C   C72       1.0  0.60127  0.2903  0.6717  1.0000
  O   O1        1.0  0.10657  0.3089699999999999  0.8471  1.0000
  O   O2        1.0  0.93512  0.3228999999999999  0.6469500000000001  1.0000
  O   O3        1.0  0.38053  0.48252  0.25143  1.0000
  O   O4        1.0  0.61574  0.51903  0.28635000000000005  1.0000
  O   O5        1.0  0.38375  0.52012  0.10399000000000003  1.0000
  O   O6        1.0  0.71809  0.59344  0.43614  1.0000
  O   O7        1.0  0.96906  0.19444  0.3329600000000001  1.0000
  O   O8        1.0  0.8392  0.27607  0.20237000000000005  1.0000
  O   O9        1.0  0.004580000000000023  0.16567  0.12174000000000003  1.0000
  O   O10       1.0  0.15246  0.19516  0.26504  1.0000
  O   O11       1.0  0.39343  0.80897  0.65291  1.0000
  O   O12       1.0  0.5648800000000002  0.8229  0.8530600000000002  1.0000
  O   O13       1.0  0.11947000000000005  0.98252  0.24858000000000005  1.0000
  O   O14       1.0  0.8842600000000003  0.01903  0.21366  1.0000
  O   O15       1.0  0.11625  0.02012  0.39602  1.0000
  O   O16       1.0  0.7819100000000001  0.09344  0.06386  1.0000
  O   O17       1.0  0.53094  0.69444  0.16704000000000002  1.0000
  O   O18       1.0  0.6608  0.77607  0.29763  1.0000
  O   O19       1.0  0.49542  0.66567  0.37826000000000004  1.0000
  O   O20       1.0  0.34755  0.69516  0.23496000000000006  1.0000
  O   O21       1.0  0.89343  0.69103  0.1529  1.0000
  O   O22       1.0  0.06488  0.6771  0.35306  1.0000
  O   O23       1.0  0.61947  0.51748  0.7485800000000002  1.0000
  O   O24       1.0  0.3842600000000001  0.48097  0.71366  1.0000
  O   O25       1.0  0.61625  0.47987  0.8960200000000001  1.0000
  O   O26       1.0  0.28191000000000005  0.40656  0.5638600000000001  1.0000
  O   O27       1.0  0.03094000000000011  0.8055599999999999  0.6670400000000002  1.0000
  O   O28       1.0  0.1608  0.7239299999999997  0.79763  1.0000
  O   O29       1.0  0.9954200000000001  0.83433  0.87826  1.0000
  O   O30       1.0  0.8475500000000001  0.80483  0.73496  1.0000
  O   O31       1.0  0.6065700000000002  0.19103  0.3471  1.0000
  O   O32       1.0  0.43512  0.1771  0.14694000000000002  1.0000
  O   O33       1.0  0.8805300000000003  0.01748  0.75143  1.0000
  O   O34       1.0  0.11574000000000009  0.98097  0.7863500000000002  1.0000
  O   O35       1.0  0.88375  0.97987  0.60399  1.0000
  O   O36       1.0  0.21809000000000017  0.90656  0.9361400000000002  1.0000
  O   O37       1.0  0.46906000000000014  0.30556  0.83296  1.0000
  O   O38       1.0  0.33920000000000017  0.22393  0.7023700000000003  1.0000
  O   O39       1.0  0.5045800000000001  0.33433  0.6217400000000002  1.0000
  O   O40       1.0  0.6524600000000004  0.30483999999999994  0.7650400000000003  1.0000
