data_image0
_chemical_formula_structural       Zn8H48C64N8O28
_chemical_formula_sum              "Zn8 H48 C64 N8 O28"
_cell_length_a       8.66482
_cell_length_b       13.67068
_cell_length_c       18.324749999999998
_cell_angle_alpha    88.35696999999999
_cell_angle_beta     85.10362
_cell_angle_gamma    71.54826

_space_group_name_H-M_alt    "P 1"
_space_group_IT_number       1

loop_
  _space_group_symop_operation_xyz
  'x, y, z'

loop_
  _atom_site_type_symbol
  _atom_site_label
  _atom_site_symmetry_multiplicity
  _atom_site_fract_x
  _atom_site_fract_y
  _atom_site_fract_z
  _atom_site_occupancy
  Zn  Zn1       1.0  0.38325000000000026  0.9470299999999998  0.9686799999999999  1.0000
  Zn  Zn2       1.0  0.18937000000000004  0.17013  0.00847  1.0000
  Zn  Zn3       1.0  0.16981000000000016  0.9474399999999997  0.53224  1.0000
  Zn  Zn4       1.0  0.14345999999999998  0.17092  0.49309  1.0000
  Zn  Zn5       1.0  0.61675  0.05298  0.03132999999999999  1.0000
  Zn  Zn6       1.0  0.8106300000000001  0.8298799999999997  0.9915299999999999  1.0000
  Zn  Zn7       1.0  0.83019  0.05257  0.46776999999999996  1.0000
  Zn  Zn8       1.0  0.85654  0.82909  0.50692  1.0000
  H   H1        1.0  0.677  0.8650399999999999  0.7436999999999999  1.0000
  H   H2        1.0  0.49494  0.15964  0.66239  1.0000
  H   H3        1.0  0.35437  0.11931999999999997  0.72117  1.0000
  H   H4        1.0  0.28273  0.49064  0.11510000000000001  1.0000
  H   H5        1.0  0.24182000000000003  0.31795  0.11948999999999999  1.0000
  H   H6        1.0  0.13846000000000008  0.3371899999999999  0.9026299999999999  1.0000
  H   H7        1.0  0.18899000000000005  0.50675  0.88629  1.0000
  H   H8        1.0  0.39899  0.5999  0.09249  1.0000
  H   H9        1.0  0.44529  0.77023  0.07676  1.0000
  H   H10       1.0  0.22896  0.8250099999999999  0.8809399999999998  1.0000
  H   H11       1.0  0.15944000000000022  0.6626199999999998  0.89017  1.0000
  H   H12       1.0  0.9754300000000001  0.09819999999999998  0.58316  1.0000
  H   H13       1.0  0.9571599999999999  0.86682  0.75615  1.0000
  H   H14       1.0  0.85083  0.16031999999999993  0.83666  1.0000
  H   H15       1.0  0.03433  0.11875  0.77977  1.0000
  H   H16       1.0  0.7254900000000001  0.4904499999999999  0.3857  1.0000
  H   H17       1.0  0.9406  0.31843999999999995  0.38138999999999995  1.0000
  H   H18       1.0  0.025529999999999956  0.33797  0.59807  1.0000
  H   H19       1.0  0.80425  0.50672  0.61429  1.0000
  H   H20       1.0  0.4998099999999999  0.60067  0.40815999999999997  1.0000
  H   H21       1.0  0.28395  0.77114  0.42409  1.0000
  H   H22       1.0  0.44678999999999996  0.8242599999999998  0.61989  1.0000
  H   H23       1.0  0.67782  0.66158  0.61051  1.0000
  H   H24       1.0  0.42802000000000007  0.09783999999999997  0.9154499999999999  1.0000
  H   H25       1.0  0.323  0.13497  0.25631  1.0000
  H   H26       1.0  0.50506  0.84036  0.33761  1.0000
  H   H27       1.0  0.64563  0.8806899999999999  0.27884  1.0000
  H   H28       1.0  0.7172700000000001  0.5093699999999999  0.8849  1.0000
  H   H29       1.0  0.7581799999999999  0.68205  0.88051  1.0000
  H   H30       1.0  0.86154  0.66282  0.09736999999999998  1.0000
  H   H31       1.0  0.81101  0.49325999999999987  0.11372000000000002  1.0000
  H   H32       1.0  0.60101  0.40010999999999997  0.9075199999999999  1.0000
  H   H33       1.0  0.5547100000000003  0.22976999999999995  0.92324  1.0000
  H   H34       1.0  0.77104  0.17499999999999993  0.11907  1.0000
  H   H35       1.0  0.8405600000000001  0.33738999999999997  0.10983  1.0000
  H   H36       1.0  0.024570000000000033  0.90181  0.41684  1.0000
  H   H37       1.0  0.04284000000000001  0.13318  0.24384999999999998  1.0000
  H   H38       1.0  0.14917000000000008  0.8396899999999999  0.16335  1.0000
  H   H39       1.0  0.96567  0.88126  0.22024  1.0000
  H   H40       1.0  0.27451000000000003  0.50955  0.6143  1.0000
  H   H41       1.0  0.0594  0.68157  0.61861  1.0000
  H   H42       1.0  0.9744700000000001  0.6620399999999997  0.40192999999999995  1.0000
  H   H43       1.0  0.19574999999999998  0.49329  0.38572  1.0000
  H   H44       1.0  0.5001900000000001  0.39933999999999986  0.5918399999999999  1.0000
  H   H45       1.0  0.7160500000000001  0.22886999999999993  0.57591  1.0000
  H   H46       1.0  0.55321  0.17574999999999996  0.38011999999999996  1.0000
  H   H47       1.0  0.32218  0.33843  0.38949  1.0000
  H   H48       1.0  0.5719800000000002  0.9021699999999998  0.08456  1.0000
  C   C1        1.0  0.50813  0.9799  0.81829  1.0000
  C   C2        1.0  0.58819  0.9419699999999999  0.74468  1.0000
  C   C3        1.0  0.5640199999999999  0.99553  0.68146  1.0000
  C   C4        1.0  0.6743500000000001  0.9559399999999998  0.6141  1.0000
  C   C5        1.0  0.4378000000000001  0.09873999999999998  0.67143  1.0000
  C   C6        1.0  0.33982999999999997  0.09656  0.60668  1.0000
  C   C7        1.0  0.25348999999999994  0.45972  0.066  1.0000
  C   C8        1.0  0.22797999999999993  0.36425  0.06961  1.0000
  C   C9        1.0  0.17178000000000004  0.3748199999999999  0.94767  1.0000
  C   C10       1.0  0.19878  0.46951  0.9396499999999999  1.0000
  C   C11       1.0  0.24175  0.51474  0.9994899999999999  1.0000
  C   C12       1.0  0.27575  0.6141  0.99206  1.0000
  C   C13       1.0  0.35707  0.64696  0.044899999999999995  1.0000
  C   C14       1.0  0.3860199999999999  0.74106  0.03624  1.0000
  C   C15       1.0  0.26527000000000006  0.7718699999999998  0.92633  1.0000
  C   C16       1.0  0.22881000000000012  0.67967  0.93199  1.0000
  C   C17       1.0  0.015240000000000047  0.9802199999999999  0.68117  1.0000
  C   C18       1.0  0.9719400000000001  0.9430399999999998  0.75494  1.0000
  C   C19       1.0  0.94358  0.99611  0.8182199999999998  1.0000
  C   C20       1.0  0.8701900000000001  0.95635  0.88489  1.0000
  C   C21       1.0  0.96841  0.09873999999999998  0.8288499999999999  1.0000
  C   C22       1.0  0.06645999999999998  0.09586  0.89458  1.0000
  C   C23       1.0  0.7862299999999999  0.45972  0.43476999999999993  1.0000
  C   C24       1.0  0.90805  0.36461999999999994  0.43122  1.0000
  C   C25       1.0  0.9541499999999999  0.37533999999999995  0.55301  1.0000
  C   C26       1.0  0.8317000000000001  0.4696199999999999  0.56099  1.0000
  C   C27       1.0  0.74295  0.51468  0.50117  1.0000
  C   C28       1.0  0.6094600000000001  0.61394  0.5086099999999999  1.0000
  C   C29       1.0  0.49511999999999995  0.64733  0.4557999999999999  1.0000
  C   C30       1.0  0.37254000000000004  0.74155  0.46454999999999996  1.0000
  C   C31       1.0  0.46306000000000014  0.7714599999999999  0.57445  1.0000
  C   C32       1.0  0.5912099999999999  0.6790999999999998  0.56873  1.0000
  C   C33       1.0  0.49187  0.02011  0.18170999999999998  1.0000
  C   C34       1.0  0.41181  0.05803  0.25533  1.0000
  C   C35       1.0  0.43598000000000003  0.00447  0.31855  1.0000
  C   C36       1.0  0.32564999999999994  0.04407  0.3859  1.0000
  C   C37       1.0  0.5622000000000003  0.90127  0.3285799999999999  1.0000
  C   C38       1.0  0.66017  0.90344  0.39331999999999995  1.0000
  C   C39       1.0  0.74651  0.54029  0.934  1.0000
  C   C40       1.0  0.77202  0.6357599999999998  0.9304  1.0000
  C   C41       1.0  0.82822  0.62518  0.05232999999999999  1.0000
  C   C42       1.0  0.80122  0.5304999999999999  0.06035999999999999  1.0000
  C   C43       1.0  0.75825  0.48526999999999987  0.0005199999999999998  1.0000
  C   C44       1.0  0.72425  0.38591  0.00794  1.0000
  C   C45       1.0  0.6429300000000002  0.3530499999999999  0.9550999999999998  1.0000
  C   C46       1.0  0.61398  0.25894  0.96376  1.0000
  C   C47       1.0  0.73473  0.22814  0.07367  1.0000
  C   C48       1.0  0.77119  0.32034  0.06802  1.0000
  C   C49       1.0  0.98476  0.01978  0.31884  1.0000
  C   C50       1.0  0.028060000000000005  0.05697  0.24506999999999998  1.0000
  C   C51       1.0  0.056420000000000005  0.0039  0.18178  1.0000
  C   C52       1.0  0.12979  0.04366999999999999  0.11511999999999999  1.0000
  C   C53       1.0  0.03158999999999999  0.90127  0.17115999999999998  1.0000
  C   C54       1.0  0.9335500000000001  0.90414  0.10542  1.0000
  C   C55       1.0  0.21377000000000007  0.5402799999999999  0.56524  1.0000
  C   C56       1.0  0.09195000000000006  0.63538  0.5687799999999998  1.0000
  C   C57       1.0  0.04584999999999998  0.62467  0.44698999999999994  1.0000
  C   C58       1.0  0.16829999999999998  0.53039  0.43901  1.0000
  C   C59       1.0  0.25705000000000006  0.48531999999999986  0.49883999999999995  1.0000
  C   C60       1.0  0.39054  0.3860699999999999  0.49139000000000005  1.0000
  C   C61       1.0  0.50488  0.35267999999999994  0.5442099999999999  1.0000
  C   C62       1.0  0.62746  0.25846  0.53545  1.0000
  C   C63       1.0  0.53694  0.22854999999999995  0.42555  1.0000
  C   C64       1.0  0.40878  0.3209099999999999  0.43127  1.0000
  N   N1        1.0  0.18726999999999996  0.32224  0.01147  1.0000
  N   N2        1.0  0.34259  0.80203  0.97758  1.0000
  N   N3        1.0  0.99159  0.32289  0.48929999999999996  1.0000
  N   N4        1.0  0.3556000000000002  0.8021999999999998  0.5232  1.0000
  N   N5        1.0  0.81273  0.67777  0.9885399999999999  1.0000
  N   N6        1.0  0.65741  0.19797999999999993  0.02243  1.0000
  N   N7        1.0  0.008400000000000041  0.6771199999999999  0.51071  1.0000
  N   N8        1.0  0.6444  0.19781  0.47680999999999996  1.0000
  O   O1        1.0  0.45252000000000003  0.07625999999999998  0.82976  1.0000
  O   O2        1.0  0.50759  0.9086799999999998  0.86599  1.0000
  O   O3        1.0  0.73545  0.8571999999999999  0.60372  1.0000
  O   O4        1.0  0.7029299999999999  0.023419999999999996  0.57165  1.0000
  O   O5        1.0  0.33625  0.01035  0.5856199999999999  1.0000
  O   O6        1.0  0.26525  0.18463999999999994  0.5779  1.0000
  O   O7        1.0  0.4118  0.09573  0.9711699999999999  1.0000
  O   O8        1.0  0.9768900000000001  0.07639  0.66909  1.0000
  O   O9        1.0  0.08510000000000012  0.9084899999999998  0.6336599999999999  1.0000
  O   O10       1.0  0.9053300000000001  0.8574899999999999  0.89475  1.0000
  O   O11       1.0  0.7738699999999998  0.02366  0.9271199999999999  1.0000
  O   O12       1.0  0.15500000000000003  0.00943  0.9159499999999999  1.0000
  O   O13       1.0  0.05337999999999999  0.18352  0.92367  1.0000
  O   O14       1.0  0.99355  0.0962  0.52756  1.0000
  O   O15       1.0  0.54748  0.92374  0.17024  1.0000
  O   O16       1.0  0.49241000000000007  0.09132999999999997  0.13401  1.0000
  O   O17       1.0  0.26455000000000006  0.14280999999999996  0.39628  1.0000
  O   O18       1.0  0.29707  0.97659  0.4283599999999999  1.0000
  O   O19       1.0  0.6637499999999998  0.98966  0.41439  1.0000
  O   O20       1.0  0.7347499999999999  0.81536  0.4221  1.0000
  O   O21       1.0  0.5882  0.9042799999999999  0.028829999999999998  1.0000
  O   O22       1.0  0.023099999999999975  0.92362  0.33091  1.0000
  O   O23       1.0  0.9149  0.09151  0.36634  1.0000
  O   O24       1.0  0.09466999999999998  0.14252  0.10525  1.0000
  O   O25       1.0  0.2261400000000001  0.97634  0.07287999999999999  1.0000
  O   O26       1.0  0.8450000000000001  0.9905799999999999  0.08406  1.0000
  O   O27       1.0  0.94662  0.8164899999999998  0.07634  1.0000
  O   O28       1.0  0.006450000000000074  0.90381  0.47243999999999997  1.0000
