data_image0
_chemical_formula_structural       Cd8H80C88N8O32
_chemical_formula_sum              "Cd8 H80 C88 N8 O32"
_cell_length_a       9.31454
_cell_length_b       15.4419
_cell_length_c       21.09697
_cell_angle_alpha    89.87691
_cell_angle_beta     90.11091
_cell_angle_gamma    96.42955

_space_group_name_H-M_alt    "P 1"
_space_group_IT_number       1

loop_
  _space_group_symop_operation_xyz
  'x, y, z'

loop_
  _atom_site_type_symbol
  _atom_site_label
  _atom_site_symmetry_multiplicity
  _atom_site_fract_x
  _atom_site_fract_y
  _atom_site_fract_z
  _atom_site_occupancy
  Cd  Cd1       1.0  0.31511999999999996  0.6059499999999999  0.18698  1.0000
  Cd  Cd2       1.0  0.14817  0.92269  0.97873  1.0000
  Cd  Cd3       1.0  0.18564  0.89466  0.68739  1.0000
  Cd  Cd4       1.0  0.35135  0.57757  0.47851  1.0000
  Cd  Cd5       1.0  0.68488  0.39405000000000007  0.8130299999999999  1.0000
  Cd  Cd6       1.0  0.85184  0.07731  0.02127  1.0000
  Cd  Cd7       1.0  0.81436  0.10534  0.31261  1.0000
  Cd  Cd8       1.0  0.64865  0.42243  0.52149  1.0000
  H   H1        1.0  0.11111  0.71893  0.7674300000000001  1.0000
  H   H2        1.0  0.88188  0.9316699999999998  0.74721  1.0000
  H   H3        1.0  0.28211  0.67629  0.047740000000000005  1.0000
  H   H4        1.0  0.41622  0.69484  0.94465  1.0000
  H   H5        1.0  0.7382200000000001  0.5468399999999998  0.025219999999999996  1.0000
  H   H6        1.0  0.58745  0.53094  0.12379  1.0000
  H   H7        1.0  0.77396  0.60315  0.92012  1.0000
  H   H8        1.0  0.61673  0.61421  0.8755700000000001  1.0000
  H   H9        1.0  0.7840500000000001  0.76312  0.9524  1.0000
  H   H10       1.0  0.62843  0.7726  0.9075399999999999  1.0000
  H   H11       1.0  0.7110300000000002  0.8793799999999999  0.8336799999999999  1.0000
  H   H12       1.0  0.95325  0.65849  0.85619  1.0000
  H   H13       1.0  0.7570200000000001  0.81914  0.23896  1.0000
  H   H14       1.0  0.01947  0.82602  0.24988999999999997  1.0000
  H   H15       1.0  0.04717000000000001  0.88333  0.17814  1.0000
  H   H16       1.0  0.87626  0.70322  0.19243  1.0000
  H   H17       1.0  0.87841  0.69521  0.07777  1.0000
  H   H18       1.0  0.69265  0.80111  0.06151  1.0000
  H   H19       1.0  0.67177  0.73973  0.13237  1.0000
  H   H20       1.0  0.62797  0.88298  0.1595  1.0000
  H   H21       1.0  0.38933  0.78163  0.26758  1.0000
  H   H22       1.0  0.61902  0.56929  0.24743  1.0000
  H   H23       1.0  0.21933000000000002  0.82454  0.54872  1.0000
  H   H24       1.0  0.08467  0.80558  0.44557  1.0000
  H   H25       1.0  0.7623500000000002  0.95307  0.5254  1.0000
  H   H26       1.0  0.9137  0.96933  0.62406  1.0000
  H   H27       1.0  0.7256000000000001  0.89631  0.42095000000000005  1.0000
  H   H28       1.0  0.88273  0.88698  0.37618  1.0000
  H   H29       1.0  0.71867  0.73611  0.45241000000000003  1.0000
  H   H30       1.0  0.8742400000000001  0.7282899999999999  0.40726999999999997  1.0000
  H   H31       1.0  0.7908  0.62142  0.33371  1.0000
  H   H32       1.0  0.548  0.8418299999999997  0.35629  1.0000
  H   H33       1.0  0.7427  0.68087  0.73868  1.0000
  H   H34       1.0  0.47895  0.67148  0.74909  1.0000
  H   H35       1.0  0.45391  0.6151199999999998  0.67683  1.0000
  H   H36       1.0  0.62317  0.79523  0.69245  1.0000
  H   H37       1.0  0.6195200000000001  0.80465  0.57748  1.0000
  H   H38       1.0  0.80615  0.69945  0.56113  1.0000
  H   H39       1.0  0.82729  0.76066  0.63191  1.0000
  H   H40       1.0  0.8723700000000001  0.61734  0.65925  1.0000
  H   H41       1.0  0.8889  0.28107  0.23256999999999997  1.0000
  H   H42       1.0  0.11813000000000001  0.06833  0.25279  1.0000
  H   H43       1.0  0.71789  0.32371  0.9522599999999999  1.0000
  H   H44       1.0  0.58378  0.30516  0.055349999999999996  1.0000
  H   H45       1.0  0.26178  0.45316  0.9747800000000001  1.0000
  H   H46       1.0  0.41255  0.46906  0.87621  1.0000
  H   H47       1.0  0.22603999999999996  0.39685  0.07988  1.0000
  H   H48       1.0  0.38327  0.38579  0.12443000000000001  1.0000
  H   H49       1.0  0.21595  0.23688  0.0476  1.0000
  H   H50       1.0  0.37157  0.2274  0.09246  1.0000
  H   H51       1.0  0.28897  0.12063  0.16632  1.0000
  H   H52       1.0  0.04675  0.34151  0.14381  1.0000
  H   H53       1.0  0.24299  0.18086  0.7610399999999999  1.0000
  H   H54       1.0  0.9805300000000001  0.17398  0.75011  1.0000
  H   H55       1.0  0.95283  0.11667  0.82186  1.0000
  H   H56       1.0  0.12374  0.29678  0.80758  1.0000
  H   H57       1.0  0.12159  0.30479  0.92223  1.0000
  H   H58       1.0  0.30736  0.19889  0.93849  1.0000
  H   H59       1.0  0.32824  0.26027  0.8676300000000001  1.0000
  H   H60       1.0  0.3720300000000001  0.11702  0.8404999999999999  1.0000
  H   H61       1.0  0.61067  0.21837  0.73242  1.0000
  H   H62       1.0  0.38098000000000004  0.43071  0.75258  1.0000
  H   H63       1.0  0.78067  0.17546  0.45128  1.0000
  H   H64       1.0  0.9153299999999999  0.19442  0.55443  1.0000
  H   H65       1.0  0.23765  0.04693  0.4746  1.0000
  H   H66       1.0  0.0863  0.03067  0.37594  1.0000
  H   H67       1.0  0.27441  0.1037  0.57905  1.0000
  H   H68       1.0  0.11727000000000001  0.11303  0.62382  1.0000
  H   H69       1.0  0.28133  0.26389  0.5476  1.0000
  H   H70       1.0  0.12576  0.27171  0.59273  1.0000
  H   H71       1.0  0.2092  0.37858  0.66629  1.0000
  H   H72       1.0  0.45201  0.15817  0.64371  1.0000
  H   H73       1.0  0.2573  0.31913  0.26132  1.0000
  H   H74       1.0  0.52105  0.32852  0.25091  1.0000
  H   H75       1.0  0.5461  0.38488  0.32317  1.0000
  H   H76       1.0  0.37684  0.20477  0.30755  1.0000
  H   H77       1.0  0.38048  0.19535  0.42252000000000006  1.0000
  H   H78       1.0  0.19385  0.30055  0.43887  1.0000
  H   H79       1.0  0.17271  0.23934  0.36809  1.0000
  H   H80       1.0  0.12763  0.38266  0.34075  1.0000
  C   C1        1.0  0.020540000000000013  0.75182  0.78381  1.0000
  C   C2        1.0  0.8911400000000002  0.87044  0.77172  1.0000
  C   C3        1.0  0.38348000000000004  0.64868  0.04014  1.0000
  C   C4        1.0  0.45915000000000006  0.65875  0.9834100000000001  1.0000
  C   C5        1.0  0.5909  0.6236  0.97658  1.0000
  C   C6        1.0  0.6380500000000001  0.5768  0.02805  1.0000
  C   C7        1.0  0.55566  0.56804  0.08315  1.0000
  C   C8        1.0  0.67928  0.6394  0.91729  1.0000
  C   C9        1.0  0.72505  0.73796  0.90971  1.0000
  C   C10       1.0  0.81865  0.76491  0.85359  1.0000
  C   C11       1.0  0.79816  0.84148  0.8206300000000001  1.0000
  C   C12       1.0  0.93248  0.71932  0.83364  1.0000
  C   C13       1.0  0.8312399999999999  0.95079  0.2504  1.0000
  C   C14       1.0  0.8246900000000003  0.86819  0.21067  1.0000
  C   C15       1.0  0.97251  0.83491  0.20306  1.0000
  C   C16       1.0  0.9568100000000002  0.74864  0.16697  1.0000
  C   C17       1.0  0.0913  0.70098  0.16759  1.0000
  C   C18       1.0  0.8917000000000002  0.75966  0.10085  1.0000
  C   C19       1.0  0.7413500000000001  0.7914899999999999  0.10793  1.0000
  C   C20       1.0  0.74095  0.87556  0.14811  1.0000
  C   C21       1.0  0.9894200000000001  0.81668  0.05582  1.0000
  C   C22       1.0  0.79234  0.9554  0.10836  1.0000
  C   C23       1.0  0.48007000000000005  0.74873  0.284  1.0000
  C   C24       1.0  0.60976  0.63036  0.27192  1.0000
  C   C25       1.0  0.11770999999999998  0.85187  0.54089  1.0000
  C   C26       1.0  0.04173000000000003  0.84162  0.48416999999999993  1.0000
  C   C27       1.0  0.90976  0.87655  0.47715  1.0000
  C   C28       1.0  0.86268  0.92329  0.52843  1.0000
  C   C29       1.0  0.94532  0.93225  0.58354  1.0000
  C   C30       1.0  0.82106  0.86083  0.41786  1.0000
  C   C31       1.0  0.77694  0.76224  0.40981  1.0000
  C   C32       1.0  0.6828400000000001  0.73556  0.35371  1.0000
  C   C33       1.0  0.70326  0.65921  0.32075  1.0000
  C   C34       1.0  0.5686400000000001  0.7811  0.33378  1.0000
  C   C35       1.0  0.67114  0.54861  0.75037  1.0000
  C   C36       1.0  0.6758599999999999  0.63133  0.71049  1.0000
  C   C37       1.0  0.52708  0.66353  0.70248  1.0000
  C   C38       1.0  0.54237  0.75031  0.66678  1.0000
  C   C39       1.0  0.4086  0.79869  0.66753  1.0000
  C   C40       1.0  0.6070699999999999  0.74011  0.60064  1.0000
  C   C41       1.0  0.75784  0.70869  0.60759  1.0000
  C   C42       1.0  0.75925  0.6245  0.6479  1.0000
  C   C43       1.0  0.50815  0.68326  0.55604  1.0000
  C   C44       1.0  0.70692  0.54471  0.60836  1.0000
  C   C45       1.0  0.97946  0.24818  0.2162  1.0000
  C   C46       1.0  0.10886000000000001  0.12956  0.22828  1.0000
  C   C47       1.0  0.61652  0.35132  0.9598699999999999  1.0000
  C   C48       1.0  0.5408499999999999  0.3412499999999999  0.01659  1.0000
  C   C49       1.0  0.40911  0.3764  0.02342  1.0000
  C   C50       1.0  0.36195  0.4232  0.97195  1.0000
  C   C51       1.0  0.44434  0.43195999999999996  0.91686  1.0000
  C   C52       1.0  0.32072  0.3606  0.08271  1.0000
  C   C53       1.0  0.27495  0.26204  0.09029  1.0000
  C   C54       1.0  0.18135  0.23509  0.14642  1.0000
  C   C55       1.0  0.20184999999999997  0.15851999999999997  0.17937  1.0000
  C   C56       1.0  0.06752000000000001  0.28068  0.16636  1.0000
  C   C57       1.0  0.16876  0.04921  0.74961  1.0000
  C   C58       1.0  0.17531  0.13181  0.78933  1.0000
  C   C59       1.0  0.02749  0.16509  0.7969399999999999  1.0000
  C   C60       1.0  0.04319  0.25136  0.83303  1.0000
  C   C61       1.0  0.9087  0.29902  0.83241  1.0000
  C   C62       1.0  0.1083  0.24034  0.8991500000000001  1.0000
  C   C63       1.0  0.25865000000000005  0.20851  0.8920699999999999  1.0000
  C   C64       1.0  0.25906  0.12443999999999997  0.8518899999999999  1.0000
  C   C65       1.0  0.010579999999999997  0.18332  0.94418  1.0000
  C   C66       1.0  0.20766  0.0446  0.89164  1.0000
  C   C67       1.0  0.51993  0.25127  0.716  1.0000
  C   C68       1.0  0.39025  0.36964  0.72808  1.0000
  C   C69       1.0  0.88229  0.14813  0.4591100000000001  1.0000
  C   C70       1.0  0.95827  0.15837999999999994  0.51584  1.0000
  C   C71       1.0  0.09025  0.12345  0.52286  1.0000
  C   C72       1.0  0.13732  0.07671  0.47156999999999993  1.0000
  C   C73       1.0  0.054689999999999996  0.06775  0.41646  1.0000
  C   C74       1.0  0.17895000000000003  0.13917  0.58214  1.0000
  C   C75       1.0  0.22306000000000004  0.23776  0.59019  1.0000
  C   C76       1.0  0.31716  0.26444  0.64629  1.0000
  C   C77       1.0  0.29674000000000006  0.34079  0.67925  1.0000
  C   C78       1.0  0.43137  0.21889999999999998  0.66622  1.0000
  C   C79       1.0  0.32886  0.45139  0.24964  1.0000
  C   C80       1.0  0.32414  0.36867  0.28951  1.0000
  C   C81       1.0  0.47292  0.33647  0.29753  1.0000
  C   C82       1.0  0.45764  0.24969  0.33322  1.0000
  C   C83       1.0  0.5914  0.20131  0.33247  1.0000
  C   C84       1.0  0.39293000000000006  0.25989  0.39935999999999994  1.0000
  C   C85       1.0  0.24216000000000001  0.29131  0.39241  1.0000
  C   C86       1.0  0.24075000000000002  0.3755  0.3521  1.0000
  C   C87       1.0  0.4918600000000002  0.31674  0.44396  1.0000
  C   C88       1.0  0.29307999999999995  0.45529  0.39163999999999993  1.0000
  N   N1        1.0  0.0011899999999999806  0.82657  0.75327  1.0000
  N   N2        1.0  0.43137  0.60423  0.08964  1.0000
  N   N3        1.0  0.49922  0.67409  0.25354  1.0000
  N   N4        1.0  0.06987000000000003  0.8963  0.59019  1.0000
  N   N5        1.0  0.99881  0.17343  0.24673  1.0000
  N   N6        1.0  0.5686400000000001  0.39577  0.91037  1.0000
  N   N7        1.0  0.50078  0.32591  0.74646  1.0000
  N   N8        1.0  0.93013  0.1037  0.40981  1.0000
  O   O1        1.0  0.09875000000000002  0.63723  0.12985  1.0000
  O   O2        1.0  0.18732  0.72298  0.20969  1.0000
  O   O3        1.0  0.12698  0.82676  0.06272  1.0000
  O   O4        1.0  0.9294  0.85319  0.00949  1.0000
  O   O5        1.0  0.9181000000000001  0.9954299999999999  0.11349000000000001  1.0000
  O   O6        1.0  0.70038  0.97859  0.06679  1.0000
  O   O7        1.0  0.93529  0.9689399999999998  0.28906  1.0000
  O   O8        1.0  0.7269399999999999  0.9977499999999998  0.24443999999999996  1.0000
  O   O9        1.0  0.40043  0.8612  0.6286  1.0000
  O   O10       1.0  0.31461  0.77893  0.7109  1.0000
  O   O11       1.0  0.37160000000000004  0.67084  0.56479  1.0000
  O   O12       1.0  0.56554  0.6492899999999998  0.50796  1.0000
  O   O13       1.0  0.57966  0.50664  0.6123  1.0000
  O   O14       1.0  0.79974  0.51956  0.56813  1.0000
  O   O15       1.0  0.56513  0.52897  0.78773  1.0000
  O   O16       1.0  0.77765  0.50306  0.74596  1.0000
  O   O17       1.0  0.9012600000000001  0.36277  0.87015  1.0000
  O   O18       1.0  0.81268  0.27702  0.79031  1.0000
  O   O19       1.0  0.8730300000000001  0.17324  0.9372799999999999  1.0000
  O   O20       1.0  0.0706  0.14681  0.99051  1.0000
  O   O21       1.0  0.0819  0.004569999999999999  0.8865100000000001  1.0000
  O   O22       1.0  0.29962  0.02141  0.93321  1.0000
  O   O23       1.0  0.06471  0.03106  0.71094  1.0000
  O   O24       1.0  0.27306  0.0022599999999999994  0.75557  1.0000
  O   O25       1.0  0.59957  0.1388  0.3714  1.0000
  O   O26       1.0  0.68539  0.22107  0.2891  1.0000
  O   O27       1.0  0.6284  0.32916  0.43520999999999993  1.0000
  O   O28       1.0  0.4344700000000001  0.35071  0.4920399999999999  1.0000
  O   O29       1.0  0.42034  0.49336  0.3877  1.0000
  O   O30       1.0  0.20026  0.48044  0.43187  1.0000
  O   O31       1.0  0.43488  0.47103  0.21227000000000001  1.0000
  O   O32       1.0  0.22236  0.49695  0.25404  1.0000
