data_image0
_chemical_formula_structural       Zn6H60C84N24
_chemical_formula_sum              "Zn6 H60 C84 N24"
_cell_length_a       14.33179
_cell_length_b       14.331689999999998
_cell_length_c       14.3316
_cell_angle_alpha    107.42018
_cell_angle_beta     107.41736999999999
_cell_angle_gamma    107.41773

_symmetry_space_group_name_H-M    'P 1'
_symmetry_Int_Tables_number       1

loop_
  _symmetry_equiv_pos_as_xyz
  'x,y,z'

loop_
  _atom_site_type_symbol
  _atom_site_label
  _atom_site_symmetry_multiplicity
  _atom_site_fract_x
  _atom_site_fract_y
  _atom_site_fract_z
  _atom_site_occupancy
  Zn  Zn1       1.0  0.25017999999999996  0.7208199999999998  0.97717  1.0000
  Zn  Zn2       1.0  0.9771400000000002  0.2501899999999999  0.72087  1.0000
  Zn  Zn3       1.0  0.72085  0.97712  0.25017  1.0000
  Zn  Zn4       1.0  0.74982  0.27918  0.02284  1.0000
  Zn  Zn5       1.0  0.022860000000000043  0.74981  0.27914000000000005  1.0000
  Zn  Zn6       1.0  0.27915  0.022879999999999977  0.74984  1.0000
  H   H1        1.0  0.4874500000000001  0.90327  0.07882  1.0000
  H   H2        1.0  0.2799  0.57895  0.12263000000000003  1.0000
  H   H3        1.0  0.38070000000000004  0.5262300000000001  0.25554000000000004  1.0000
  H   H4        1.0  0.5784199999999999  0.6309099999999997  0.3672200000000001  1.0000
  H   H5        1.0  0.6823500000000001  0.79457  0.3513400000000001  1.0000
  H   H6        1.0  0.24736000000000016  0.79511  0.7732300000000002  1.0000
  H   H7        1.0  0.3443100000000001  0.18664000000000006  0.9867700000000003  1.0000
  H   H8        1.0  0.30298  0.92785  0.16103000000000003  1.0000
  H   H9        1.0  0.3692599999999999  0.24887999999999996  0.17881  1.0000
  H   H10       1.0  0.34914999999999996  0.12128999999999997  0.26373  1.0000
  H   H11       1.0  0.07877999999999993  0.4874499999999999  0.90332  1.0000
  H   H12       1.0  0.12259000000000002  0.27992999999999996  0.57904  1.0000
  H   H13       1.0  0.25549  0.38071999999999995  0.5262800000000001  1.0000
  H   H14       1.0  0.36718  0.57845  0.6309700000000001  1.0000
  H   H15       1.0  0.35131  0.68239  0.79461  1.0000
  H   H16       1.0  0.77326  0.24743000000000007  0.7952000000000002  1.0000
  H   H17       1.0  0.98684  0.34437  0.18673  1.0000
  H   H18       1.0  0.16099  0.30294  0.92788  1.0000
  H   H19       1.0  0.17884000000000003  0.36926999999999993  0.24893000000000007  1.0000
  H   H20       1.0  0.26372999999999996  0.34914  0.12132000000000003  1.0000
  H   H21       1.0  0.9033200000000002  0.07879  0.48745000000000005  1.0000
  H   H22       1.0  0.57897  0.12256999999999997  0.27986  1.0000
  H   H23       1.0  0.52624  0.25545  0.3806600000000001  1.0000
  H   H24       1.0  0.6309400000000002  0.36712999999999996  0.57839  1.0000
  H   H25       1.0  0.7946200000000001  0.35125  0.6823100000000002  1.0000
  H   H26       1.0  0.7951700000000005  0.77326  0.24740000000000004  1.0000
  H   H27       1.0  0.18666000000000005  0.9867799999999998  0.34427000000000013  1.0000
  H   H28       1.0  0.92792  0.16108000000000003  0.30306000000000005  1.0000
  H   H29       1.0  0.2489100000000001  0.17884000000000005  0.3692600000000001  1.0000
  H   H30       1.0  0.12133  0.2637599999999999  0.34916  1.0000
  H   H31       1.0  0.51255  0.09672999999999998  0.92118  1.0000
  H   H32       1.0  0.7201  0.42105  0.8773700000000002  1.0000
  H   H33       1.0  0.6193  0.47377  0.74446  1.0000
  H   H34       1.0  0.42158  0.36909  0.63279  1.0000
  H   H35       1.0  0.31765  0.20543  0.64866  1.0000
  H   H36       1.0  0.7526400000000002  0.20489  0.22677000000000005  1.0000
  H   H37       1.0  0.6556900000000002  0.81336  0.013230000000000004  1.0000
  H   H38       1.0  0.69702  0.07215000000000012  0.8389800000000002  1.0000
  H   H39       1.0  0.63074  0.7511199999999998  0.82119  1.0000
  H   H40       1.0  0.65085  0.8787099999999999  0.7362700000000002  1.0000
  H   H41       1.0  0.92122  0.51255  0.09669000000000003  1.0000
  H   H42       1.0  0.87741  0.7200599999999999  0.42096000000000006  1.0000
  H   H43       1.0  0.7445099999999999  0.6192799999999998  0.47372000000000003  1.0000
  H   H44       1.0  0.63282  0.42155  0.36903  1.0000
  H   H45       1.0  0.6487  0.31761  0.20539000000000004  1.0000
  H   H46       1.0  0.22674000000000005  0.7525699999999999  0.20481000000000005  1.0000
  H   H47       1.0  0.01316000000000008  0.6556200000000001  0.8132700000000003  1.0000
  H   H48       1.0  0.8390100000000003  0.69706  0.07213  1.0000
  H   H49       1.0  0.82116  0.6307299999999998  0.75107  1.0000
  H   H50       1.0  0.73627  0.65086  0.87869  1.0000
  H   H51       1.0  0.09668000000000003  0.9212099999999998  0.5125500000000001  1.0000
  H   H52       1.0  0.42103  0.87743  0.7201400000000002  1.0000
  H   H53       1.0  0.47376  0.74455  0.61934  1.0000
  H   H54       1.0  0.3690600000000001  0.63286  0.4216100000000001  1.0000
  H   H55       1.0  0.20538000000000006  0.64875  0.3177  1.0000
  H   H56       1.0  0.20484000000000013  0.22674000000000008  0.7526000000000003  1.0000
  H   H57       1.0  0.81334  0.013210000000000006  0.65574  1.0000
  H   H58       1.0  0.07208000000000009  0.83892  0.6969400000000001  1.0000
  H   H59       1.0  0.75109  0.82116  0.63074  1.0000
  H   H60       1.0  0.87868  0.73624  0.6508400000000002  1.0000
  C   C1        1.0  0.48548000000000013  0.84947  0.11852000000000003  1.0000
  C   C2        1.0  0.4256300000000002  0.71752  0.16204000000000002  1.0000
  C   C3        1.0  0.36657000000000006  0.62643  0.17204000000000005  1.0000
  C   C4        1.0  0.42402000000000006  0.59741  0.24695000000000006  1.0000
  C   C5        1.0  0.5365  0.6571799999999998  0.31085  1.0000
  C   C6        1.0  0.53911  0.77728  0.22587000000000002  1.0000
  C   C7        1.0  0.5956700000000003  0.7481399999999998  0.30167  1.0000
  C   C8        1.0  0.2669600000000001  0.8604400000000001  0.8486900000000003  1.0000
  C   C9        1.0  0.30917  0.021350000000000008  0.96675  1.0000
  C   C10       1.0  0.33563  0.1308  0.02437  1.0000
  C   C11       1.0  0.2970000000000001  0.9485  0.015580000000000004  1.0000
  C   C12       1.0  0.3119  0.9835  0.1234  1.0000
  C   C13       1.0  0.34959000000000007  0.16477999999999995  0.13153  1.0000
  C   C14       1.0  0.3379000000000001  0.09220000000000003  0.18007000000000006  1.0000
  C   C15       1.0  0.11849000000000004  0.48550000000000004  0.8495300000000002  1.0000
  C   C16       1.0  0.16201000000000004  0.42566000000000004  0.7175900000000001  1.0000
  C   C17       1.0  0.17200000000000004  0.3666  0.6265  1.0000
  C   C18       1.0  0.24691000000000002  0.42405  0.59747  1.0000
  C   C19       1.0  0.31081  0.53653  0.65723  1.0000
  C   C20       1.0  0.22583999999999999  0.5391399999999998  0.77734  1.0000
  C   C21       1.0  0.3016300000000001  0.5957  0.74819  1.0000
  C   C22       1.0  0.84872  0.26701  0.8605100000000002  1.0000
  C   C23       1.0  0.96678  0.30922999999999995  0.021410000000000005  1.0000
  C   C24       1.0  0.02439999999999999  0.33568  0.13087000000000001  1.0000
  C   C25       1.0  0.015590000000000144  0.2970300000000001  0.9485700000000002  1.0000
  C   C26       1.0  0.12339999999999995  0.3118999999999999  0.98355  1.0000
  C   C27       1.0  0.13156000000000007  0.34961  0.16484000000000004  1.0000
  C   C28       1.0  0.18007000000000004  0.3378999999999999  0.09225000000000001  1.0000
  C   C29       1.0  0.8495100000000002  0.11848000000000006  0.4854700000000001  1.0000
  C   C30       1.0  0.71756  0.16197  0.4255900000000001  1.0000
  C   C31       1.0  0.62646  0.17196000000000006  0.36653000000000013  1.0000
  C   C32       1.0  0.59743  0.24686  0.42399  1.0000
  C   C33       1.0  0.6571999999999999  0.3107699999999999  0.53647  1.0000
  C   C34       1.0  0.7773000000000001  0.22579999999999997  0.53907  1.0000
  C   C35       1.0  0.74816  0.30159  0.59563  1.0000
  C   C36       1.0  0.8604900000000002  0.8487199999999998  0.26699  1.0000
  C   C37       1.0  0.021379999999999906  0.9667799999999998  0.3091900000000001  1.0000
  C   C38       1.0  0.13083  0.024399999999999998  0.33563  1.0000
  C   C39       1.0  0.94856  0.015620000000000004  0.29707  1.0000
  C   C40       1.0  0.98355  0.12345  0.31197  1.0000
  C   C41       1.0  0.16481000000000007  0.13156  0.34960000000000013  1.0000
  C   C42       1.0  0.09225  0.18011  0.33793  1.0000
  C   C43       1.0  0.51452  0.15053000000000005  0.88148  1.0000
  C   C44       1.0  0.57437  0.28248000000000006  0.8379600000000003  1.0000
  C   C45       1.0  0.63343  0.37357  0.82797  1.0000
  C   C46       1.0  0.57598  0.40259000000000006  0.7530600000000002  1.0000
  C   C47       1.0  0.4635000000000001  0.3428199999999999  0.68915  1.0000
  C   C48       1.0  0.4608900000000001  0.22272  0.77413  1.0000
  C   C49       1.0  0.40433000000000013  0.25186  0.69834  1.0000
  C   C50       1.0  0.73305  0.13956  0.15132  1.0000
  C   C51       1.0  0.69083  0.97865  0.03325  1.0000
  C   C52       1.0  0.66437  0.8691999999999998  0.97563  1.0000
  C   C53       1.0  0.7030000000000001  0.051490000000000105  0.9844300000000002  1.0000
  C   C54       1.0  0.6881  0.016499999999999966  0.8766  1.0000
  C   C55       1.0  0.6504100000000004  0.83522  0.8684700000000002  1.0000
  C   C56       1.0  0.66211  0.9077999999999999  0.8199300000000002  1.0000
  C   C57       1.0  0.8815100000000002  0.5144999999999998  0.15048000000000003  1.0000
  C   C58       1.0  0.8379900000000002  0.5743399999999999  0.28242  1.0000
  C   C59       1.0  0.828  0.6333999999999997  0.3735100000000001  1.0000
  C   C60       1.0  0.7531  0.5759499999999999  0.4025300000000001  1.0000
  C   C61       1.0  0.6891899999999997  0.4634699999999998  0.34277  1.0000
  C   C62       1.0  0.77416  0.46086000000000005  0.22267000000000003  1.0000
  C   C63       1.0  0.6983700000000002  0.4043  0.25181000000000003  1.0000
  C   C64       1.0  0.15127999999999994  0.7329899999999998  0.13950000000000004  1.0000
  C   C65       1.0  0.03322  0.69077  0.97859  1.0000
  C   C66       1.0  0.9756  0.66432  0.8691300000000001  1.0000
  C   C67       1.0  0.9844100000000002  0.7029699999999999  0.05144  1.0000
  C   C68       1.0  0.8766000000000003  0.6881  0.01646  1.0000
  C   C69       1.0  0.8684400000000002  0.6503899999999999  0.8351700000000002  1.0000
  C   C70       1.0  0.8199300000000003  0.6620999999999998  0.90776  1.0000
  C   C71       1.0  0.15049000000000004  0.8815199999999997  0.5145400000000001  1.0000
  C   C72       1.0  0.28244  0.83803  0.57441  1.0000
  C   C73       1.0  0.37354  0.82803  0.63347  1.0000
  C   C74       1.0  0.40256999999999993  0.7531299999999999  0.5760100000000001  1.0000
  C   C75       1.0  0.3428  0.68923  0.4635300000000001  1.0000
  C   C76       1.0  0.2227  0.7741999999999998  0.46094000000000007  1.0000
  C   C77       1.0  0.2518400000000001  0.69841  0.40438000000000013  1.0000
  C   C78       1.0  0.13951000000000005  0.15128000000000005  0.7330100000000002  1.0000
  C   C79       1.0  0.9786199999999999  0.03321999999999999  0.6908100000000001  1.0000
  C   C80       1.0  0.86917  0.9756  0.6643800000000002  1.0000
  C   C81       1.0  0.05144000000000005  0.98438  0.7029400000000001  1.0000
  C   C82       1.0  0.0164500000000001  0.8765500000000002  0.6880400000000001  1.0000
  C   C83       1.0  0.83519  0.8684399999999999  0.65041  1.0000
  C   C84       1.0  0.90775  0.81989  0.66207  1.0000
  N   N1        1.0  0.39399  0.76594  0.09489  1.0000
  N   N2        1.0  0.57473  0.8603099999999998  0.19589000000000006  1.0000
  N   N3        1.0  0.27032000000000006  0.8466199999999999  0.9386400000000003  1.0000
  N   N4        1.0  0.28983  0.9629499999999999  0.8606100000000001  1.0000
  N   N5        1.0  0.0948600000000001  0.39402000000000004  0.7660000000000002  1.0000
  N   N6        1.0  0.19586000000000006  0.57475  0.8603700000000002  1.0000
  N   N7        1.0  0.9386600000000003  0.2703400000000001  0.8466700000000001  1.0000
  N   N8        1.0  0.86064  0.28991  0.9630200000000002  1.0000
  N   N9        1.0  0.76599  0.09484000000000004  0.39397000000000004  1.0000
  N   N10       1.0  0.8603500000000001  0.19583999999999996  0.5747100000000002  1.0000
  N   N11       1.0  0.84667  0.9386799999999997  0.2703900000000001  1.0000
  N   N12       1.0  0.9629900000000001  0.8606299999999998  0.28984000000000004  1.0000
  N   N13       1.0  0.6060100000000004  0.23405000000000006  0.9051100000000002  1.0000
  N   N14       1.0  0.4252700000000001  0.13968  0.80411  1.0000
  N   N15       1.0  0.72968  0.15338  0.06136  1.0000
  N   N16       1.0  0.71017  0.03705000000000001  0.1394  1.0000
  N   N17       1.0  0.9051399999999998  0.6059799999999997  0.23401  1.0000
  N   N18       1.0  0.80414  0.42525  0.13963  1.0000
  N   N19       1.0  0.06133999999999997  0.7296499999999999  0.15333  1.0000
  N   N20       1.0  0.13935999999999996  0.7100899999999998  0.03699  1.0000
  N   N21       1.0  0.23400999999999994  0.9051599999999997  0.60604  1.0000
  N   N22       1.0  0.13966000000000006  0.80416  0.4252900000000001  1.0000
  N   N23       1.0  0.15332999999999997  0.06131999999999994  0.72961  1.0000
  N   N24       1.0  0.037009999999999994  0.13937  0.71016  1.0000
