data_image0
_chemical_formula_structural       Co8H40C72N12O24
_chemical_formula_sum              "Co8 H40 C72 N12 O24"
_cell_length_a       11.85163
_cell_length_b       12.26103
_cell_length_c       17.54838
_cell_angle_alpha    86.31566
_cell_angle_beta     82.31165
_cell_angle_gamma    60.91929

_symmetry_space_group_name_H-M    'P 1'
_symmetry_Int_Tables_number       1

loop_
  _symmetry_equiv_pos_as_xyz
  'x,y,z'

loop_
  _atom_site_type_symbol
  _atom_site_label
  _atom_site_symmetry_multiplicity
  _atom_site_fract_x
  _atom_site_fract_y
  _atom_site_fract_z
  _atom_site_occupancy
  Co  Co1       1.0  0.6325500000000002  0.23109  0.89332  1.0000
  Co  Co2       1.0  0.13627000000000003  0.23133  0.60644  1.0000
  Co  Co3       1.0  0.36811000000000005  0.76851  0.10613  1.0000
  Co  Co4       1.0  0.86377  0.7693900000000001  0.39356  1.0000
  Co  Co5       1.0  0.5003800000000003  0.50004  0.99932  1.0000
  Co  Co6       1.0  0.00012000000000000078  0.50021  0.49966  1.0000
  Co  Co7       1.0  0.89677  0.20495  0.74873  1.0000
  Co  Co8       1.0  0.10369999999999994  0.7940100000000001  0.25048  1.0000
  H   H1        1.0  0.43237  0.3664  0.15356  1.0000
  H   H2        1.0  0.43367000000000006  0.32931  0.2953700000000001  1.0000
  H   H3        1.0  0.6108  0.13533  0.34468  1.0000
  H   H4        1.0  0.78991  0.02225  0.11240000000000003  1.0000
  H   H5        1.0  0.7447700000000002  0.30355  0.15851  1.0000
  H   H6        1.0  0.046069999999999986  0.3613  0.78897  1.0000
  H   H7        1.0  0.06313999999999999  0.52537  0.85482  1.0000
  H   H8        1.0  0.9026499999999998  0.6474800000000002  0.9626400000000002  1.0000
  H   H9        1.0  0.71243  0.61443  0.00844  1.0000
  H   H10       1.0  0.20171000000000008  0.36543  0.3463  1.0000
  H   H11       1.0  0.23687000000000005  0.32833  0.20444  1.0000
  H   H12       1.0  0.25347  0.1345  0.15526  1.0000
  H   H13       1.0  0.18874  0.02222  0.3877300000000001  1.0000
  H   H14       1.0  0.95139  0.30498000000000003  0.3428000000000001  1.0000
  H   H15       1.0  0.5924500000000003  0.36234  0.70943  1.0000
  H   H16       1.0  0.41008  0.52706  0.64416  1.0000
  H   H17       1.0  0.4477699999999999  0.65022  0.53708  1.0000
  H   H18       1.0  0.6711700000000002  0.6172200000000001  0.49122000000000005  1.0000
  H   H19       1.0  0.5681299999999999  0.63263  0.8465100000000002  1.0000
  H   H20       1.0  0.5676000000000002  0.66947  0.70466  1.0000
  H   H21       1.0  0.39105000000000006  0.86393  0.65509  1.0000
  H   H22       1.0  0.21076000000000006  0.97729  0.88713  1.0000
  H   H23       1.0  0.25515  0.69687  0.84157  1.0000
  H   H24       1.0  0.95542  0.63827  0.21086000000000005  1.0000
  H   H25       1.0  0.93762  0.47448000000000007  0.14506  1.0000
  H   H26       1.0  0.09794000000000001  0.35214  0.03721  1.0000
  H   H27       1.0  0.28815999999999997  0.38495  0.9911200000000001  1.0000
  H   H28       1.0  0.7988700000000001  0.63431  0.65365  1.0000
  H   H29       1.0  0.76313  0.67172  0.79551  1.0000
  H   H30       1.0  0.7460300000000001  0.86609  0.8445200000000003  1.0000
  H   H31       1.0  0.8110400000000001  0.9780200000000001  0.61218  1.0000
  H   H32       1.0  0.048169999999999887  0.69664  0.6572100000000002  1.0000
  H   H33       1.0  0.40816000000000013  0.63747  0.29015  1.0000
  H   H34       1.0  0.5902400000000001  0.47280000000000005  0.35563  1.0000
  H   H35       1.0  0.55217  0.34999  0.46287  1.0000
  H   H36       1.0  0.32853000000000004  0.38293  0.50847  1.0000
  H   H37       1.0  0.67417  0.65156  0.24943  1.0000
  H   H38       1.0  0.9072  0.18609000000000003  0.25104  1.0000
  H   H39       1.0  0.32519  0.34946  0.75011  1.0000
  H   H40       1.0  0.09255999999999998  0.8148400000000001  0.74928  1.0000
  C   C1        1.0  0.60897  0.19553  0.12466000000000002  1.0000
  C   C2        1.0  0.5093300000000001  0.28277  0.17635  1.0000
  C   C3        1.0  0.51017  0.26169  0.25528  1.0000
  C   C4        1.0  0.60964  0.15349  0.2832100000000001  1.0000
  C   C5        1.0  0.71151  0.06738  0.23196000000000003  1.0000
  C   C6        1.0  0.71154  0.08836  0.15255  1.0000
  C   C7        1.0  0.60603  0.21834  0.04094  1.0000
  C   C8        1.0  0.8188900000000001  0.95523  0.26381  1.0000
  C   C9        1.0  0.69866  0.48368  0.19918000000000005  1.0000
  C   C10       1.0  0.76599  0.35255  0.19906  1.0000
  C   C11       1.0  0.59879  0.54913  0.14491  1.0000
  C   C12       1.0  0.86733  0.39594000000000007  0.86267  1.0000
  C   C13       1.0  0.97384  0.41528  0.83607  1.0000
  C   C14       1.0  0.9829  0.50671  0.87341  1.0000
  C   C15       1.0  0.88997  0.5776900000000001  0.93521  1.0000
  C   C16       1.0  0.7845700000000004  0.55988  0.96167  1.0000
  C   C17       1.0  0.7745700000000002  0.46698000000000006  0.9245  1.0000
  C   C18       1.0  0.19623999999999997  0.19491000000000003  0.37525  1.0000
  C   C19       1.0  0.20844  0.28191  0.32352  1.0000
  C   C20       1.0  0.22815000000000007  0.26087  0.24457000000000004  1.0000
  C   C21       1.0  0.23680000000000004  0.15285  0.21671000000000007  1.0000
  C   C22       1.0  0.22163  0.06679  0.26799  1.0000
  C   C23       1.0  0.20078000000000001  0.08798  0.34740000000000004  1.0000
  C   C24       1.0  0.17630000000000004  0.21757  0.4590200000000001  1.0000
  C   C25       1.0  0.22706000000000007  0.95457  0.23603  1.0000
  C   C26       1.0  0.81744  0.48468  0.30101000000000006  1.0000
  C   C27       1.0  0.8813600000000003  0.35346  0.30199  1.0000
  C   C28       1.0  0.8520600000000003  0.55066  0.35474  1.0000
  C   C29       1.0  0.7361000000000002  0.39747  0.6359600000000001  1.0000
  C   C30       1.0  0.6101800000000001  0.4166800000000001  0.66255  1.0000
  C   C31       1.0  0.50909  0.50849  0.62557  1.0000
  C   C32       1.0  0.53072  0.57995  0.56417  1.0000
  C   C33       1.0  0.65406  0.5622  0.5377100000000001  1.0000
  C   C34       1.0  0.7576400000000002  0.46881  0.5745  1.0000
  C   C35       1.0  0.3919199999999999  0.80416  0.87518  1.0000
  C   C36       1.0  0.49157000000000006  0.71651  0.82364  1.0000
  C   C37       1.0  0.49101  0.73735  0.74466  1.0000
  C   C38       1.0  0.39174999999999993  0.8456600000000001  0.71657  1.0000
  C   C39       1.0  0.28947000000000006  0.93176  0.76765  1.0000
  C   C40       1.0  0.28929  0.9110500000000001  0.8470900000000002  1.0000
  C   C41       1.0  0.39452000000000004  0.78189  0.95896  1.0000
  C   C42       1.0  0.18152000000000015  0.04364  0.73582  1.0000
  C   C43       1.0  0.30109  0.5169  0.80063  1.0000
  C   C44       1.0  0.2338900000000002  0.64806  0.80092  1.0000
  C   C45       1.0  0.40121  0.45109  0.85474  1.0000
  C   C46       1.0  0.13399000000000003  0.60328  0.13689  1.0000
  C   C47       1.0  0.027420000000000066  0.58416  0.16371  1.0000
  C   C48       1.0  0.01799000000000003  0.49293  0.12641  1.0000
  C   C49       1.0  0.11077000000000005  0.42189  0.06456  1.0000
  C   C50       1.0  0.2162  0.4395900000000001  0.03792  1.0000
  C   C51       1.0  0.22646000000000002  0.53248  0.07492  1.0000
  C   C52       1.0  0.80373  0.8050400000000001  0.62462  1.0000
  C   C53       1.0  0.79194  0.7179  0.67642  1.0000
  C   C54       1.0  0.7719200000000002  0.73916  0.75536  1.0000
  C   C55       1.0  0.7629499999999999  0.8474  0.78312  1.0000
  C   C56       1.0  0.7783199999999999  0.9332200000000002  0.73167  1.0000
  C   C57       1.0  0.79898  0.9120700000000002  0.65234  1.0000
  C   C58       1.0  0.82366  0.78238  0.54092  1.0000
  C   C59       1.0  0.77345  0.04542000000000001  0.7630100000000001  1.0000
  C   C60       1.0  0.1820099999999999  0.51662  0.6987100000000003  1.0000
  C   C61       1.0  0.11817000000000005  0.6478  0.69798  1.0000
  C   C62       1.0  0.14738999999999997  0.45071  0.64494  1.0000
  C   C63       1.0  0.2642900000000001  0.60257  0.36374  1.0000
  C   C64       1.0  0.3902300000000001  0.58327  0.33709  1.0000
  C   C65       1.0  0.49118000000000017  0.49146  0.37418  1.0000
  C   C66       1.0  0.46936999999999995  0.4201500000000001  0.43564  1.0000
  C   C67       1.0  0.34600999999999993  0.43783000000000005  0.46202000000000004  1.0000
  C   C68       1.0  0.24261999999999992  0.5312600000000001  0.42518  1.0000
  C   C69       1.0  0.7250200000000001  0.55002  0.24989000000000003  1.0000
  C   C70       1.0  0.85635  0.28768  0.25078  1.0000
  C   C71       1.0  0.27441999999999994  0.45097000000000004  0.7498200000000002  1.0000
  C   C72       1.0  0.14335  0.71324  0.74936  1.0000
  N   N1        1.0  0.82898  0.31499  0.83988  1.0000
  N   N2        1.0  0.71961  0.33572  0.8860800000000001  1.0000
  N   N3        1.0  0.6844000000000001  0.42661  0.93677  1.0000
  N   N4        1.0  0.85573  0.31612  0.65857  1.0000
  N   N5        1.0  0.9444700000000001  0.33678  0.61267  1.0000
  N   N6        1.0  0.88854  0.42804  0.56221  1.0000
  N   N7        1.0  0.17237000000000008  0.68418  0.15959  1.0000
  N   N8        1.0  0.2813600000000001  0.66385  0.11318  1.0000
  N   N9        1.0  0.31638  0.57317  0.06238  1.0000
  N   N10       1.0  0.14467999999999998  0.68403  0.34115  1.0000
  N   N11       1.0  0.05580999999999996  0.66352  0.38702  1.0000
  N   N12       1.0  0.11170000000000002  0.57216  0.43743  1.0000
  O   O1        1.0  0.68474  0.13353  0.9924400000000001  1.0000
  O   O2        1.0  0.52144  0.32366  0.015350000000000003  1.0000
  O   O3        1.0  0.9307899999999999  0.9053000000000001  0.22354  1.0000
  O   O4        1.0  0.7925600000000002  0.91737  0.32957  1.0000
  O   O5        1.0  0.5883  0.48228  0.09742000000000002  1.0000
  O   O6        1.0  0.5300700000000003  0.66937  0.15145  1.0000
  O   O7        1.0  0.18271999999999997  0.13282  0.50748  1.0000
  O   O8        1.0  0.15493000000000007  0.32284  0.48482  1.0000
  O   O9        1.0  0.16602999999999998  0.9043200000000001  0.27656  1.0000
  O   O10       1.0  0.29069  0.91705  0.17003000000000004  1.0000
  O   O11       1.0  0.9305299999999999  0.4835800000000001  0.40177  1.0000
  O   O12       1.0  0.80011  0.67091  0.34845  1.0000
  O   O13       1.0  0.31528  0.8666  0.00735  1.0000
  O   O14       1.0  0.47934000000000015  0.6768  0.98473  1.0000
  O   O15       1.0  0.06908999999999997  0.09066  0.7755400000000001  1.0000
  O   O16       1.0  0.20796  0.08371000000000002  0.67088  1.0000
  O   O17       1.0  0.41187000000000024  0.51799  0.90214  1.0000
  O   O18       1.0  0.46992999999999996  0.33082  0.8483300000000003  1.0000
  O   O19       1.0  0.81758  0.8671300000000001  0.49255  1.0000
  O   O20       1.0  0.84481  0.6772400000000001  0.51513  1.0000
  O   O21       1.0  0.83163  0.09730000000000001  0.72113  1.0000
  O   O22       1.0  0.71263  0.08169  0.82984  1.0000
  O   O23       1.0  0.06899999999999996  0.51763  0.59786  1.0000
  O   O24       1.0  0.19936000000000004  0.33047  0.65144  1.0000
