data_image0
_chemical_formula_structural       Gd4H56C96N8O24
_chemical_formula_sum              "Gd4 H56 C96 N8 O24"
_cell_length_a       12.63163
_cell_length_b       14.26234
_cell_length_c       14.908659999999998
_cell_angle_alpha    68.71651
_cell_angle_beta     67.50706
_cell_angle_gamma    78.14956

_space_group_name_H-M_alt    "P 1"
_space_group_IT_number       1

loop_
  _space_group_symop_operation_xyz
  'x, y, z'

loop_
  _atom_site_type_symbol
  _atom_site_label
  _atom_site_symmetry_multiplicity
  _atom_site_fract_x
  _atom_site_fract_y
  _atom_site_fract_z
  _atom_site_occupancy
  Gd  Gd1       1.0  0.06384999999999998  0.51849  0.59661  1.0000
  Gd  Gd2       1.0  0.44839999999999997  0.94662  0.9054500000000002  1.0000
  Gd  Gd3       1.0  0.93615  0.48151  0.4033900000000001  1.0000
  Gd  Gd4       1.0  0.5516  0.05338  0.09456000000000003  1.0000
  H   H1        1.0  0.8020099999999998  0.21743999999999988  0.8099200000000002  1.0000
  H   H2        1.0  0.30435000000000006  0.28757999999999995  0.77515  1.0000
  H   H3        1.0  0.05508999999999997  0.21437999999999996  0.51846  1.0000
  H   H4        1.0  0.8193599999999996  0.9804899999999999  0.6893600000000002  1.0000
  H   H5        1.0  0.70609  0.7053799999999999  0.72671  1.0000
  H   H6        1.0  0.9909300000000001  0.051839999999999935  0.5397400000000001  1.0000
  H   H7        1.0  0.33367  0.27231000000000005  0.05906  1.0000
  H   H8        1.0  0.1118  0.50747  0.92306  1.0000
  H   H9        1.0  0.5170800000000001  0.94452  0.5629100000000001  1.0000
  H   H10       1.0  0.72773  0.71818  0.42732  1.0000
  H   H11       1.0  0.31900999999999996  0.5480600000000001  0.3913000000000001  1.0000
  H   H12       1.0  0.19748000000000013  0.42688  0.06167000000000001  1.0000
  H   H13       1.0  0.8972699999999998  0.65457  0.7506300000000002  1.0000
  H   H14       1.0  0.45824  0.69489  0.029260000000000008  1.0000
  H   H15       1.0  0.38617000000000007  0.9312999999999998  0.42211  1.0000
  H   H16       1.0  0.33546  0.54815  0.13217  1.0000
  H   H17       1.0  0.4777799999999999  0.82136  0.31116  1.0000
  H   H18       1.0  0.47737999999999997  0.66224  0.27620000000000006  1.0000
  H   H19       1.0  0.2324  0.9634599999999999  0.57533  1.0000
  H   H20       1.0  0.27368999999999993  0.12420999999999999  0.78733  1.0000
  H   H21       1.0  0.5995700000000002  0.87904  0.41304  1.0000
  H   H22       1.0  0.13162999999999997  0.5692600000000002  0.13256  1.0000
  H   H23       1.0  0.9799199999999999  0.67602  0.06807000000000002  1.0000
  H   H24       1.0  0.8901499999999998  0.79597  0.8152400000000002  1.0000
  H   H25       1.0  0.05131999999999987  0.9114799999999998  0.7239000000000002  1.0000
  H   H26       1.0  0.94155  0.02265000000000002  0.86454  1.0000
  H   H27       1.0  0.07634999999999993  0.16142999999999988  0.7745500000000002  1.0000
  H   H28       1.0  0.9076699999999998  0.84267  0.9718500000000002  1.0000
  H   H29       1.0  0.19799  0.78256  0.19008000000000005  1.0000
  H   H30       1.0  0.69565  0.71242  0.22485  1.0000
  H   H31       1.0  0.9449099999999998  0.78562  0.48155  1.0000
  H   H32       1.0  0.18063999999999997  0.019509999999999993  0.31064  1.0000
  H   H33       1.0  0.29391  0.29462  0.2733  1.0000
  H   H34       1.0  0.009069999999999972  0.94816  0.46026  1.0000
  H   H35       1.0  0.66633  0.7276899999999998  0.9409400000000002  1.0000
  H   H36       1.0  0.8881999999999999  0.49252999999999997  0.07694000000000002  1.0000
  H   H37       1.0  0.48292  0.055480000000000015  0.43709  1.0000
  H   H38       1.0  0.2722799999999999  0.28182  0.57269  1.0000
  H   H39       1.0  0.68099  0.45194  0.6087  1.0000
  H   H40       1.0  0.8025199999999997  0.57312  0.9383400000000002  1.0000
  H   H41       1.0  0.10272999999999999  0.34543  0.24937000000000006  1.0000
  H   H42       1.0  0.5417599999999999  0.30510999999999994  0.9707400000000003  1.0000
  H   H43       1.0  0.6138299999999999  0.06869999999999996  0.5778900000000001  1.0000
  H   H44       1.0  0.6645400000000001  0.4518499999999999  0.86783  1.0000
  H   H45       1.0  0.5222199999999999  0.17863999999999983  0.6888400000000002  1.0000
  H   H46       1.0  0.52262  0.3377599999999999  0.7238000000000002  1.0000
  H   H47       1.0  0.7675999999999997  0.03653999999999999  0.4246700000000001  1.0000
  H   H48       1.0  0.7263100000000001  0.87579  0.21268000000000006  1.0000
  H   H49       1.0  0.4004299999999998  0.12095999999999996  0.5869600000000001  1.0000
  H   H50       1.0  0.8683699999999998  0.43074000000000007  0.86745  1.0000
  H   H51       1.0  0.020079999999999973  0.32398  0.93193  1.0000
  H   H52       1.0  0.10984999999999998  0.20403  0.18477  1.0000
  H   H53       1.0  0.94868  0.08852000000000002  0.2761  1.0000
  H   H54       1.0  0.05845000000000001  0.9773499999999999  0.13546000000000002  1.0000
  H   H55       1.0  0.92365  0.83857  0.22545000000000007  1.0000
  H   H56       1.0  0.09234  0.15733  0.02815  1.0000
  C   C1        1.0  0.84162  0.18212999999999982  0.7499800000000002  1.0000
  C   C2        1.0  0.7012499999999998  0.04737999999999996  0.8496000000000002  1.0000
  C   C3        1.0  0.80109  0.09371999999999994  0.7588600000000001  1.0000
  C   C4        1.0  0.9665600000000001  0.32685  0.64529  1.0000
  C   C5        1.0  0.9303399999999998  0.22714  0.66159  1.0000
  C   C6        1.0  0.4035999999999999  0.1739699999999999  0.9164200000000002  1.0000
  C   C7        1.0  0.60718  0.82966  0.65257  1.0000
  C   C8        1.0  0.2816299999999998  0.3173599999999999  0.8382300000000003  1.0000
  C   C9        1.0  0.32743999999999995  0.26946999999999993  0.9170800000000001  1.0000
  C   C10       1.0  0.98474  0.17975  0.5860500000000001  1.0000
  C   C11       1.0  0.14177000000000003  0.74564  0.58724  1.0000
  C   C12       1.0  0.23556999999999995  0.7229499999999999  0.5033500000000001  1.0000
  C   C13       1.0  0.8532999999999998  0.04816999999999991  0.6817900000000002  1.0000
  C   C14       1.0  0.15302999999999997  0.44804000000000005  0.75758  1.0000
  C   C15       1.0  0.6829800000000004  0.7426099999999998  0.65814  1.0000
  C   C16       1.0  0.9476999999999999  0.08908999999999999  0.59776  1.0000
  C   C17       1.0  0.2046999999999999  0.4029999999999999  0.8403300000000002  1.0000
  C   C18       1.0  0.8040100000000001  0.60798  0.58002  1.0000
  C   C19       1.0  0.55508  0.87008  0.7406900000000001  1.0000
  C   C20       1.0  0.29796999999999985  0.30975  0.9976100000000002  1.0000
  C   C21       1.0  0.18124  0.8991599999999998  0.9218600000000002  1.0000
  C   C22       1.0  0.7254699999999997  0.7026299999999999  0.57698  1.0000
  C   C23       1.0  0.1734499999999998  0.44179  0.9217000000000002  1.0000
  C   C24       1.0  0.2228799999999998  0.80196  0.9774800000000002  1.0000
  C   C25       1.0  0.3232200000000002  0.79115  0.44458  1.0000
  C   C26       1.0  0.5774000000000001  0.87809  0.5641900000000001  1.0000
  C   C27       1.0  0.6946199999999998  0.75167  0.48877  1.0000
  C   C28       1.0  0.3216499999999998  0.61787  0.40388  1.0000
  C   C29       1.0  0.2212799999999999  0.39578  0.9992500000000001  1.0000
  C   C30       1.0  0.96641  0.7047699999999999  0.7148000000000001  1.0000
  C   C31       1.0  0.14349999999999993  0.8309199999999999  0.6147900000000002  1.0000
  C   C32       1.0  0.06731999999999988  0.9126399999999999  0.9196000000000002  1.0000
  C   C33       1.0  0.14837999999999996  0.72231  0.03051  1.0000
  C   C34       1.0  0.37005  0.70055  0.03132  1.0000
  C   C35       1.0  0.3195299999999999  0.87915  0.4710900000000001  1.0000
  C   C36       1.0  0.30116  0.6184199999999997  0.08815  1.0000
  C   C37       1.0  0.4114300000000003  0.7691699999999999  0.36021  1.0000
  C   C38       1.0  0.41052000000000005  0.68206  0.34015  1.0000
  C   C39       1.0  0.23422000000000012  0.89722  0.55457  1.0000
  C   C40       1.0  0.21406999999999995  0.0654  0.8225100000000001  1.0000
  C   C41       1.0  0.6222099999999998  0.84019  0.4818  1.0000
  C   C42       1.0  0.18982  0.62935  0.08797  1.0000
  C   C43       1.0  0.03438000000000006  0.7385799999999998  0.026490000000000007  1.0000
  C   C44       1.0  0.96275  0.78474  0.74996  1.0000
  C   C45       1.0  0.05167  0.8479  0.69984  1.0000
  C   C46       1.0  0.029279999999999903  0.009189999999999945  0.8653900000000002  1.0000
  C   C47       1.0  0.10318999999999989  0.08570999999999995  0.8157600000000003  1.0000
  C   C48       1.0  0.9952099999999998  0.83014  0.97308  1.0000
  C   C49       1.0  0.15838  0.81787  0.25002  1.0000
  C   C50       1.0  0.2987499999999999  0.95262  0.1504  1.0000
  C   C51       1.0  0.19891000000000003  0.90628  0.24115000000000006  1.0000
  C   C52       1.0  0.03344000000000001  0.6731499999999998  0.35471000000000014  1.0000
  C   C53       1.0  0.06965999999999996  0.77286  0.33841  1.0000
  C   C54       1.0  0.5964  0.82603  0.08358  1.0000
  C   C55       1.0  0.3928199999999999  0.17033999999999994  0.34744000000000014  1.0000
  C   C56       1.0  0.7183700000000001  0.6826399999999999  0.16178  1.0000
  C   C57       1.0  0.67256  0.7305299999999999  0.08292000000000002  1.0000
  C   C58       1.0  0.015259999999999984  0.82025  0.41395000000000004  1.0000
  C   C59       1.0  0.8582299999999999  0.25436  0.41277  1.0000
  C   C60       1.0  0.7644299999999998  0.27705  0.49666  1.0000
  C   C61       1.0  0.1467  0.95183  0.31821  1.0000
  C   C62       1.0  0.84697  0.5519599999999998  0.24242000000000005  1.0000
  C   C63       1.0  0.31701999999999997  0.25739  0.34186  1.0000
  C   C64       1.0  0.05229999999999997  0.9109099999999998  0.4022400000000001  1.0000
  C   C65       1.0  0.7953  0.597  0.15967  1.0000
  C   C66       1.0  0.19598999999999991  0.3920199999999999  0.41998000000000013  1.0000
  C   C67       1.0  0.44493  0.12992  0.25931  1.0000
  C   C68       1.0  0.70203  0.69025  0.002390000000000001  1.0000
  C   C69       1.0  0.81876  0.10084000000000001  0.07814  1.0000
  C   C70       1.0  0.27453  0.29736999999999997  0.42302  1.0000
  C   C71       1.0  0.8265499999999999  0.55821  0.07830000000000002  1.0000
  C   C72       1.0  0.7771199999999999  0.19803999999999994  0.02253  1.0000
  C   C73       1.0  0.67678  0.20884999999999995  0.5554200000000001  1.0000
  C   C74       1.0  0.4225999999999999  0.12190999999999999  0.43581000000000003  1.0000
  C   C75       1.0  0.3053799999999999  0.24832999999999986  0.5112300000000001  1.0000
  C   C76       1.0  0.67835  0.3821299999999999  0.5961200000000001  1.0000
  C   C77       1.0  0.7787199999999997  0.60422  0.00075  1.0000
  C   C78       1.0  0.033590000000000016  0.29523  0.28521  1.0000
  C   C79       1.0  0.8564999999999999  0.16907999999999992  0.38521000000000005  1.0000
  C   C80       1.0  0.93268  0.08736  0.08041  1.0000
  C   C81       1.0  0.8516199999999998  0.2776899999999999  0.9694900000000002  1.0000
  C   C82       1.0  0.62995  0.29945  0.9686900000000003  1.0000
  C   C83       1.0  0.68047  0.12084999999999997  0.52892  1.0000
  C   C84       1.0  0.69884  0.3815799999999998  0.9118600000000002  1.0000
  C   C85       1.0  0.58857  0.23083  0.6398000000000001  1.0000
  C   C86       1.0  0.5894800000000001  0.31794  0.65985  1.0000
  C   C87       1.0  0.76578  0.10277999999999995  0.4454300000000001  1.0000
  C   C88       1.0  0.78593  0.9346  0.1775  1.0000
  C   C89       1.0  0.37779  0.15981  0.51821  1.0000
  C   C90       1.0  0.8101899999999999  0.37065  0.9120300000000001  1.0000
  C   C91       1.0  0.9656199999999998  0.26142  0.9735100000000002  1.0000
  C   C92       1.0  0.03724999999999999  0.21526000000000003  0.25004  1.0000
  C   C93       1.0  0.94833  0.15210000000000004  0.30017  1.0000
  C   C94       1.0  0.97073  0.99081  0.13462000000000002  1.0000
  C   C95       1.0  0.89681  0.9142899999999998  0.18424000000000004  1.0000
  C   C96       1.0  0.004799999999999996  0.16986  0.026930000000000006  1.0000
  N   N1        1.0  0.23526  0.6373099999999999  0.48299  1.0000
  N   N2        1.0  0.05323999999999992  0.6848999999999998  0.6362500000000002  1.0000
  N   N3        1.0  0.25231999999999993  0.9756900000000001  0.8745900000000002  1.0000
  N   N4        1.0  0.3323599999999999  0.7900999999999998  0.9783900000000002  1.0000
  N   N5        1.0  0.76474  0.36269  0.5170100000000001  1.0000
  N   N6        1.0  0.94676  0.31509999999999994  0.3637500000000001  1.0000
  N   N7        1.0  0.74768  0.02430999999999999  0.12541000000000002  1.0000
  N   N8        1.0  0.6676399999999999  0.2099  0.02161  1.0000
  O   O1        1.0  0.05122000000000006  0.49095999999999995  0.77767  1.0000
  O   O2        1.0  0.69729  0.04516  0.93703  1.0000
  O   O3        1.0  0.6292999999999999  0.012919999999999997  0.83134  1.0000
  O   O4        1.0  0.9688999999999999  0.39693  0.5607  1.0000
  O   O5        1.0  0.57186  0.82037  0.82533  1.0000
  O   O6        1.0  0.80755  0.56391  0.51829  1.0000
  O   O7        1.0  0.8617799999999998  0.57882  0.64088  1.0000
  O   O8        1.0  0.49219999999999997  0.95398  0.7299900000000001  1.0000
  O   O9        1.0  0.46581999999999996  0.14453999999999995  0.9729400000000002  1.0000
  O   O10       1.0  0.99599  0.34240999999999994  0.7103500000000003  1.0000
  O   O11       1.0  0.21191999999999994  0.4396899999999999  0.6690600000000002  1.0000
  O   O12       1.0  0.40131  0.12572000000000003  0.85995  1.0000
  O   O13       1.0  0.9487799999999998  0.50904  0.22233  1.0000
  O   O14       1.0  0.30270999999999987  0.95484  0.06298  1.0000
  O   O15       1.0  0.37070000000000003  0.98708  0.16866000000000006  1.0000
  O   O16       1.0  0.031109999999999978  0.60307  0.43931000000000003  1.0000
  O   O17       1.0  0.42814  0.17963  0.17468  1.0000
  O   O18       1.0  0.19245999999999996  0.43609  0.48171  1.0000
  O   O19       1.0  0.13821999999999995  0.42118  0.35912  1.0000
  O   O20       1.0  0.5077999999999999  0.04601999999999997  0.27001000000000003  1.0000
  O   O21       1.0  0.53418  0.85546  0.027070000000000007  1.0000
  O   O22       1.0  0.0040099999999999875  0.65759  0.28965  1.0000
  O   O23       1.0  0.7880799999999999  0.56031  0.33095  1.0000
  O   O24       1.0  0.5987000000000001  0.8742799999999998  0.14005000000000004  1.0000
