data_image0
_chemical_formula_structural       Cu4H52C84N16O16
_chemical_formula_sum              "Cu4 H52 C84 N16 O16"
_cell_length_a       12.18377
_cell_length_b       14.347449999999998
_cell_length_c       20.16231
_cell_angle_alpha    90.0
_cell_angle_beta     90.0
_cell_angle_gamma    89.98768

_space_group_name_H-M_alt    "P 1"
_space_group_IT_number       1

loop_
  _space_group_symop_operation_xyz
  'x, y, z'

loop_
  _atom_site_type_symbol
  _atom_site_label
  _atom_site_symmetry_multiplicity
  _atom_site_fract_x
  _atom_site_fract_y
  _atom_site_fract_z
  _atom_site_occupancy
  Cu  Cu1       1.0  0.24638  0.0776  0.0  1.0000
  Cu  Cu2       1.0  0.25331  0.57791  0.5  1.0000
  Cu  Cu3       1.0  0.7536199999999998  0.9224  0.0  1.0000
  Cu  Cu4       1.0  0.7467  0.42209  0.5  1.0000
  H   H1        1.0  0.03852  0.10392  0.0  1.0000
  H   H2        1.0  0.50165  0.66672  0.38882  1.0000
  H   H3        1.0  0.021669999999999995  0.77588  0.22575000000000003  1.0000
  H   H4        1.0  0.0017299999999999998  0.83345  0.88857  1.0000
  H   H5        1.0  0.49834999999999996  0.3332800000000001  0.61118  1.0000
  H   H6        1.0  0.9783299999999999  0.22412  0.77425  1.0000
  H   H7        1.0  0.16159  0.4096  0.26688  1.0000
  H   H8        1.0  0.56415  0.80599  0.16908  1.0000
  H   H9        1.0  0.33863  0.90993  0.23293999999999998  1.0000
  H   H10       1.0  0.38007  0.82655  0.33766  1.0000
  H   H11       1.0  0.79551  0.49983  0.35359  1.0000
  H   H12       1.0  0.20449999999999996  0.50017  0.64641  1.0000
  H   H13       1.0  0.4788  0.27576  0.72559  1.0000
  H   H14       1.0  0.70449  0.99964  0.1463  1.0000
  H   H15       1.0  0.61993  0.17345  0.33766  1.0000
  H   H16       1.0  0.5212  0.72424  0.27441  1.0000
  H   H17       1.0  0.20449999999999996  0.50017  0.35359  1.0000
  H   H18       1.0  0.4788  0.27576  0.27441  1.0000
  H   H19       1.0  0.66137  0.09007  0.23293999999999998  1.0000
  H   H20       1.0  0.29551  0.00036  0.1463  1.0000
  H   H21       1.0  0.5212  0.72424  0.72559  1.0000
  H   H22       1.0  0.0017299999999999998  0.83345  0.11143000000000002  1.0000
  H   H23       1.0  0.33863  0.90993  0.76706  1.0000
  H   H24       1.0  0.99827  0.16655  0.88857  1.0000
  H   H25       1.0  0.12074  0.32629  0.16205  1.0000
  H   H26       1.0  0.49834999999999996  0.3332800000000001  0.38882  1.0000
  H   H27       1.0  0.9348099999999999  0.30609  0.33091  1.0000
  H   H28       1.0  0.12074  0.32629  0.83795  1.0000
  H   H29       1.0  0.06519  0.69391  0.33091  1.0000
  H   H30       1.0  0.16159  0.4096  0.73312  1.0000
  H   H31       1.0  0.50165  0.66672  0.61118  1.0000
  H   H32       1.0  0.79551  0.49983  0.64641  1.0000
  H   H33       1.0  0.66137  0.09007  0.76706  1.0000
  H   H34       1.0  0.9783299999999999  0.22412  0.22575000000000003  1.0000
  H   H35       1.0  0.021669999999999995  0.77588  0.77425  1.0000
  H   H36       1.0  0.53846  0.39601  0.5  1.0000
  H   H37       1.0  0.56415  0.80599  0.8309200000000001  1.0000
  H   H38       1.0  0.43585  0.19401  0.16908  1.0000
  H   H39       1.0  0.99827  0.16655  0.11143000000000002  1.0000
  H   H40       1.0  0.96148  0.89608  0.0  1.0000
  H   H41       1.0  0.06519  0.69391  0.66909  1.0000
  H   H42       1.0  0.38007  0.82655  0.66234  1.0000
  H   H43       1.0  0.8792699999999999  0.67371  0.83795  1.0000
  H   H44       1.0  0.61993  0.17345  0.66234  1.0000
  H   H45       1.0  0.8792699999999999  0.67371  0.16205  1.0000
  H   H46       1.0  0.46154999999999996  0.60399  0.5  1.0000
  H   H47       1.0  0.29551  0.00036  0.8537  1.0000
  H   H48       1.0  0.43585  0.19401  0.8309200000000001  1.0000
  H   H49       1.0  0.83841  0.5904  0.73312  1.0000
  H   H50       1.0  0.9348099999999999  0.30609  0.66909  1.0000
  H   H51       1.0  0.70449  0.99964  0.8537  1.0000
  H   H52       1.0  0.83841  0.5904  0.26688  1.0000
  C   C1        1.0  0.87504  0.25947  0.30845  1.0000
  C   C2        1.0  0.12495999999999999  0.74053  0.69155  1.0000
  C   C3        1.0  0.17784  0.84806  0.77933  1.0000
  C   C4        1.0  0.75841  0.80115  0.09955000000000001  1.0000
  C   C5        1.0  0.84272  0.10486  0.8426400000000001  1.0000
  C   C6        1.0  0.30239  0.81562  0.68774  1.0000
  C   C7        1.0  0.77782  0.63778  0.24612000000000003  1.0000
  C   C8        1.0  0.69761  0.18438  0.31226  1.0000
  C   C9        1.0  0.27827  0.86241  0.74627  1.0000
  C   C10       1.0  0.92669  0.12099  0.11166  1.0000
  C   C11       1.0  0.27428  0.25299  0.8400800000000002  1.0000
  C   C12       1.0  0.25892  0.69947  0.40054  1.0000
  C   C13       1.0  0.17784  0.84806  0.22067  1.0000
  C   C14       1.0  0.6003  0.71303  0.74945  1.0000
  C   C15       1.0  0.24158999999999994  0.19885  0.09955000000000001  1.0000
  C   C16       1.0  0.6571599999999999  0.60505  0.34266  1.0000
  C   C17       1.0  0.72572  0.74701  0.8400800000000002  1.0000
  C   C18       1.0  0.72173  0.13759  0.74627  1.0000
  C   C19       1.0  0.84272  0.10486  0.15736  1.0000
  C   C20       1.0  0.30239  0.81562  0.31226  1.0000
  C   C21       1.0  0.6571599999999999  0.60505  0.65734  1.0000
  C   C22       1.0  0.77782  0.63778  0.75388  1.0000
  C   C23       1.0  0.67748  0.65212  0.2793  1.0000
  C   C24       1.0  0.77744  0.03428  0.12808  1.0000
  C   C25       1.0  0.25892  0.69947  0.59946  1.0000
  C   C26       1.0  0.80161  0.68451  0.8124800000000001  1.0000
  C   C27       1.0  0.8991299999999999  0.21297  0.75053  1.0000
  C   C28       1.0  0.24158999999999994  0.19885  0.9004500000000001  1.0000
  C   C29       1.0  0.69761  0.18438  0.68774  1.0000
  C   C30       1.0  0.22218999999999994  0.36222  0.75388  1.0000
  C   C31       1.0  0.22218999999999994  0.36222  0.24612000000000003  1.0000
  C   C32       1.0  0.32252  0.34788  0.2793  1.0000
  C   C33       1.0  0.82216  0.15194  0.22067  1.0000
  C   C34       1.0  0.12495999999999999  0.74053  0.30845  1.0000
  C   C35       1.0  0.72257  0.53446  0.37188  1.0000
  C   C36       1.0  0.75841  0.80115  0.9004500000000001  1.0000
  C   C37       1.0  0.3997  0.28697  0.25055  1.0000
  C   C38       1.0  0.22257  0.9657200000000001  0.12808  1.0000
  C   C39       1.0  0.15728  0.89514  0.15736  1.0000
  C   C40       1.0  0.4740599999999999  0.45  0.5  1.0000
  C   C41       1.0  0.87504  0.25947  0.69155  1.0000
  C   C42       1.0  0.92669  0.12099  0.88834  1.0000
  C   C43       1.0  0.4268  0.37892  0.61159  1.0000
  C   C44       1.0  0.22663  0.75313  0.66009  1.0000
  C   C45       1.0  0.72257  0.53446  0.62812  1.0000
  C   C46       1.0  0.77744  0.03428  0.87192  1.0000
  C   C47       1.0  0.9740899999999999  0.05000000000000001  0.0  1.0000
  C   C48       1.0  0.7410899999999998  0.30053  0.59946  1.0000
  C   C49       1.0  0.22257  0.9657200000000001  0.87192  1.0000
  C   C50       1.0  0.5732  0.62108  0.38841  1.0000
  C   C51       1.0  0.7733699999999999  0.24687  0.66009  1.0000
  C   C52       1.0  0.34285  0.39495  0.34266  1.0000
  C   C53       1.0  0.07331  0.87901  0.11166  1.0000
  C   C54       1.0  0.67748  0.65212  0.7207  1.0000
  C   C55       1.0  0.27743  0.46554  0.62812  1.0000
  C   C56       1.0  0.27428  0.25299  0.15992  1.0000
  C   C57       1.0  0.3997  0.28697  0.74945  1.0000
  C   C58       1.0  0.10088  0.78703  0.75053  1.0000
  C   C59       1.0  0.34285  0.39495  0.65734  1.0000
  C   C60       1.0  0.72572  0.74701  0.15992  1.0000
  C   C61       1.0  0.07331  0.87901  0.88834  1.0000
  C   C62       1.0  0.27743  0.46554  0.37188  1.0000
  C   C63       1.0  0.62407  0.75942  0.80854  1.0000
  C   C64       1.0  0.02592  0.95  0.0  1.0000
  C   C65       1.0  0.72173  0.13759  0.25373  1.0000
  C   C66       1.0  0.27827  0.86241  0.25373  1.0000
  C   C67       1.0  0.8991299999999999  0.21297  0.24947  1.0000
  C   C68       1.0  0.22663  0.75313  0.33991  1.0000
  C   C69       1.0  0.4268  0.37892  0.38841  1.0000
  C   C70       1.0  0.62407  0.75942  0.19146  1.0000
  C   C71       1.0  0.82216  0.15194  0.77933  1.0000
  C   C72       1.0  0.15728  0.89514  0.8426400000000001  1.0000
  C   C73       1.0  0.37593  0.24058  0.19146  1.0000
  C   C74       1.0  0.37593  0.24058  0.80854  1.0000
  C   C75       1.0  0.7733699999999999  0.24687  0.33991  1.0000
  C   C76       1.0  0.52594  0.55  0.5  1.0000
  C   C77       1.0  0.19838999999999998  0.31549  0.8124800000000001  1.0000
  C   C78       1.0  0.19838999999999998  0.31549  0.18752  1.0000
  C   C79       1.0  0.5732  0.62108  0.61159  1.0000
  C   C80       1.0  0.7410899999999998  0.30053  0.40054  1.0000
  C   C81       1.0  0.32252  0.34788  0.7207  1.0000
  C   C82       1.0  0.6003  0.71303  0.25055  1.0000
  C   C83       1.0  0.10088  0.78703  0.24947  1.0000
  C   C84       1.0  0.80161  0.68451  0.18752  1.0000
  N   N1        1.0  0.81752  0.00916  0.93101  1.0000
  N   N2        1.0  0.18248  0.99084  0.93101  1.0000
  N   N3        1.0  0.68258  0.50921  0.56901  1.0000
  N   N4        1.0  0.9083  0.06309  0.05915  1.0000
  N   N5        1.0  0.09171  0.93691  0.9408500000000001  1.0000
  N   N6        1.0  0.59175  0.56313  0.44088  1.0000
  N   N7        1.0  0.9083  0.06309  0.9408500000000001  1.0000
  N   N8        1.0  0.40826  0.43687000000000004  0.55912  1.0000
  N   N9        1.0  0.81752  0.00916  0.06899  1.0000
  N   N10       1.0  0.09171  0.93691  0.05915  1.0000
  N   N11       1.0  0.31742  0.49079  0.56901  1.0000
  N   N12       1.0  0.68258  0.50921  0.43098999999999993  1.0000
  N   N13       1.0  0.40826  0.43687000000000004  0.44088  1.0000
  N   N14       1.0  0.59175  0.56313  0.55912  1.0000
  N   N15       1.0  0.18248  0.99084  0.06899  1.0000
  N   N16       1.0  0.31742  0.49079  0.43098999999999993  1.0000
  O   O1        1.0  0.85622  0.79868  0.08001  1.0000
  O   O2        1.0  0.31745  0.14874000000000004  0.9287  1.0000
  O   O3        1.0  0.14378  0.20132  0.08001  1.0000
  O   O4        1.0  0.68256  0.8512600000000001  0.0713  1.0000
  O   O5        1.0  0.14378  0.20132  0.91999  1.0000
  O   O6        1.0  0.85622  0.79868  0.91999  1.0000
  O   O7        1.0  0.31745  0.14874000000000004  0.0713  1.0000
  O   O8        1.0  0.183  0.64829  0.42774  1.0000
  O   O9        1.0  0.183  0.64829  0.57226  1.0000
  O   O10       1.0  0.64407  0.29656  0.42130000000000006  1.0000
  O   O11       1.0  0.81701  0.35171  0.57226  1.0000
  O   O12       1.0  0.64407  0.29656  0.5787  1.0000
  O   O13       1.0  0.35593  0.70344  0.42130000000000006  1.0000
  O   O14       1.0  0.35593  0.70344  0.5787  1.0000
  O   O15       1.0  0.68256  0.8512600000000001  0.9287  1.0000
  O   O16       1.0  0.81701  0.35171  0.42774  1.0000
