data_image0
_chemical_formula_structural       U8H24C64S8O56
_chemical_formula_sum              "U8 H24 C64 S8 O56"
_cell_length_a       11.27701
_cell_length_b       14.52304
_cell_length_c       20.52231
_cell_angle_alpha    89.93312
_cell_angle_beta     90.03776999999998
_cell_angle_gamma    110.33174

_space_group_name_H-M_alt    "P 1"
_space_group_IT_number       1

loop_
  _space_group_symop_operation_xyz
  'x, y, z'

loop_
  _atom_site_type_symbol
  _atom_site_label
  _atom_site_symmetry_multiplicity
  _atom_site_fract_x
  _atom_site_fract_y
  _atom_site_fract_z
  _atom_site_occupancy
  U   U1        1.0  0.86725  0.12155999999999997  0.52257  1.0000
  U   U2        1.0  0.60739  0.0464  0.7778999999999999  1.0000
  U   U3        1.0  0.13831999999999994  0.3766299999999999  0.01878  1.0000
  U   U4        1.0  0.39355  0.4546599999999999  0.27468  1.0000
  U   U5        1.0  0.13768999999999984  0.8786599999999998  0.47924  1.0000
  U   U6        1.0  0.3926499999999998  0.9536599999999997  0.22170999999999996  1.0000
  U   U7        1.0  0.8613599999999999  0.62251  0.9808499999999999  1.0000
  U   U8        1.0  0.6071799999999999  0.54467  0.72504  1.0000
  H   H1        1.0  0.25778  0.0318  0.65438  1.0000
  H   H2        1.0  0.11415999999999998  0.010089999999999997  0.84746  1.0000
  H   H3        1.0  0.8579899999999999  0.9529699999999998  0.68587  1.0000
  H   H4        1.0  0.9464499999999998  0.21667999999999998  0.8250299999999999  1.0000
  H   H5        1.0  0.35126  0.33711  0.8108499999999997  1.0000
  H   H6        1.0  0.12708999999999998  0.23818999999999996  0.64041  1.0000
  H   H7        1.0  0.7417  0.46848  0.15400999999999998  1.0000
  H   H8        1.0  0.8855099999999999  0.48975  0.34728  1.0000
  H   H9        1.0  0.14148999999999995  0.5473699999999999  0.18582  1.0000
  H   H10       1.0  0.05299999999999998  0.28331  0.32478  1.0000
  H   H11       1.0  0.64863  0.16300999999999996  0.31070999999999993  1.0000
  H   H12       1.0  0.8726299999999999  0.26185  0.14014  1.0000
  H   H13       1.0  0.7422999999999998  0.96853  0.34553  1.0000
  H   H14       1.0  0.8856199999999997  0.9896399999999997  0.15239  1.0000
  H   H15       1.0  0.14193999999999998  0.047359999999999985  0.31387  1.0000
  H   H16       1.0  0.05371999999999999  0.78345  0.17506  1.0000
  H   H17       1.0  0.6487099999999999  0.6628399999999999  0.18892999999999996  1.0000
  H   H18       1.0  0.87257  0.76161  0.35944  1.0000
  H   H19       1.0  0.25828  0.53159  0.8459099999999999  1.0000
  H   H20       1.0  0.11438000000000002  0.51017  0.65268  1.0000
  H   H21       1.0  0.8584899999999999  0.4528699999999999  0.81425  1.0000
  H   H22       1.0  0.94712  0.7166699999999998  0.6754699999999999  1.0000
  H   H23       1.0  0.3518  0.83721  0.68942  1.0000
  H   H24       1.0  0.12753999999999988  0.7380099999999998  0.86003  1.0000
  C   C1        1.0  0.035089999999999955  0.9958  0.5921399999999999  1.0000
  C   C2        1.0  0.33456  0.05570999999999999  0.77864  1.0000
  C   C3        1.0  0.055089999999999965  0.9931399999999999  0.6622499999999998  1.0000
  C   C4        1.0  0.17736  0.01501  0.68677  1.0000
  C   C5        1.0  0.20028  0.02423  0.75351  1.0000
  C   C6        1.0  0.09627  0.00229  0.7954499999999999  1.0000
  C   C7        1.0  0.97333  0.9758599999999997  0.77158  1.0000
  C   C8        1.0  0.9530399999999999  0.9718599999999997  0.70487  1.0000
  C   C9        1.0  0.89491  0.1768  0.6925599999999998  1.0000
  C   C10       1.0  0.15423  0.30071  0.89705  1.0000
  C   C11       1.0  0.019169999999999982  0.22113999999999995  0.72737  1.0000
  C   C12       1.0  0.02989999999999999  0.23717999999999995  0.7947899999999998  1.0000
  C   C13       1.0  0.14741999999999997  0.27898999999999996  0.82588  1.0000
  C   C14       1.0  0.25844  0.30408  0.78896  1.0000
  C   C15       1.0  0.25003  0.28849  0.72213  1.0000
  C   C16       1.0  0.13240999999999997  0.24887999999999993  0.69255  1.0000
  C   C17       1.0  0.96491  0.5046199999999998  0.09241999999999999  1.0000
  C   C18       1.0  0.6653399999999999  0.4440899999999999  0.27845999999999993  1.0000
  C   C19       1.0  0.94383  0.50838  0.16231  1.0000
  C   C20       1.0  0.82175  0.48607999999999996  0.18671  1.0000
  C   C21       1.0  0.7990699999999998  0.4758399999999999  0.25342999999999993  1.0000
  C   C22       1.0  0.90326  0.49740999999999996  0.29522999999999994  1.0000
  C   C23       1.0  0.02618999999999997  0.52427  0.27116  1.0000
  C   C24       1.0  0.04613000000000001  0.52838  0.20451  1.0000
  C   C25       1.0  0.10479999999999999  0.32301  0.19329  1.0000
  C   C26       1.0  0.8459099999999999  0.19874999999999995  0.39769  1.0000
  C   C27       1.0  0.98049  0.27976999999999996  0.22778  1.0000
  C   C28       1.0  0.96954  0.26254  0.29484  1.0000
  C   C29       1.0  0.85283  0.22093999999999994  0.32621  1.0000
  C   C30       1.0  0.7418599999999999  0.19618  0.28922  1.0000
  C   C31       1.0  0.7504399999999999  0.21159  0.22227999999999998  1.0000
  C   C32       1.0  0.86772  0.252  0.19246  1.0000
  C   C33       1.0  0.96451  0.00448  0.4072999999999999  1.0000
  C   C34       1.0  0.6652799999999999  0.9442499999999998  0.22133999999999998  1.0000
  C   C35       1.0  0.94458  0.00778  0.33726  1.0000
  C   C36       1.0  0.82235  0.9853199999999999  0.31293999999999994  1.0000
  C   C37       1.0  0.79955  0.9758499999999998  0.24623999999999996  1.0000
  C   C38       1.0  0.9035299999999998  0.9977999999999999  0.20437  1.0000
  C   C39       1.0  0.02648  0.024089999999999993  0.22824999999999998  1.0000
  C   C40       1.0  0.0468  0.028549999999999992  0.2949  1.0000
  C   C41       1.0  0.10476999999999995  0.8231499999999998  0.30707999999999996  1.0000
  C   C42       1.0  0.84544  0.6988299999999998  0.10295  1.0000
  C   C43       1.0  0.98041  0.77906  0.27222  1.0000
  C   C44       1.0  0.9699199999999999  0.7627599999999999  0.20501999999999998  1.0000
  C   C45       1.0  0.85239  0.72081  0.17405  1.0000
  C   C46       1.0  0.7414  0.69596  0.21094999999999997  1.0000
  C   C47       1.0  0.74978  0.71149  0.27781  1.0000
  C   C48       1.0  0.8673999999999998  0.7513399999999999  0.30724999999999997  1.0000
  C   C49       1.0  0.03525999999999993  0.4956699999999999  0.9076799999999999  1.0000
  C   C50       1.0  0.3347  0.55573  0.7216699999999999  1.0000
  C   C51       1.0  0.056189999999999934  0.4920699999999999  0.83784  1.0000
  C   C52       1.0  0.1781  0.51431  0.8133399999999998  1.0000
  C   C53       1.0  0.20063  0.52413  0.7466199999999998  1.0000
  C   C54       1.0  0.09648999999999994  0.5025999999999999  0.70476  1.0000
  C   C55       1.0  0.9736699999999999  0.4759499999999999  0.72894  1.0000
  C   C56       1.0  0.9538499999999999  0.47177  0.7956299999999998  1.0000
  C   C57       1.0  0.89424  0.6766699999999998  0.8064899999999999  1.0000
  C   C58       1.0  0.15382999999999986  0.8004899999999998  0.6027199999999998  1.0000
  C   C59       1.0  0.01917999999999997  0.72013  0.7722299999999999  1.0000
  C   C60       1.0  0.030840000000000006  0.7375  0.70523  1.0000
  C   C61       1.0  0.14789999999999986  0.7791099999999997  0.67401  1.0000
  C   C62       1.0  0.25865000000000005  0.8038399999999999  0.7109899999999999  1.0000
  C   C63       1.0  0.24959999999999993  0.7885999999999999  0.77795  1.0000
  C   C64       1.0  0.13211  0.74807  0.80769  1.0000
  S   S1        1.0  0.84237  0.9432799999999998  0.8256599999999998  1.0000
  S   S2        1.0  0.3859599999999999  0.31524999999999986  0.67052  1.0000
  S   S3        1.0  0.15779999999999994  0.5570299999999999  0.32489  1.0000
  S   S4        1.0  0.61316  0.18366999999999994  0.17152999999999996  1.0000
  S   S5        1.0  0.15746999999999994  0.05663  0.17424999999999996  1.0000
  S   S6        1.0  0.61406  0.68463  0.32949  1.0000
  S   S7        1.0  0.84232  0.4431499999999999  0.6751099999999998  1.0000
  S   S8        1.0  0.38721999999999995  0.8163899999999997  0.82852  1.0000
  O   O1        1.0  0.9337999999999999  0.006319999999999998  0.57034  1.0000
  O   O2        1.0  0.1219099999999999  0.9885299999999998  0.55455  1.0000
  O   O3        1.0  0.42101  0.04724999999999999  0.7375199999999998  1.0000
  O   O4        1.0  0.36259  0.08578999999999999  0.83548  1.0000
  O   O5        1.0  0.74084  0.9574299999999998  0.7808699999999998  1.0000
  O   O6        1.0  0.8754099999999999  0.01529  0.87853  1.0000
  O   O7        1.0  0.815  0.84043  0.8423799999999999  1.0000
  O   O8        1.0  0.89545  0.16909  0.62979  1.0000
  O   O9        1.0  0.79203  0.14718999999999996  0.72502  1.0000
  O   O10       1.0  0.048269999999999966  0.27475999999999995  0.9300699999999997  1.0000
  O   O11       1.0  0.2596299999999999  0.3479399999999999  0.9251799999999999  1.0000
  O   O12       1.0  0.4904199999999998  0.3822599999999999  0.71514  1.0000
  O   O13       1.0  0.40541  0.22307  0.6577199999999997  1.0000
  O   O14       1.0  0.3625699999999999  0.36952999999999997  0.61485  1.0000
  O   O15       1.0  0.06647999999999997  0.49423999999999996  0.0726  1.0000
  O   O16       1.0  0.8757199999999999  0.51071  0.05481  1.0000
  O   O17       1.0  0.57894  0.4519299999999999  0.23644  1.0000
  O   O18       1.0  0.63746  0.41501  0.3354  1.0000
  O   O19       1.0  0.25899  0.54204  0.2797199999999999  1.0000
  O   O20       1.0  0.1256299999999999  0.4859099999999999  0.37837  1.0000
  O   O21       1.0  0.18538  0.65995  0.34166999999999986  1.0000
  O   O22       1.0  0.10156999999999994  0.32912999999999987  0.1307  1.0000
  O   O23       1.0  0.2086  0.35171  0.22610999999999998  1.0000
  O   O24       1.0  0.95154  0.22406999999999994  0.4315599999999999  1.0000
  O   O25       1.0  0.74031  0.15172999999999998  0.42449999999999993  1.0000
  O   O26       1.0  0.50873  0.11823999999999998  0.21642999999999998  1.0000
  O   O27       1.0  0.59362  0.27569  0.15848  1.0000
  O   O28       1.0  0.63542  0.12853  0.11592999999999999  1.0000
  O   O29       1.0  0.06474999999999997  0.9918799999999999  0.42815999999999993  1.0000
  O   O30       1.0  0.87804  0.012629999999999997  0.44509999999999994  1.0000
  O   O31       1.0  0.57897  0.95267  0.26257  1.0000
  O   O32       1.0  0.63721  0.91414  0.16451999999999997  1.0000
  O   O33       1.0  0.25894  0.04253999999999999  0.219  1.0000
  O   O34       1.0  0.12435999999999987  0.9846999999999998  0.12130999999999999  1.0000
  O   O35       1.0  0.18526  0.15955  0.15750999999999998  1.0000
  O   O36       1.0  0.10256999999999994  0.83026  0.36952  1.0000
  O   O37       1.0  0.20815999999999993  0.8525899999999997  0.27459  1.0000
  O   O38       1.0  0.95118  0.72464  0.06964  1.0000
  O   O39       1.0  0.7399099999999998  0.6519099999999998  0.07486  1.0000
  O   O40       1.0  0.50975  0.61783  0.28481999999999996  1.0000
  O   O41       1.0  0.59473  0.77693  0.34226  1.0000
  O   O42       1.0  0.6374399999999999  0.6304699999999998  0.3852299999999999  1.0000
  O   O43       1.0  0.93342  0.50575  0.92737  1.0000
  O   O44       1.0  0.12386999999999992  0.4890699999999999  0.94531  1.0000
  O   O45       1.0  0.42112999999999995  0.54808  0.7637399999999999  1.0000
  O   O46       1.0  0.36211999999999994  0.5846399999999999  0.66468  1.0000
  O   O47       1.0  0.74107  0.4577699999999999  0.7203999999999998  1.0000
  O   O48       1.0  0.8741099999999999  0.51417  0.6215799999999999  1.0000
  O   O49       1.0  0.81442  0.34018  0.6585499999999999  1.0000
  O   O50       1.0  0.89722  0.67057  0.8689699999999999  1.0000
  O   O51       1.0  0.7900499999999998  0.6471699999999999  0.7739  1.0000
  O   O52       1.0  0.04782  0.77436  0.5699199999999999  1.0000
  O   O53       1.0  0.2590299999999998  0.8481299999999998  0.57473  1.0000
  O   O54       1.0  0.4916  0.88168  0.78343  1.0000
  O   O55       1.0  0.4064099999999998  0.7243099999999998  0.84157  1.0000
  O   O56       1.0  0.36509  0.87175  0.88402  1.0000
