data_image0
_chemical_formula_structural       La2H48C88S8N8O24
_chemical_formula_sum              "La2 H48 C88 S8 N8 O24"
_cell_length_a       10.18044
_cell_length_b       15.47594
_cell_length_c       15.47594
_cell_angle_alpha    90.0
_cell_angle_beta     90.0
_cell_angle_gamma    90.0

_symmetry_space_group_name_H-M    'P 1'
_symmetry_Int_Tables_number       1

loop_
  _symmetry_equiv_pos_as_xyz
  'x,y,z'

loop_
  _atom_site_type_symbol
  _atom_site_label
  _atom_site_symmetry_multiplicity
  _atom_site_fract_x
  _atom_site_fract_y
  _atom_site_fract_z
  _atom_site_occupancy
  La  La1       1.0  0.25  0.5  0.5  1.0000
  La  La2       1.0  0.75  0.5  0.5  1.0000
  H   H1        1.0  0.78776  0.41421000000000013  0.74009  1.0000
  H   H2        1.0  0.78821  0.27894  0.82589  1.0000
  H   H3        1.0  0.78776  0.5857900000000003  0.25991  1.0000
  H   H4        1.0  0.78821  0.72106  0.17411  1.0000
  H   H5        1.0  0.7879099999999999  0.2599800000000001  0.41439  1.0000
  H   H6        1.0  0.7880599999999999  0.17364  0.27945  1.0000
  H   H7        1.0  0.7879099999999999  0.74002  0.58561  1.0000
  H   H8        1.0  0.7880599999999999  0.82636  0.72055  1.0000
  H   H9        1.0  0.71209  0.58561  0.74002  1.0000
  H   H10       1.0  0.71194  0.72055  0.82636  1.0000
  H   H11       1.0  0.71209  0.41439  0.2599800000000001  1.0000
  H   H12       1.0  0.71194  0.27945  0.17364  1.0000
  H   H13       1.0  0.71224  0.74009  0.41421000000000013  1.0000
  H   H14       1.0  0.71179  0.82589  0.27894  1.0000
  H   H15       1.0  0.71224  0.25991  0.5857900000000003  1.0000
  H   H16       1.0  0.71179  0.17411  0.72106  1.0000
  H   H17       1.0  0.21209  0.58561  0.2599800000000001  1.0000
  H   H18       1.0  0.21194000000000002  0.72055  0.17364  1.0000
  H   H19       1.0  0.21209  0.41439  0.74002  1.0000
  H   H20       1.0  0.21194000000000002  0.27945  0.82636  1.0000
  H   H21       1.0  0.21224  0.74009  0.5857900000000003  1.0000
  H   H22       1.0  0.21179  0.82589  0.72106  1.0000
  H   H23       1.0  0.21224  0.25991  0.41421000000000013  1.0000
  H   H24       1.0  0.21179  0.17411  0.27894  1.0000
  H   H25       1.0  0.28776  0.41421000000000013  0.25991  1.0000
  H   H26       1.0  0.28821  0.27894  0.17411  1.0000
  H   H27       1.0  0.28776  0.5857900000000003  0.74009  1.0000
  H   H28       1.0  0.28821  0.72106  0.82589  1.0000
  H   H29       1.0  0.28791  0.2599800000000001  0.58561  1.0000
  H   H30       1.0  0.28806  0.17364  0.72055  1.0000
  H   H31       1.0  0.28791  0.74002  0.41439  1.0000
  H   H32       1.0  0.28806  0.82636  0.27945  1.0000
  H   H33       1.0  0.99972  0.34255  0.98993  1.0000
  H   H34       1.0  0.9960599999999998  0.3044  0.16021000000000005  1.0000
  H   H35       1.0  0.99972  0.65745  0.01007  1.0000
  H   H36       1.0  0.9960599999999998  0.6956000000000002  0.8397900000000003  1.0000
  H   H37       1.0  0.00028  0.01007  0.34255  1.0000
  H   H38       1.0  0.00394  0.8397900000000003  0.3044  1.0000
  H   H39       1.0  0.00028  0.98993  0.65745  1.0000
  H   H40       1.0  0.00394  0.16021000000000005  0.69561  1.0000
  H   H41       1.0  0.49971999999999994  0.65745  0.98993  1.0000
  H   H42       1.0  0.49607  0.6956000000000002  0.16021000000000005  1.0000
  H   H43       1.0  0.49971999999999994  0.34255  0.01007  1.0000
  H   H44       1.0  0.49607  0.3044  0.8397900000000003  1.0000
  H   H45       1.0  0.50028  0.98993  0.34255  1.0000
  H   H46       1.0  0.50393  0.16021000000000005  0.3044  1.0000
  H   H47       1.0  0.50028  0.01007  0.65745  1.0000
  H   H48       1.0  0.50393  0.8397900000000003  0.6956000000000002  1.0000
  C   C1        1.0  0.88051  0.38543  0.7598200000000003  1.0000
  C   C2        1.0  0.8808999999999999  0.30866  0.8073000000000002  1.0000
  C   C3        1.0  0.88051  0.61457  0.24018  1.0000
  C   C4        1.0  0.8808999999999999  0.69134  0.19270000000000007  1.0000
  C   C5        1.0  0.8805299999999999  0.24012000000000006  0.38556  1.0000
  C   C6        1.0  0.88075  0.19230000000000005  0.3090500000000001  1.0000
  C   C7        1.0  0.8805299999999999  0.75988  0.61444  1.0000
  C   C8        1.0  0.88075  0.8077000000000002  0.69095  1.0000
  C   C9        1.0  0.61947  0.61444  0.75988  1.0000
  C   C10       1.0  0.61925  0.69095  0.8077000000000002  1.0000
  C   C11       1.0  0.61947  0.38556  0.24012000000000006  1.0000
  C   C12       1.0  0.61925  0.3090500000000001  0.19230000000000005  1.0000
  C   C13       1.0  0.61949  0.7598200000000003  0.38543  1.0000
  C   C14       1.0  0.6191  0.8073000000000002  0.30866  1.0000
  C   C15       1.0  0.61949  0.24018  0.61457  1.0000
  C   C16       1.0  0.6191  0.19270000000000007  0.69134  1.0000
  C   C17       1.0  0.11947  0.61444  0.24012000000000006  1.0000
  C   C18       1.0  0.11925000000000001  0.69095  0.19230000000000005  1.0000
  C   C19       1.0  0.11947  0.38556  0.75988  1.0000
  C   C20       1.0  0.11925000000000001  0.3090500000000001  0.8077000000000002  1.0000
  C   C21       1.0  0.11949  0.7598200000000003  0.61457  1.0000
  C   C22       1.0  0.11909999999999998  0.8073000000000002  0.69134  1.0000
  C   C23       1.0  0.11949  0.24018  0.38543  1.0000
  C   C24       1.0  0.11909999999999998  0.19270000000000007  0.30866  1.0000
  C   C25       1.0  0.38051  0.38543  0.24018  1.0000
  C   C26       1.0  0.38089  0.30866  0.19270000000000007  1.0000
  C   C27       1.0  0.38051  0.61457  0.7598200000000003  1.0000
  C   C28       1.0  0.38089  0.69134  0.8073000000000002  1.0000
  C   C29       1.0  0.38053  0.24012000000000006  0.61444  1.0000
  C   C30       1.0  0.38075  0.19230000000000005  0.69095  1.0000
  C   C31       1.0  0.38053  0.75988  0.38556  1.0000
  C   C32       1.0  0.38075  0.8077000000000002  0.3090500000000001  1.0000
  C   C33       1.0  0.99995  0.4237500000000001  0.7369  1.0000
  C   C34       1.0  0.00016  0.27016  0.83145  1.0000
  C   C35       1.0  0.00059  0.1881  0.88185  1.0000
  C   C36       1.0  0.00406  0.19573  0.97429  1.0000
  C   C37       1.0  0.00116  0.27942  0.02022  1.0000
  C   C38       1.0  0.9983800000000002  0.26009  0.10577  1.0000
  C   C39       1.0  0.00184  0.16503  0.11063  1.0000
  C   C40       1.0  0.99995  0.57626  0.2631  1.0000
  C   C41       1.0  0.00016  0.72984  0.16855  1.0000
  C   C42       1.0  0.00059  0.8119  0.11815000000000002  1.0000
  C   C43       1.0  0.00406  0.80427  0.02571  1.0000
  C   C44       1.0  0.00116  0.72058  0.97978  1.0000
  C   C45       1.0  0.9983800000000002  0.73991  0.89423  1.0000
  C   C46       1.0  0.00184  0.83497  0.8893700000000002  1.0000
  C   C47       1.0  4.9999999999999996e-05  0.2631  0.4237500000000001  1.0000
  C   C48       1.0  0.9998399999999998  0.16855  0.27016  1.0000
  C   C49       1.0  0.99941  0.11815000000000002  0.1881  1.0000
  C   C50       1.0  0.99594  0.02571  0.19573  1.0000
  C   C51       1.0  0.99884  0.97978  0.27942  1.0000
  C   C52       1.0  0.0016199999999999997  0.89423  0.26009  1.0000
  C   C53       1.0  0.99816  0.8893700000000002  0.16503  1.0000
  C   C54       1.0  4.9999999999999996e-05  0.7369  0.57626  1.0000
  C   C55       1.0  0.9998399999999998  0.83145  0.72984  1.0000
  C   C56       1.0  0.99941  0.88185  0.8119  1.0000
  C   C57       1.0  0.99594  0.97429  0.80427  1.0000
  C   C58       1.0  0.99884  0.02022  0.72058  1.0000
  C   C59       1.0  0.0016199999999999997  0.10577  0.73991  1.0000
  C   C60       1.0  0.99816  0.11063  0.83497  1.0000
  C   C61       1.0  0.49994999999999995  0.57626  0.7369  1.0000
  C   C62       1.0  0.50016  0.72984  0.83145  1.0000
  C   C63       1.0  0.50059  0.8119  0.88185  1.0000
  C   C64       1.0  0.50406  0.80427  0.97429  1.0000
  C   C65       1.0  0.50116  0.72058  0.02022  1.0000
  C   C66       1.0  0.49837999999999993  0.73991  0.10577  1.0000
  C   C67       1.0  0.50184  0.83497  0.11063  1.0000
  C   C68       1.0  0.49994999999999995  0.4237500000000001  0.2631  1.0000
  C   C69       1.0  0.50016  0.27016  0.16855  1.0000
  C   C70       1.0  0.50059  0.1881  0.11815000000000002  1.0000
  C   C71       1.0  0.50406  0.19573  0.02571  1.0000
  C   C72       1.0  0.50116  0.27942  0.97978  1.0000
  C   C73       1.0  0.49837999999999993  0.26009  0.89423  1.0000
  C   C74       1.0  0.50184  0.16503  0.8893700000000002  1.0000
  C   C75       1.0  0.50005  0.7369  0.4237500000000001  1.0000
  C   C76       1.0  0.49983999999999995  0.83145  0.27016  1.0000
  C   C77       1.0  0.49940999999999997  0.88185  0.1881  1.0000
  C   C78       1.0  0.49593999999999994  0.97429  0.19573  1.0000
  C   C79       1.0  0.49883999999999995  0.02022  0.27942  1.0000
  C   C80       1.0  0.50162  0.10577  0.26009  1.0000
  C   C81       1.0  0.49816  0.11063  0.16503  1.0000
  C   C82       1.0  0.50005  0.2631  0.57626  1.0000
  C   C83       1.0  0.49983999999999995  0.16855  0.72984  1.0000
  C   C84       1.0  0.49940999999999997  0.11815000000000002  0.8119  1.0000
  C   C85       1.0  0.49593999999999994  0.02571  0.80427  1.0000
  C   C86       1.0  0.49883999999999995  0.97978  0.72058  1.0000
  C   C87       1.0  0.50162  0.89423  0.73991  1.0000
  C   C88       1.0  0.49816  0.8893700000000002  0.83497  1.0000
  S   S1        1.0  0.99994  0.5277300000000003  0.68685  1.0000
  S   S2        1.0  0.99994  0.47227000000000013  0.31315  1.0000
  S   S3        1.0  6e-05  0.31315  0.5277300000000003  1.0000
  S   S4        1.0  6e-05  0.68685  0.47227000000000013  1.0000
  S   S5        1.0  0.49994  0.47227000000000013  0.68685  1.0000
  S   S6        1.0  0.49994  0.5277300000000003  0.31315  1.0000
  S   S7        1.0  0.50006  0.68685  0.5277300000000003  1.0000
  S   S8        1.0  0.50006  0.31315  0.47228  1.0000
  N   N1        1.0  0.00802  0.12849  0.02944  1.0000
  N   N2        1.0  0.00802  0.8715100000000002  0.9705600000000002  1.0000
  N   N3        1.0  0.99198  0.9705600000000002  0.12849  1.0000
  N   N4        1.0  0.99198  0.02944  0.8715100000000002  1.0000
  N   N5        1.0  0.508  0.8715100000000002  0.02944  1.0000
  N   N6        1.0  0.508  0.12849  0.9705600000000002  1.0000
  N   N7        1.0  0.49200000000000005  0.02944  0.12849  1.0000
  N   N8        1.0  0.49200000000000005  0.9705600000000002  0.8715100000000002  1.0000
  O   O1        1.0  0.12064  0.53265  0.6326600000000002  1.0000
  O   O2        1.0  0.12064  0.46735  0.3673400000000001  1.0000
  O   O3        1.0  0.12070999999999998  0.3673900000000001  0.53266  1.0000
  O   O4        1.0  0.12070999999999998  0.63261  0.46734  1.0000
  O   O5        1.0  0.37929  0.46734  0.63261  1.0000
  O   O6        1.0  0.37929  0.53266  0.3673900000000001  1.0000
  O   O7        1.0  0.37936  0.6326600000000002  0.53265  1.0000
  O   O8        1.0  0.37936  0.3673400000000001  0.46735  1.0000
  O   O9        1.0  0.87929  0.46734  0.3673900000000001  1.0000
  O   O10       1.0  0.87929  0.53266  0.63261  1.0000
  O   O11       1.0  0.8793599999999999  0.6326600000000002  0.46735  1.0000
  O   O12       1.0  0.8793599999999999  0.3673400000000001  0.53265  1.0000
  O   O13       1.0  0.62064  0.53265  0.3673400000000001  1.0000
  O   O14       1.0  0.62064  0.46735  0.6326600000000002  1.0000
  O   O15       1.0  0.62071  0.3673900000000001  0.46734  1.0000
  O   O16       1.0  0.62071  0.63261  0.53266  1.0000
  O   O17       1.0  0.0  0.58952  0.75819  1.0000
  O   O18       1.0  0.0  0.4104800000000001  0.24181000000000002  1.0000
  O   O19       1.0  0.0  0.24181000000000002  0.58952  1.0000
  O   O20       1.0  0.0  0.75819  0.4104800000000001  1.0000
  O   O21       1.0  0.5  0.4104800000000001  0.75819  1.0000
  O   O22       1.0  0.5  0.58952  0.24181000000000002  1.0000
  O   O23       1.0  0.5  0.75819  0.58952  1.0000
  O   O24       1.0  0.5  0.24181000000000002  0.4104800000000001  1.0000
