data_image0
_chemical_formula_structural       Eu8H48C96Cl4O48
_chemical_formula_sum              "Eu8 H48 C96 Cl4 O48"
_cell_length_a       11.17657
_cell_length_b       11.15588
_cell_length_c       33.66319
_cell_angle_alpha    82.11788
_cell_angle_beta     80.72181
_cell_angle_gamma    59.922549999999994

_symmetry_space_group_name_H-M    'P 1'
_symmetry_Int_Tables_number       1

loop_
  _symmetry_equiv_pos_as_xyz
  'x,y,z'

loop_
  _atom_site_type_symbol
  _atom_site_label
  _atom_site_symmetry_multiplicity
  _atom_site_fract_x
  _atom_site_fract_y
  _atom_site_fract_z
  _atom_site_occupancy
  Eu  Eu1       1.0  0.83217  0.15395000000000003  0.81511  1.0000
  Eu  Eu2       1.0  0.94344  0.04735000000000002  0.94433  1.0000
  Eu  Eu3       1.0  0.8013699999999999  0.34369000000000005  0.68738  1.0000
  Eu  Eu4       1.0  0.9369600000000002  0.45083000000000006  0.5575  1.0000
  Eu  Eu5       1.0  0.17034999999999997  0.84151  0.18538  1.0000
  Eu  Eu6       1.0  0.06258000000000002  0.94567  0.05694  1.0000
  Eu  Eu7       1.0  0.20062000000000002  0.65598  0.31396  1.0000
  Eu  Eu8       1.0  0.06103000000000003  0.54638  0.44412  1.0000
  H   H1        1.0  0.4482799999999999  0.11716000000000001  0.87586  1.0000
  H   H2        1.0  0.25517999999999996  0.08245999999999996  0.9149300000000002  1.0000
  H   H3        1.0  0.53426  0.80292  0.00082  1.0000
  H   H4        1.0  0.7272999999999998  0.8364700000000002  0.96158  1.0000
  H   H5        1.0  0.38764999999999994  0.74624  0.88961  1.0000
  H   H6        1.0  0.6046  0.5617400000000001  0.853  1.0000
  H   H7        1.0  0.40069000000000016  0.6836999999999999  0.74473  1.0000
  H   H8        1.0  0.18289999999999998  0.8653400000000001  0.78162  1.0000
  H   H9        1.0  0.47461  0.10102  0.80311  1.0000
  H   H10       1.0  0.24745999999999996  0.10287  0.8047100000000001  1.0000
  H   H11       1.0  0.9110899999999998  0.46693  0.94184  1.0000
  H   H12       1.0  0.02442999999999994  0.34652  0.06308000000000001  1.0000
  H   H13       1.0  0.4362299999999999  0.38201  0.6226800000000002  1.0000
  H   H14       1.0  0.24634999999999999  0.42493  0.58259  1.0000
  H   H15       1.0  0.3377  0.70414  0.49926000000000004  1.0000
  H   H16       1.0  0.5249899999999998  0.6648500000000004  0.53988  1.0000
  H   H17       1.0  0.02816999999999982  0.7447300000000003  0.61272  1.0000
  H   H18       1.0  0.026110000000000005  0.9311500000000001  0.64772  1.0000
  H   H19       1.0  0.8287200000000002  0.82288  0.75636  1.0000
  H   H20       1.0  0.8255299999999999  0.6408  0.7207300000000002  1.0000
  H   H21       1.0  0.37635  0.3898499999999999  0.69881  1.0000
  H   H22       1.0  0.14915999999999996  0.39133  0.70031  1.0000
  H   H23       1.0  0.3182  0.03998000000000001  0.55932  1.0000
  H   H24       1.0  0.4300299999999999  0.15540000000000004  0.43774  1.0000
  H   H25       1.0  0.5489000000000002  0.88529  0.1247  1.0000
  H   H26       1.0  0.7431599999999999  0.91933  0.08639  1.0000
  H   H27       1.0  0.46880000000000005  0.19357000000000005  0.9987099999999999  1.0000
  H   H28       1.0  0.27487  0.16048  0.03734  1.0000
  H   H29       1.0  0.61636  0.25139  0.11022  1.0000
  H   H30       1.0  0.39851  0.4344100000000001  0.14634  1.0000
  H   H31       1.0  0.5980899999999998  0.31424000000000013  0.2552900000000001  1.0000
  H   H32       1.0  0.81749  0.13277  0.21895000000000006  1.0000
  H   H33       1.0  0.53332  0.88849  0.19687  1.0000
  H   H34       1.0  0.75781  0.8900900000000002  0.19733  1.0000
  H   H35       1.0  0.09098000000000003  0.53338  0.05865  1.0000
  H   H36       1.0  0.9778899999999999  0.65381  0.93739  1.0000
  H   H37       1.0  0.55509  0.61619  0.37774  1.0000
  H   H38       1.0  0.7481299999999999  0.5745900000000002  0.41647  1.0000
  H   H39       1.0  0.65692  0.30106000000000005  0.50266  1.0000
  H   H40       1.0  0.46733999999999987  0.33884  0.4631400000000001  1.0000
  H   H41       1.0  0.98045  0.25475  0.38662  1.0000
  H   H42       1.0  0.9815199999999998  0.06866000000000001  0.35167  1.0000
  H   H43       1.0  0.17265999999999998  0.17993000000000003  0.24227  1.0000
  H   H44       1.0  0.17672999999999994  0.36241000000000007  0.2776000000000001  1.0000
  H   H45       1.0  0.62105  0.60955  0.30338  1.0000
  H   H46       1.0  0.84442  0.6123700000000001  0.30399  1.0000
  H   H47       1.0  0.6764299999999999  0.96024  0.44135  1.0000
  H   H48       1.0  0.5645100000000001  0.84544  0.56306  1.0000
  C   C1        1.0  0.59832  0.9796700000000002  0.91667  1.0000
  C   C2        1.0  0.4658299999999999  0.04797999999999996  0.9030600000000001  1.0000
  C   C3        1.0  0.35877  0.029120000000000004  0.9248  1.0000
  C   C4        1.0  0.38398999999999983  0.9408899999999998  0.9601800000000003  1.0000
  C   C5        1.0  0.51749  0.8696  0.97316  1.0000
  C   C6        1.0  0.62411  0.88898  0.9515000000000002  1.0000
  C   C7        1.0  0.71012  0.008729999999999996  0.89531  1.0000
  C   C8        1.0  0.26830999999999966  0.9300000000000002  0.9862200000000001  1.0000
  C   C9        1.0  0.27358999999999994  0.81451  0.8376  1.0000
  C   C10       1.0  0.3920900000000001  0.7313100000000001  0.85802  1.0000
  C   C11       1.0  0.5119899999999997  0.6299100000000001  0.83777  1.0000
  C   C12       1.0  0.51371  0.61279  0.79695  1.0000
  C   C13       1.0  0.39636000000000005  0.6985799999999999  0.77631  1.0000
  C   C14       1.0  0.27612000000000003  0.7990500000000001  0.79662  1.0000
  C   C15       1.0  0.14056000000000013  0.91454  0.85985  1.0000
  C   C16       1.0  0.6387700000000001  0.49763  0.77605  1.0000
  C   C17       1.0  0.40231999999999984  0.16359000000000004  0.7809000000000003  1.0000
  C   C18       1.0  0.27696  0.16489  0.78176  1.0000
  C   C19       1.0  0.9642699999999997  0.3970300000000001  0.00269  1.0000
  C   C20       1.0  0.9505699999999999  0.48271  0.9670499999999999  1.0000
  C   C21       1.0  0.014659999999999986  0.41451000000000005  0.03584000000000001  1.0000
  C   C22       1.0  0.93027  0.28392  0.00451  1.0000
  C   C23       1.0  0.49217999999999984  0.5199799999999999  0.5835400000000002  1.0000
  C   C24       1.0  0.41310999999999987  0.4530700000000001  0.59585  1.0000
  C   C25       1.0  0.3081099999999999  0.47635  0.5734400000000002  1.0000
  C   C26       1.0  0.28198  0.5663399999999998  0.5384600000000002  1.0000
  C   C27       1.0  0.3592299999999999  0.63554  0.5266  1.0000
  C   C28       1.0  0.46371000000000007  0.6128  0.54903  1.0000
  C   C29       1.0  0.61006  0.4888  0.60594  1.0000
  C   C30       1.0  0.18160999999999985  0.5809900000000001  0.51122  1.0000
  C   C31       1.0  0.92685  0.6826700000000001  0.66484  1.0000
  C   C32       1.0  0.9850399999999998  0.7629600000000001  0.64407  1.0000
  C   C33       1.0  0.98447  0.8656400000000001  0.66353  1.0000
  C   C34       1.0  0.9276200000000002  0.88679  0.70406  1.0000
  C   C35       1.0  0.8721699999999998  0.8045100000000003  0.72504  1.0000
  C   C36       1.0  0.8707399999999993  0.70355  0.70539  1.0000
  C   C37       1.0  0.91936  0.5777  0.64363  1.0000
  C   C38       1.0  0.92045  0.00035999999999999417  0.72473  1.0000
  C   C39       1.0  0.34675999999999974  0.32742  0.72156  1.0000
  C   C40       1.0  0.22162000000000007  0.3282499999999999  0.7224000000000002  1.0000
  C   C41       1.0  0.36153  0.10743  0.49835000000000007  1.0000
  C   C42       1.0  0.39764999999999995  0.020950000000000014  0.53384  1.0000
  C   C43       1.0  0.46093000000000006  0.08649  0.46481  1.0000
  C   C44       1.0  0.21750999999999995  0.22543000000000002  0.4973000000000001  1.0000
  C   C45       1.0  0.40119  0.02025  0.08314  1.0000
  C   C46       1.0  0.5326900000000001  0.95336  0.09734  1.0000
  C   C47       1.0  0.6405999999999997  0.97172  0.07596000000000003  1.0000
  C   C48       1.0  0.61723  0.0578  0.04015  1.0000
  C   C49       1.0  0.48451  0.12808  0.026630000000000004  1.0000
  C   C50       1.0  0.37721999999999994  0.10915000000000002  0.04797000000000001  1.0000
  C   C51       1.0  0.28914  0.9914400000000001  0.10466000000000003  1.0000
  C   C52       1.0  0.73388  0.06659  0.014140000000000003  1.0000
  C   C53       1.0  0.729  0.18286000000000002  0.16258  1.0000
  C   C54       1.0  0.61103  0.26601  0.14188  1.0000
  C   C55       1.0  0.4901400000000001  0.36686  0.16197  1.0000
  C   C56       1.0  0.48650000000000004  0.38400999999999996  0.20286000000000007  1.0000
  C   C57       1.0  0.60365  0.29893  0.22369  1.0000
  C   C58       1.0  0.72478  0.19878000000000007  0.20363  1.0000
  C   C59       1.0  0.86228  0.08061  0.1411  1.0000
  C   C60       1.0  0.36043  0.4976400000000001  0.22384000000000007  1.0000
  C   C61       1.0  0.6028099999999996  0.8281100000000003  0.21992  1.0000
  C   C62       1.0  0.7266099999999999  0.8291500000000002  0.22019  1.0000
  C   C63       1.0  0.03796000000000006  0.60311  0.99774  1.0000
  C   C64       1.0  0.05175999999999995  0.5174700000000001  0.03337  1.0000
  C   C65       1.0  0.9876699999999999  0.58561  0.96457  1.0000
  C   C66       1.0  0.07206999999999991  0.71689  0.9953800000000002  1.0000
  C   C67       1.0  0.50003  0.48016000000000003  0.41829000000000005  1.0000
  C   C68       1.0  0.5793400000000001  0.54638  0.40481  1.0000
  C   C69       1.0  0.68578  0.52411  0.42646  1.0000
  C   C70       1.0  0.71249  0.43651000000000006  0.46199  1.0000
  C   C71       1.0  0.63513  0.36794  0.47497  1.0000
  C   C72       1.0  0.52957  0.38948000000000016  0.45318  1.0000
  C   C73       1.0  0.38084  0.50924  0.3961600000000001  1.0000
  C   C74       1.0  0.81415  0.4249700000000002  0.48803  1.0000
  C   C75       1.0  0.07937999999999995  0.31793  0.3341100000000001  1.0000
  C   C76       1.0  0.02218999999999996  0.23721000000000003  0.35515000000000013  1.0000
  C   C77       1.0  0.022119999999999942  0.13478000000000007  0.33574  1.0000
  C   C78       1.0  0.07745  0.11431000000000004  0.29506  1.0000
  C   C79       1.0  0.13125999999999993  0.19752000000000003  0.27376  1.0000
  C   C80       1.0  0.13319  0.29854  0.29328  1.0000
  C   C81       1.0  0.09033000000000004  0.41938999999999993  0.35587  1.0000
  C   C82       1.0  0.08616999999999991  0.9989800000000001  0.2748600000000001  1.0000
  C   C83       1.0  0.6522  0.67039  0.28044  1.0000
  C   C84       1.0  0.77571  0.6720199999999997  0.2807600000000001  1.0000
  C   C85       1.0  0.63297  0.89266  0.5023  1.0000
  C   C86       1.0  0.59694  0.97908  0.46683  1.0000
  C   C87       1.0  0.53361  0.9138  0.53589  1.0000
  C   C88       1.0  0.77635  0.7741900000000002  0.50386  1.0000
  C   C89       1.0  0.43712999999999996  0.24510999999999997  0.7508  1.0000
  C   C90       1.0  0.18654000000000004  0.24704999999999996  0.75249  1.0000
  C   C91       1.0  0.5697399999999998  0.24558000000000005  0.7504400000000002  1.0000
  C   C92       1.0  0.05192999999999984  0.24835000000000002  0.7531400000000003  1.0000
  C   C93       1.0  0.5654499999999999  0.7483700000000002  0.24997  1.0000
  C   C94       1.0  0.8137799999999998  0.7506600000000002  0.2505100000000001  1.0000
  C   C95       1.0  0.4332799999999999  0.74639  0.24971  1.0000
  C   C96       1.0  0.9480100000000002  0.75041  0.25039  1.0000
  Cl  Cl1       1.0  0.8580299999999998  0.26268000000000014  0.88308  1.0000
  Cl  Cl2       1.0  0.98935  0.23274000000000003  0.61842  1.0000
  Cl  Cl3       1.0  0.15582000000000001  0.72695  0.11706  1.0000
  Cl  Cl4       1.0  0.01519999999999992  0.76842  0.3837200000000001  1.0000
  O   O1        1.0  0.69175  0.07288000000000001  0.86052  1.0000
  O   O2        1.0  0.8177  0.9689600000000003  0.91304  1.0000
  O   O3        1.0  0.14205999999999996  0.007469999999999993  0.9782100000000001  1.0000
  O   O4        1.0  0.2956799999999999  0.8494900000000001  0.01824  1.0000
  O   O5        1.0  0.028569999999999977  0.95326  0.84449  1.0000
  O   O6        1.0  0.14440000000000003  0.95225  0.89338  1.0000
  O   O7        1.0  0.6490599999999999  0.5021  0.7376000000000003  1.0000
  O   O8        1.0  0.72674  0.4005300000000001  0.79762  1.0000
  O   O9        1.0  0.6187599999999999  0.22425000000000006  0.78384  1.0000
  O   O10       1.0  0.026559999999999993  0.16875999999999997  0.77979  1.0000
  O   O11       1.0  0.8920199999999999  0.2631800000000001  0.97357  1.0000
  O   O12       1.0  0.93927  0.206  0.03663  1.0000
  O   O13       1.0  0.6233899999999999  0.42389  0.64061  1.0000
  O   O14       1.0  0.6968399999999999  0.5282700000000001  0.58979  1.0000
  O   O15       1.0  0.11657  0.51043  0.5194  1.0000
  O   O16       1.0  0.1694  0.65535  0.4786  1.0000
  O   O17       1.0  0.8368600000000003  0.5333199999999999  0.6601100000000002  1.0000
  O   O18       1.0  0.99362  0.53963  0.60997  1.0000
  O   O19       1.0  0.9007700000000001  0.9952300000000002  0.7633  1.0000
  O   O20       1.0  0.93312  0.09753  0.70348  1.0000
  O   O21       1.0  0.63009  0.26716999999999996  0.7171  1.0000
  O   O22       1.0  0.96997  0.32784  0.72731  1.0000
  O   O23       1.0  0.13367999999999997  0.24769000000000008  0.52934  1.0000
  O   O24       1.0  0.18322999999999995  0.30204000000000003  0.46468000000000004  1.0000
  O   O25       1.0  0.30757  0.9274  0.13935000000000006  1.0000
  O   O26       1.0  0.18124999999999997  0.031689999999999996  0.08684000000000003  1.0000
  O   O27       1.0  0.8604199999999999  0.98922  0.02218  1.0000
  O   O28       1.0  0.70869  0.14526999999999998  0.98185  1.0000
  O   O29       1.0  0.9734699999999998  0.03708000000000001  0.15734  1.0000
  O   O30       1.0  0.86039  0.04272000000000002  0.10711  1.0000
  O   O31       1.0  0.34799  0.49471  0.26219  1.0000
  O   O32       1.0  0.2708499999999999  0.5945900000000002  0.20241  1.0000
  O   O33       1.0  0.3876699999999999  0.7636700000000002  0.21597  1.0000
  O   O34       1.0  0.9748300000000001  0.82895  0.22392  1.0000
  O   O35       1.0  0.11032000000000003  0.73726  0.02636  1.0000
  O   O36       1.0  0.06120999999999998  0.7932300000000001  0.9629  1.0000
  O   O37       1.0  0.37011000000000005  0.57532  0.36173  1.0000
  O   O38       1.0  0.2982299999999999  0.4659200000000001  0.41317  1.0000
  O   O39       1.0  0.87811  0.49537  0.47859  1.0000
  O   O40       1.0  0.82991  0.35179999999999995  0.5213000000000002  1.0000
  O   O41       1.0  0.1831199999999998  0.45287000000000005  0.3414000000000001  1.0000
  O   O42       1.0  0.011030000000000054  0.46521  0.38816  1.0000
  O   O43       1.0  0.10936000000000004  0.99999  0.23651  1.0000
  O   O44       1.0  0.07238999999999995  0.9030500000000001  0.29672  1.0000
  O   O45       1.0  0.3722299999999999  0.7273400000000001  0.28324  1.0000
  O   O46       1.0  0.027369999999999863  0.6706800000000003  0.27705  1.0000
  O   O47       1.0  0.86479  0.75438  0.47291  1.0000
  O   O48       1.0  0.8062199999999998  0.6943300000000002  0.53593  1.0000
