data_image0
_chemical_formula_structural       Zn4H60C98N18O16
_chemical_formula_sum              "Zn4 H60 C98 N18 O16"
_cell_length_a       14.63961
_cell_length_b       15.62491
_cell_length_c       15.32872
_cell_angle_alpha    112.34057
_cell_angle_beta     104.59446
_cell_angle_gamma    107.0298

_space_group_name_H-M_alt    "P 1"
_space_group_IT_number       1

loop_
  _space_group_symop_operation_xyz
  'x, y, z'

loop_
  _atom_site_type_symbol
  _atom_site_label
  _atom_site_symmetry_multiplicity
  _atom_site_fract_x
  _atom_site_fract_y
  _atom_site_fract_z
  _atom_site_occupancy
  Zn  Zn1       1.0  0.03659000000000002  0.29942  0.92464  1.0000
  Zn  Zn2       1.0  0.4276499999999999  0.25395000000000006  0.8783499999999999  1.0000
  Zn  Zn3       1.0  0.9634100000000002  0.7005800000000002  0.07535  1.0000
  Zn  Zn4       1.0  0.5723500000000001  0.7460500000000002  0.12165  1.0000
  H   H1        1.0  0.31360000000000005  0.6400000000000002  0.27405  1.0000
  H   H2        1.0  0.4317900000000001  0.69161  0.45381  1.0000
  H   H3        1.0  0.9774600000000003  0.7474900000000002  0.51075  1.0000
  H   H4        1.0  0.14189000000000002  0.34027000000000013  0.22568  1.0000
  H   H5        1.0  0.9306500000000003  0.9409000000000002  0.91887  1.0000
  H   H6        1.0  0.2590300000000001  0.3877400000000001  0.40045  1.0000
  H   H7        1.0  0.6958100000000002  0.471  0.16887999999999997  1.0000
  H   H8        1.0  0.09651000000000001  0.92621  0.55918  1.0000
  H   H9        1.0  0.8392100000000002  0.5568100000000002  0.34447  1.0000
  H   H10       1.0  0.28985  0.19115000000000001  0.9872  1.0000
  H   H11       1.0  0.15341000000000002  0.16843  0.9621999999999999  1.0000
  H   H12       1.0  0.7846  0.76997  0.83587  1.0000
  H   H13       1.0  0.6454800000000004  0.6589000000000003  0.80166  1.0000
  H   H14       1.0  0.2050600000000001  0.7676800000000003  0.76799  1.0000
  H   H15       1.0  0.54253  0.22115  0.21428  1.0000
  H   H16       1.0  0.6870800000000001  0.30296999999999996  0.38649999999999995  1.0000
  H   H17       1.0  0.7464  0.024970000000000037  0.72933  1.0000
  H   H18       1.0  0.59926  0.58558  0.88073  1.0000
  H   H19       1.0  0.5976500000000001  0.8495800000000002  0.64206  1.0000
  H   H20       1.0  0.81351  0.36748  0.51793  1.0000
  H   H21       1.0  0.38381  0.32565  0.57856  1.0000
  H   H22       1.0  0.8754700000000001  0.2934500000000001  0.58839  1.0000
  H   H23       1.0  0.58559  0.4638400000000001  0.94895  1.0000
  H   H24       1.0  0.062150000000000045  0.5977600000000002  0.85451  1.0000
  H   H25       1.0  0.08457000000000009  0.5141700000000002  0.96268  1.0000
  H   H26       1.0  0.08991000000000003  0.6440200000000003  0.74922  1.0000
  H   H27       1.0  0.3527700000000002  0.4336000000000001  0.54313  1.0000
  H   H28       1.0  0.32023000000000007  0.9444100000000001  0.81551  1.0000
  H   H29       1.0  0.89649  0.22392999999999993  0.70952  1.0000
  H   H30       1.0  0.3685  0.2163300000000001  0.66268  1.0000
  H   H31       1.0  0.6864  0.35999999999999993  0.7259399999999999  1.0000
  H   H32       1.0  0.5682100000000001  0.30839  0.54619  1.0000
  H   H33       1.0  0.02254  0.25251  0.48925  1.0000
  H   H34       1.0  0.85811  0.6597300000000001  0.77432  1.0000
  H   H35       1.0  0.06935  0.059100000000000014  0.08112  1.0000
  H   H36       1.0  0.74097  0.6122600000000002  0.59955  1.0000
  H   H37       1.0  0.3041900000000001  0.529  0.8311199999999999  1.0000
  H   H38       1.0  0.90349  0.07378999999999997  0.44081999999999993  1.0000
  H   H39       1.0  0.16078999999999993  0.44319  0.65553  1.0000
  H   H40       1.0  0.7101500000000001  0.8088500000000002  0.0128  1.0000
  H   H41       1.0  0.8465900000000002  0.8315700000000001  0.0378  1.0000
  H   H42       1.0  0.21540000000000006  0.23003  0.16412  1.0000
  H   H43       1.0  0.3545200000000001  0.34109  0.19834  1.0000
  H   H44       1.0  0.7949400000000002  0.23232000000000005  0.23201  1.0000
  H   H45       1.0  0.45747000000000015  0.7788500000000003  0.78571  1.0000
  H   H46       1.0  0.3129200000000001  0.6970300000000003  0.61349  1.0000
  H   H47       1.0  0.25360000000000005  0.97503  0.27067  1.0000
  H   H48       1.0  0.40073999999999993  0.41442000000000007  0.11926999999999999  1.0000
  H   H49       1.0  0.40235000000000004  0.15041000000000004  0.35794  1.0000
  H   H50       1.0  0.18649000000000004  0.6325200000000002  0.48207  1.0000
  H   H51       1.0  0.6161900000000002  0.6743400000000003  0.42144  1.0000
  H   H52       1.0  0.12453000000000009  0.7065500000000002  0.41160999999999986  1.0000
  H   H53       1.0  0.41441  0.5361600000000001  0.05104999999999999  1.0000
  H   H54       1.0  0.9378499999999999  0.40223999999999993  0.14548  1.0000
  H   H55       1.0  0.9154300000000002  0.48583  0.03731  1.0000
  H   H56       1.0  0.9100900000000002  0.35598  0.25078  1.0000
  H   H57       1.0  0.64723  0.5663900000000002  0.45686  1.0000
  H   H58       1.0  0.67977  0.05559000000000002  0.18449  1.0000
  H   H59       1.0  0.10351  0.77607  0.29048  1.0000
  H   H60       1.0  0.6315000000000003  0.7836600000000005  0.33732  1.0000
  C   C1        1.0  0.30245000000000005  0.5867600000000002  0.30424  1.0000
  C   C2        1.0  0.3677  0.6151600000000002  0.4034  1.0000
  C   C3        1.0  0.22246000000000007  0.4863600000000001  0.23861999999999997  1.0000
  C   C4        1.0  0.05271000000000011  0.7910000000000003  0.5771  1.0000
  C   C5        1.0  0.20606000000000008  0.4167400000000001  0.27601  1.0000
  C   C6        1.0  0.85762  0.9213200000000002  0.85883  1.0000
  C   C7        1.0  0.2721100000000001  0.4446  0.37496  1.0000
  C   C8        1.0  0.9538699999999999  0.49913999999999986  0.6425399999999999  1.0000
  C   C9        1.0  0.6946600000000003  0.4349500000000001  0.21716  1.0000
  C   C10       1.0  0.11872999999999999  0.8898399999999999  0.60364  1.0000
  C   C11       1.0  0.7745600000000001  0.48293  0.31503  1.0000
  C   C12       1.0  0.77387  0.43692  0.37848  1.0000
  C   C13       1.0  0.7743600000000002  0.82483  0.81187  1.0000
  C   C14       1.0  0.6102500000000004  0.3405100000000001  0.18087  1.0000
  C   C15       1.0  0.3559800000000001  0.5437200000000002  0.43958  1.0000
  C   C16       1.0  0.08129000000000006  0.7453800000000003  0.63662  1.0000
  C   C17       1.0  0.49161  0.4667500000000001  0.72286  1.0000
  C   C18       1.0  0.6796499999999999  0.7976200000000002  0.7328799999999999  1.0000
  C   C19       1.0  0.58419  0.63207  0.72752  1.0000
  C   C20       1.0  0.1791500000000001  0.8015300000000002  0.7222399999999999  1.0000
  C   C21       1.0  0.49889000000000006  0.53552  0.67757  1.0000
  C   C22       1.0  0.6088400000000003  0.2937400000000001  0.24291  1.0000
  C   C23       1.0  0.6901200000000002  0.34065  0.33987  1.0000
  C   C24       1.0  0.59083  0.6952600000000002  0.68144  1.0000
  C   C25       1.0  0.75335  0.9677600000000002  0.75099  1.0000
  C   C26       1.0  0.9669200000000002  0.4531100000000001  0.71047  1.0000
  C   C27       1.0  0.8593900000000004  0.4910400000000001  0.48266999999999993  1.0000
  C   C28       1.0  0.5494800000000002  0.5041600000000002  0.82823  1.0000
  C   C29       1.0  0.67078  0.87068  0.70285  1.0000
  C   C30       1.0  0.21517000000000008  0.9460300000000003  0.69036  1.0000
  C   C31       1.0  0.1605100000000001  0.45321  0.12777  1.0000
  C   C32       1.0  0.87032  0.4446500000000001  0.54497  1.0000
  C   C33       1.0  0.8476800000000003  0.9939500000000004  0.82931  1.0000
  C   C34       1.0  0.42790000000000017  0.36062000000000005  0.66149  1.0000
  C   C35       1.0  0.91979  0.3461900000000001  0.67097  1.0000
  C   C36       1.0  0.4334900000000001  0.57262  0.5406  1.0000
  C   C37       1.0  0.5414500000000001  0.43685000000000007  0.8675599999999999  1.0000
  C   C38       1.0  0.026099999999999988  0.51448  0.81765  1.0000
  C   C39       1.0  0.03646000000000008  0.4692400000000001  0.87972  1.0000
  C   C40       1.0  0.023739999999999966  0.59918  0.67428  1.0000
  C   C41       1.0  0.52062  0.29171  0.0779  1.0000
  C   C42       1.0  0.42195  0.50636  0.58294  1.0000
  C   C43       1.0  0.93767  0.09808000000000008  0.88098  1.0000
  C   C44       1.0  0.008580000000000096  0.6409800000000002  0.60806  1.0000
  C   C45       1.0  0.2451400000000001  0.90054  0.74883  1.0000
  C   C46       1.0  0.9320099999999999  0.30634  0.7378  1.0000
  C   C47       1.0  0.42145  0.2981  0.70635  1.0000
  C   C48       1.0  0.23237000000000008  0.2630800000000001  0.91733  1.0000
  C   C49       1.0  0.28302  0.054690000000000114  0.72102  1.0000
  C   C50       1.0  0.69755  0.4132400000000001  0.69575  1.0000
  C   C51       1.0  0.6323  0.38483  0.5966  1.0000
  C   C52       1.0  0.7775400000000002  0.51364  0.76138  1.0000
  C   C53       1.0  0.94729  0.20900000000000002  0.42289999999999994  1.0000
  C   C54       1.0  0.7939400000000002  0.58325  0.72399  1.0000
  C   C55       1.0  0.14238000000000012  0.07868  0.14117  1.0000
  C   C56       1.0  0.7278900000000001  0.5554  0.6250399999999999  1.0000
  C   C57       1.0  0.046130000000000046  0.5008600000000001  0.35745999999999994  1.0000
  C   C58       1.0  0.3053400000000001  0.56505  0.78284  1.0000
  C   C59       1.0  0.8812700000000002  0.11016  0.39636  1.0000
  C   C60       1.0  0.22544000000000006  0.51706  0.68497  1.0000
  C   C61       1.0  0.22613000000000003  0.56307  0.62152  1.0000
  C   C62       1.0  0.22564000000000006  0.17517000000000002  0.18813  1.0000
  C   C63       1.0  0.3897500000000001  0.6594900000000001  0.81912  1.0000
  C   C64       1.0  0.6440200000000003  0.45628000000000013  0.56042  1.0000
  C   C65       1.0  0.91871  0.25462  0.36338  1.0000
  C   C66       1.0  0.5083900000000002  0.53325  0.27713  1.0000
  C   C67       1.0  0.32035  0.20237  0.26712  1.0000
  C   C68       1.0  0.4158100000000001  0.36792  0.27248  1.0000
  C   C69       1.0  0.8208500000000004  0.19847000000000006  0.27776  1.0000
  C   C70       1.0  0.5011100000000003  0.4644800000000002  0.32243  1.0000
  C   C71       1.0  0.39116  0.70626  0.75708  1.0000
  C   C72       1.0  0.3098800000000001  0.65935  0.66013  1.0000
  C   C73       1.0  0.40917  0.30474  0.31856  1.0000
  C   C74       1.0  0.24665000000000004  0.03223999999999999  0.249  1.0000
  C   C75       1.0  0.033080000000000005  0.54689  0.28952  1.0000
  C   C76       1.0  0.14061  0.50895  0.51733  1.0000
  C   C77       1.0  0.45052000000000003  0.49584  0.17177  1.0000
  C   C78       1.0  0.3292200000000001  0.12931  0.29715  1.0000
  C   C79       1.0  0.7848300000000002  0.05396000000000002  0.30964  1.0000
  C   C80       1.0  0.8394900000000002  0.54678  0.87223  1.0000
  C   C81       1.0  0.12968  0.55535  0.45503  1.0000
  C   C82       1.0  0.15232  0.00604999999999998  0.17068999999999998  1.0000
  C   C83       1.0  0.5721  0.6393800000000001  0.33851  1.0000
  C   C84       1.0  0.08020999999999996  0.65381  0.32903  1.0000
  C   C85       1.0  0.5665100000000002  0.42738  0.45939  1.0000
  C   C86       1.0  0.45855  0.56314  0.13244  1.0000
  C   C87       1.0  0.9739000000000003  0.4855200000000001  0.18235  1.0000
  C   C88       1.0  0.9635400000000001  0.53076  0.12028  1.0000
  C   C89       1.0  0.9762600000000003  0.4008200000000001  0.32572  1.0000
  C   C90       1.0  0.4793800000000001  0.70828  0.9220999999999999  1.0000
  C   C91       1.0  0.57805  0.49364  0.41706  1.0000
  C   C92       1.0  0.062330000000000094  0.9019200000000003  0.11902  1.0000
  C   C93       1.0  0.9914200000000002  0.35902000000000006  0.39193999999999996  1.0000
  C   C94       1.0  0.7548600000000001  0.09946  0.25117  1.0000
  C   C95       1.0  0.06799000000000008  0.6936600000000003  0.2622  1.0000
  C   C96       1.0  0.57855  0.7019  0.29365  1.0000
  C   C97       1.0  0.7676300000000003  0.73692  0.08266  1.0000
  C   C98       1.0  0.7169800000000001  0.9453100000000002  0.27897  1.0000
  N   N1        1.0  0.9896300000000001  0.36658000000000013  0.8409  1.0000
  N   N2        1.0  0.47742  0.33531  0.80806  1.0000
  N   N3        1.0  0.92756  0.5874000000000003  0.51456  1.0000
  N   N4        1.0  0.22482999999999997  0.20256999999999994  0.96037  1.0000
  N   N5        1.0  0.5170300000000001  0.6650900000000002  0.58935  1.0000
  N   N6        1.0  0.20061000000000007  0.35859  0.85235  1.0000
  N   N7        1.0  0.2907500000000002  0.35895000000000005  0.85315  1.0000
  N   N8        1.0  0.31335000000000013  0.3004  0.89381  1.0000
  N   N9        1.0  0.16164999999999996  0.29901999999999995  0.89152  1.0000
  N   N10       1.0  0.01037000000000009  0.6334200000000002  0.1591  1.0000
  N   N11       1.0  0.5225800000000002  0.6646800000000003  0.19194  1.0000
  N   N12       1.0  0.07244000000000005  0.41260000000000013  0.48544  1.0000
  N   N13       1.0  0.77517  0.7974300000000002  0.03963  1.0000
  N   N14       1.0  0.4829700000000001  0.33491  0.41064  1.0000
  N   N15       1.0  0.7993900000000005  0.64141  0.14765  1.0000
  N   N16       1.0  0.7092500000000003  0.6410500000000002  0.14685  1.0000
  N   N17       1.0  0.6866500000000002  0.6996000000000002  0.10618999999999999  1.0000
  N   N18       1.0  0.83835  0.7009800000000003  0.10848  1.0000
  O   O1        1.0  0.5449  0.31651000000000007  0.0123  1.0000
  O   O2        1.0  0.91843  0.16248  0.85396  1.0000
  O   O3        1.0  0.023680000000000017  0.11701000000000006  0.94545  1.0000
  O   O4        1.0  0.18673000000000006  0.51193  0.09253  1.0000
  O   O5        1.0  0.4310900000000001  0.23365000000000005  0.0623  1.0000
  O   O6        1.0  0.08381000000000004  0.3608300000000001  0.07514  1.0000
  O   O7        1.0  0.36391  0.10451  0.80977  1.0000
  O   O8        1.0  0.25900000000000006  0.09099000000000006  0.66354  1.0000
  O   O9        1.0  0.4551000000000001  0.68349  0.9877  1.0000
  O   O10       1.0  0.08157000000000006  0.8375200000000003  0.14604  1.0000
  O   O11       1.0  0.9763200000000001  0.88299  0.05455  1.0000
  O   O12       1.0  0.8132700000000003  0.48807000000000006  0.9074699999999999  1.0000
  O   O13       1.0  0.56891  0.76634  0.9377  1.0000
  O   O14       1.0  0.91619  0.63917  0.92486  1.0000
  O   O15       1.0  0.6360900000000004  0.8954900000000002  0.19023  1.0000
  O   O16       1.0  0.741  0.9090000000000003  0.33646  1.0000
