data_image0
_chemical_formula_structural       Cu16H40C48N24O40
_chemical_formula_sum              "Cu16 H40 C48 N24 O40"
_cell_length_a       8.27313
_cell_length_b       15.99279
_cell_length_c       17.91765
_cell_angle_alpha    90.0
_cell_angle_beta     101.90465000000002
_cell_angle_gamma    90.0

_symmetry_space_group_name_H-M    'P 1'
_symmetry_Int_Tables_number       1

loop_
  _symmetry_equiv_pos_as_xyz
  'x,y,z'

loop_
  _atom_site_type_symbol
  _atom_site_label
  _atom_site_symmetry_multiplicity
  _atom_site_fract_x
  _atom_site_fract_y
  _atom_site_fract_z
  _atom_site_occupancy
  Cu  Cu1       1.0  0.015080000000000024  0.7116899999999998  0.28214  1.0000
  Cu  Cu2       1.0  0.20734  0.60282  0.16784  1.0000
  Cu  Cu3       1.0  0.53999  0.6725399999999998  0.9760500000000001  1.0000
  Cu  Cu4       1.0  0.41319  0.5747  0.80488  1.0000
  Cu  Cu5       1.0  0.9849199999999999  0.21169  0.21786  1.0000
  Cu  Cu6       1.0  0.79266  0.10282  0.33216  1.0000
  Cu  Cu7       1.0  0.46001  0.17254  0.52395  1.0000
  Cu  Cu8       1.0  0.5868  0.0747  0.69512  1.0000
  Cu  Cu9       1.0  0.9849199999999999  0.2883099999999999  0.71786  1.0000
  Cu  Cu10      1.0  0.79266  0.39718  0.83216  1.0000
  Cu  Cu11      1.0  0.46001  0.32746  0.02395  1.0000
  Cu  Cu12      1.0  0.5867999999999999  0.4253  0.19512  1.0000
  Cu  Cu13      1.0  0.015079999999999998  0.78831  0.78214  1.0000
  Cu  Cu14      1.0  0.20733999999999994  0.89718  0.66783  1.0000
  Cu  Cu15      1.0  0.53999  0.82746  0.4760499999999999  1.0000
  Cu  Cu16      1.0  0.41318999999999995  0.9252999999999998  0.30488  1.0000
  H   H1        1.0  0.93225  0.63184  0.00676  1.0000
  H   H2        1.0  0.64487  0.72458  0.15609  1.0000
  H   H3        1.0  0.70935  0.85279  0.223  1.0000
  H   H4        1.0  0.8548600000000001  0.7191699999999998  0.42838  1.0000
  H   H5        1.0  0.4607  0.6910999999999998  0.31571  1.0000
  H   H6        1.0  0.26472  0.5356499999999997  0.34451  1.0000
  H   H7        1.0  0.46723  0.55988  0.3962  1.0000
  H   H8        1.0  0.31338000000000005  0.48315999999999987  0.9462100000000001  1.0000
  H   H9        1.0  0.08437000000000006  0.6300899999999998  0.8899600000000001  1.0000
  H   H10       1.0  0.01570999999999999  0.5346699999999998  0.9243899999999999  1.0000
  H   H11       1.0  0.06775  0.13183999999999996  0.49323  1.0000
  H   H12       1.0  0.35513  0.22458  0.34391  1.0000
  H   H13       1.0  0.29065  0.3527899999999999  0.27699  1.0000
  H   H14       1.0  0.14514  0.21916999999999995  0.07162  1.0000
  H   H15       1.0  0.53929  0.1911  0.18429  1.0000
  H   H16       1.0  0.73527  0.03565  0.15549  1.0000
  H   H17       1.0  0.53276  0.05988  0.1038  1.0000
  H   H18       1.0  0.68661  0.98316  0.55378  1.0000
  H   H19       1.0  0.91562  0.13009  0.61003  1.0000
  H   H20       1.0  0.9842900000000001  0.03467999999999999  0.5756  1.0000
  H   H21       1.0  0.06775000000000009  0.36816  0.9932300000000001  1.0000
  H   H22       1.0  0.35513000000000006  0.27542  0.84391  1.0000
  H   H23       1.0  0.29065  0.14720999999999995  0.77699  1.0000
  H   H24       1.0  0.14514  0.2808299999999999  0.57162  1.0000
  H   H25       1.0  0.53929  0.3089  0.68429  1.0000
  H   H26       1.0  0.73527  0.4643499999999999  0.65548  1.0000
  H   H27       1.0  0.53276  0.44012  0.6038  1.0000
  H   H28       1.0  0.6866100000000002  0.5168399999999997  0.05379  1.0000
  H   H29       1.0  0.91562  0.3699099999999999  0.11004  1.0000
  H   H30       1.0  0.9842900000000001  0.46532  0.0756  1.0000
  H   H31       1.0  0.93225  0.86816  0.50676  1.0000
  H   H32       1.0  0.64487  0.77542  0.65609  1.0000
  H   H33       1.0  0.70935  0.64721  0.723  1.0000
  H   H34       1.0  0.85486  0.78083  0.92838  1.0000
  H   H35       1.0  0.4607  0.8089  0.81571  1.0000
  H   H36       1.0  0.26472  0.96435  0.84451  1.0000
  H   H37       1.0  0.46723  0.9401199999999997  0.89619  1.0000
  H   H38       1.0  0.31338  0.01684  0.44621  1.0000
  H   H39       1.0  0.08437000000000003  0.86991  0.38996  1.0000
  H   H40       1.0  0.01570999999999999  0.9653199999999997  0.42439  1.0000
  C   C1        1.0  0.89528  0.65642  0.05693  1.0000
  C   C2        1.0  0.74944  0.7038  0.13333  1.0000
  C   C3        1.0  0.7145300000000001  0.82683  0.27918  1.0000
  C   C4        1.0  0.78837  0.7598899999999997  0.38428  1.0000
  C   C5        1.0  0.29752  0.69999  0.39401  1.0000
  C   C6        1.0  0.34665  0.66053  0.32404  1.0000
  C   C7        1.0  0.3813  0.5672699999999998  0.34109  1.0000
  C   C8        1.0  0.45131  0.52317  0.28057  1.0000
  C   C9        1.0  0.2966  0.5816  0.0244  1.0000
  C   C10       1.0  0.28231  0.55042  0.94228  1.0000
  C   C11       1.0  0.10708000000000001  0.5622199999999998  0.8952  1.0000
  C   C12       1.0  0.07787  0.52648  0.81433  1.0000
  C   C13       1.0  0.10472000000000002  0.15641999999999995  0.44307  1.0000
  C   C14       1.0  0.25055  0.20379999999999995  0.36666  1.0000
  C   C15       1.0  0.28547  0.32683  0.22082  1.0000
  C   C16       1.0  0.21162999999999998  0.25989  0.11571999999999999  1.0000
  C   C17       1.0  0.70248  0.19999  0.10599  1.0000
  C   C18       1.0  0.65334  0.16052999999999995  0.17596  1.0000
  C   C19       1.0  0.61869  0.06726999999999997  0.15890000000000004  1.0000
  C   C20       1.0  0.54869  0.023169999999999993  0.21942  1.0000
  C   C21       1.0  0.7034  0.0816  0.47559  1.0000
  C   C22       1.0  0.71768  0.050419999999999986  0.55771  1.0000
  C   C23       1.0  0.89291  0.062219999999999984  0.6048  1.0000
  C   C24       1.0  0.9221199999999999  0.02649  0.68566  1.0000
  C   C25       1.0  0.10472000000000002  0.3435799999999999  0.94306  1.0000
  C   C26       1.0  0.25055  0.2962  0.86666  1.0000
  C   C27       1.0  0.28547  0.17317  0.72082  1.0000
  C   C28       1.0  0.21162999999999998  0.24010999999999993  0.61572  1.0000
  C   C29       1.0  0.70248  0.30001  0.60598  1.0000
  C   C30       1.0  0.65334  0.33947  0.67596  1.0000
  C   C31       1.0  0.61869  0.43273  0.6589  1.0000
  C   C32       1.0  0.54869  0.47683  0.71942  1.0000
  C   C33       1.0  0.7034  0.4183999999999999  0.97559  1.0000
  C   C34       1.0  0.71768  0.44958  0.05771  1.0000
  C   C35       1.0  0.89291  0.43778  0.1048  1.0000
  C   C36       1.0  0.9221199999999999  0.47351  0.18566  1.0000
  C   C37       1.0  0.89528  0.84357  0.55693  1.0000
  C   C38       1.0  0.74944  0.7961999999999998  0.63333  1.0000
  C   C39       1.0  0.71453  0.67317  0.77918  1.0000
  C   C40       1.0  0.78837  0.74011  0.88427  1.0000
  C   C41       1.0  0.29752  0.80001  0.89401  1.0000
  C   C42       1.0  0.34665  0.83947  0.82404  1.0000
  C   C43       1.0  0.3813  0.93273  0.84109  1.0000
  C   C44       1.0  0.45131  0.9768199999999998  0.78057  1.0000
  C   C45       1.0  0.2966  0.9184  0.5244  1.0000
  C   C46       1.0  0.28231  0.9495799999999998  0.44229  1.0000
  C   C47       1.0  0.10707999999999997  0.93778  0.3952  1.0000
  C   C48       1.0  0.07787  0.97351  0.31433  1.0000
  N   N1        1.0  0.6606  0.80769  0.39144  1.0000
  N   N2        1.0  0.6123  0.85013  0.32383  1.0000
  N   N3        1.0  0.82621  0.76975  0.31452  1.0000
  N   N4        1.0  0.90155  0.69142  0.17456  1.0000
  N   N5        1.0  0.9946000000000002  0.6606799999999998  0.12537  1.0000
  N   N6        1.0  0.74102  0.68374  0.05923  1.0000
  N   N7        1.0  0.3394  0.3076899999999999  0.10856  1.0000
  N   N8        1.0  0.3877  0.35013  0.17617  1.0000
  N   N9        1.0  0.17379  0.2697499999999999  0.18548  1.0000
  N   N10       1.0  0.09843999999999997  0.19142  0.32544  1.0000
  N   N11       1.0  0.005399999999999988  0.16068  0.37463  1.0000
  N   N12       1.0  0.25898  0.18374  0.44077  1.0000
  N   N13       1.0  0.3394  0.19230999999999995  0.60856  1.0000
  N   N14       1.0  0.3877  0.14987  0.67616  1.0000
  N   N15       1.0  0.17378999999999994  0.23024999999999995  0.68547  1.0000
  N   N16       1.0  0.09843999999999999  0.30858  0.82544  1.0000
  N   N17       1.0  0.005400000000000015  0.33932  0.87463  1.0000
  N   N18       1.0  0.25898  0.3162599999999999  0.94077  1.0000
  N   N19       1.0  0.6606  0.69231  0.89144  1.0000
  N   N20       1.0  0.6123  0.64987  0.82383  1.0000
  N   N21       1.0  0.82621  0.73024  0.81452  1.0000
  N   N22       1.0  0.90155  0.80858  0.67455  1.0000
  N   N23       1.0  0.9946000000000002  0.83932  0.62537  1.0000
  N   N24       1.0  0.74102  0.8162599999999998  0.55922  1.0000
  O   O1        1.0  0.14328  0.7210099999999998  0.38639  1.0000
  O   O2        1.0  0.4037  0.70841  0.45426  1.0000
  O   O3        1.0  0.22184  0.6752699999999998  0.25795  1.0000
  O   O4        1.0  0.42147  0.54996  0.2113  1.0000
  O   O5        1.0  0.54031  0.4584899999999999  0.2986  1.0000
  O   O6        1.0  0.19954  0.55064  0.06389  1.0000
  O   O7        1.0  0.40494  0.63699  0.04999  1.0000
  O   O8        1.0  0.39897  0.59355  0.90926  1.0000
  O   O9        1.0  0.19573000000000004  0.5252  0.77673  1.0000
  O   O10       1.0  0.9356499999999999  0.50019  0.78449  1.0000
  O   O11       1.0  0.85672  0.22101  0.11361  1.0000
  O   O12       1.0  0.5963  0.20841  0.04574000000000001  1.0000
  O   O13       1.0  0.77816  0.17527  0.24205  1.0000
  O   O14       1.0  0.57853  0.04996  0.2887  1.0000
  O   O15       1.0  0.45969  0.95849  0.20139  1.0000
  O   O16       1.0  0.8004599999999997  0.05064  0.4361  1.0000
  O   O17       1.0  0.59505  0.13699  0.45001  1.0000
  O   O18       1.0  0.60102  0.09355  0.59073  1.0000
  O   O19       1.0  0.80427  0.0252  0.72326  1.0000
  O   O20       1.0  0.06435000000000003  0.00019  0.7155  1.0000
  O   O21       1.0  0.85672  0.27899  0.6136  1.0000
  O   O22       1.0  0.5963  0.29159  0.54574  1.0000
  O   O23       1.0  0.77816  0.3247299999999999  0.74204  1.0000
  O   O24       1.0  0.57853  0.45004  0.7887  1.0000
  O   O25       1.0  0.45969  0.5415099999999998  0.70139  1.0000
  O   O26       1.0  0.80046  0.44936  0.9361  1.0000
  O   O27       1.0  0.59505  0.36301  0.95001  1.0000
  O   O28       1.0  0.60102  0.40645  0.09073  1.0000
  O   O29       1.0  0.80427  0.4748  0.22326  1.0000
  O   O30       1.0  0.06435  0.49980999999999987  0.21551  1.0000
  O   O31       1.0  0.14328000000000002  0.77899  0.88639  1.0000
  O   O32       1.0  0.40370000000000006  0.7915899999999998  0.9542500000000002  1.0000
  O   O33       1.0  0.22184  0.82473  0.75795  1.0000
  O   O34       1.0  0.42147  0.95004  0.7113  1.0000
  O   O35       1.0  0.54031  0.04151  0.7986  1.0000
  O   O36       1.0  0.19953999999999994  0.9493599999999998  0.56389  1.0000
  O   O37       1.0  0.40494  0.8630099999999998  0.54999  1.0000
  O   O38       1.0  0.39897  0.90645  0.40927  1.0000
  O   O39       1.0  0.19572999999999996  0.9748  0.27674  1.0000
  O   O40       1.0  0.93565  0.9998099999999999  0.28449  1.0000
