data_image0
_chemical_formula_structural       Cd4H52C68N24O16
_chemical_formula_sum              "Cd4 H52 C68 N24 O16"
_cell_length_a       10.60166
_cell_length_b       14.1891
_cell_length_c       17.00628
_cell_angle_alpha    102.52014999999999
_cell_angle_beta     90.01258
_cell_angle_gamma    112.0024

_symmetry_space_group_name_H-M    'P 1'
_symmetry_Int_Tables_number       1

loop_
  _symmetry_equiv_pos_as_xyz
  'x,y,z'

loop_
  _atom_site_type_symbol
  _atom_site_label
  _atom_site_symmetry_multiplicity
  _atom_site_fract_x
  _atom_site_fract_y
  _atom_site_fract_z
  _atom_site_occupancy
  Cd  Cd1       1.0  0.91125  0.42321  0.81352  1.0000
  Cd  Cd2       1.0  0.48768000000000006  0.5763100000000002  0.6865900000000003  1.0000
  Cd  Cd3       1.0  0.08876  0.57679  0.18648000000000006  1.0000
  Cd  Cd4       1.0  0.51232  0.42369  0.31341  1.0000
  H   H1        1.0  0.6086  0.07858  0.15820000000000004  1.0000
  H   H2        1.0  0.6811899999999997  0.93822  0.17958000000000005  1.0000
  H   H3        1.0  0.5334  0.75072  0.11846  1.0000
  H   H4        1.0  0.31949  0.70822  0.03643  1.0000
  H   H5        1.0  0.12088000000000006  0.8258800000000001  0.03976  1.0000
  H   H6        1.0  0.20821999999999993  0.8965200000000001  0.9689799999999998  1.0000
  H   H7        1.0  0.46718  0.11892000000000001  0.051580000000000015  1.0000
  H   H8        1.0  0.2911  0.038790000000000005  0.03669  1.0000
  H   H9        1.0  0.20589999999999997  0.60888  0.76994  1.0000
  H   H10       1.0  0.011360000000000066  0.6224600000000001  0.98548  1.0000
  H   H11       1.0  0.18577000000000002  0.16991000000000003  0.29465000000000013  1.0000
  H   H12       1.0  0.55754  0.24902000000000002  0.18693000000000007  1.0000
  H   H13       1.0  0.7809899999999999  0.44224  0.56051  1.0000
  H   H14       1.0  0.53149  0.92224  0.34231  1.0000
  H   H15       1.0  0.74434  0.06346  0.32122  1.0000
  H   H16       1.0  0.78269  0.25067  0.3818  1.0000
  H   H17       1.0  0.6102  0.29217  0.4632  1.0000
  H   H18       1.0  0.29426  0.17379  0.4596400000000001  1.0000
  H   H19       1.0  0.31042  0.10276999999999996  0.53025  1.0000
  H   H20       1.0  0.34836  0.88096  0.44792  1.0000
  H   H21       1.0  0.25231  0.96074  0.46294  1.0000
  H   H22       1.0  0.5977899999999999  0.39057  0.72944  1.0000
  H   H23       1.0  0.38764000000000004  0.37687000000000004  0.5145200000000002  1.0000
  H   H24       1.0  0.015150000000000068  0.82954  0.20520000000000005  1.0000
  H   H25       1.0  0.31086999999999987  0.7525799999999999  0.31176  1.0000
  H   H26       1.0  0.3384900000000001  0.5570500000000003  0.9391300000000002  1.0000
  H   H27       1.0  0.3914099999999999  0.92142  0.8418  1.0000
  H   H28       1.0  0.31881  0.061780000000000085  0.8204200000000003  1.0000
  H   H29       1.0  0.46660999999999997  0.24928  0.88154  1.0000
  H   H30       1.0  0.6805100000000001  0.2917800000000001  0.9635700000000003  1.0000
  H   H31       1.0  0.8791299999999999  0.17412  0.96024  1.0000
  H   H32       1.0  0.7917899999999999  0.10348  0.03102  1.0000
  H   H33       1.0  0.5328300000000001  0.8810800000000001  0.94842  1.0000
  H   H34       1.0  0.7089  0.9612100000000001  0.96331  1.0000
  H   H35       1.0  0.79411  0.39112  0.23006000000000004  1.0000
  H   H36       1.0  0.9886399999999999  0.37754  0.014520000000000003  1.0000
  H   H37       1.0  0.81424  0.83009  0.7053500000000003  1.0000
  H   H38       1.0  0.44247  0.75098  0.81307  1.0000
  H   H39       1.0  0.21901  0.55776  0.43949  1.0000
  H   H40       1.0  0.46851999999999994  0.07776  0.65769  1.0000
  H   H41       1.0  0.2556699999999999  0.93654  0.67878  1.0000
  H   H42       1.0  0.21732000000000004  0.74933  0.6182  1.0000
  H   H43       1.0  0.38981  0.70783  0.5368  1.0000
  H   H44       1.0  0.70575  0.82621  0.54036  1.0000
  H   H45       1.0  0.6895799999999999  0.89723  0.46975  1.0000
  H   H46       1.0  0.65165  0.11904  0.55208  1.0000
  H   H47       1.0  0.74769  0.039259999999999975  0.53706  1.0000
  H   H48       1.0  0.40222  0.60943  0.27056  1.0000
  H   H49       1.0  0.61237  0.62313  0.48547  1.0000
  H   H50       1.0  0.98486  0.17046  0.7948  1.0000
  H   H51       1.0  0.68914  0.24741999999999997  0.68824  1.0000
  H   H52       1.0  0.6615099999999999  0.44295  0.06087  1.0000
  C   C1        1.0  0.34003  0.86792  0.05112  1.0000
  C   C2        1.0  0.4214900000000001  0.9732200000000001  0.08645000000000003  1.0000
  C   C3        1.0  0.54442  0.997  0.13208000000000006  1.0000
  C   C4        1.0  0.58585  0.91817  0.14368  1.0000
  C   C5        1.0  0.50432  0.8136800000000001  0.10935  1.0000
  C   C6        1.0  0.38277  0.78952  0.06327  1.0000
  C   C7        1.0  0.20585  0.83683  0.0010800000000000004  1.0000
  C   C8        1.0  0.384  0.06346  0.07675  1.0000
  C   C9        1.0  0.17992999999999995  0.63859  0.82963  1.0000
  C   C10       1.0  0.07945999999999998  0.64365  0.9391300000000002  1.0000
  C   C11       1.0  0.26365  0.16845  0.25375  1.0000
  C   C12       1.0  0.45372000000000007  0.21091  0.20132  1.0000
  C   C13       1.0  0.12181999999999994  0.51707  0.54499  1.0000
  C   C14       1.0  0.9960200000000001  0.4823700000000002  0.5791700000000002  1.0000
  C   C15       1.0  0.8773899999999999  0.4672  0.5334600000000002  1.0000
  C   C16       1.0  0.25858  0.54544  0.58867  1.0000
  C   C17       1.0  0.97811  0.45508000000000004  0.66039  1.0000
  C   C18       1.0  0.47172  0.13216000000000006  0.4486100000000001  1.0000
  C   C19       1.0  0.4485700000000001  0.027020000000000006  0.41347  1.0000
  C   C20       1.0  0.54834  0.003729999999999991  0.36824  1.0000
  C   C21       1.0  0.6685000000000001  0.08302000000000001  0.3568  1.0000
  C   C22       1.0  0.6907599999999999  0.1874  0.39084  1.0000
  C   C23       1.0  0.59277  0.21099000000000004  0.43658  1.0000
  C   C24       1.0  0.36809  0.16273000000000004  0.4984100000000001  1.0000
  C   C25       1.0  0.32076  0.93649  0.4229  1.0000
  C   C26       1.0  0.54141  0.3608  0.66991  1.0000
  C   C27       1.0  0.43484999999999996  0.35574  0.56078  1.0000
  C   C28       1.0  0.09493000000000007  0.83136  0.24598  1.0000
  C   C29       1.0  0.24412999999999996  0.78998  0.29778  1.0000
  C   C30       1.0  0.60476  0.48275  0.95508  1.0000
  C   C31       1.0  0.51358  0.5171200000000002  0.9206700000000002  1.0000
  C   C32       1.0  0.40997  0.53228  0.96624  1.0000
  C   C33       1.0  0.71354  0.4545400000000001  0.9117300000000003  1.0000
  C   C34       1.0  0.52303  0.54435  0.83945  1.0000
  C   C35       1.0  0.65998  0.1320800000000001  0.9488800000000002  1.0000
  C   C36       1.0  0.57852  0.026780000000000005  0.91355  1.0000
  C   C37       1.0  0.45559  0.0030000000000000087  0.86792  1.0000
  C   C38       1.0  0.41415  0.08183  0.85632  1.0000
  C   C39       1.0  0.49568  0.18632000000000007  0.8906400000000002  1.0000
  C   C40       1.0  0.6172400000000001  0.21048000000000014  0.9367300000000002  1.0000
  C   C41       1.0  0.79416  0.16317  0.99892  1.0000
  C   C42       1.0  0.61601  0.93654  0.9232500000000001  1.0000
  C   C43       1.0  0.82008  0.36141000000000006  0.17037  1.0000
  C   C44       1.0  0.92055  0.35635000000000006  0.06087  1.0000
  C   C45       1.0  0.7363499999999998  0.83155  0.7462500000000002  1.0000
  C   C46       1.0  0.54628  0.78909  0.79868  1.0000
  C   C47       1.0  0.87818  0.48293  0.45501  1.0000
  C   C48       1.0  0.0039900000000000066  0.51763  0.42083  1.0000
  C   C49       1.0  0.12261000000000008  0.5328000000000002  0.4665400000000001  1.0000
  C   C50       1.0  0.7414300000000001  0.45456  0.41133  1.0000
  C   C51       1.0  0.02190000000000003  0.54492  0.33961000000000013  1.0000
  C   C52       1.0  0.52829  0.86784  0.5513900000000003  1.0000
  C   C53       1.0  0.55144  0.97298  0.58653  1.0000
  C   C54       1.0  0.4516699999999999  0.9962699999999999  0.63176  1.0000
  C   C55       1.0  0.33151000000000014  0.91698  0.6432  1.0000
  C   C56       1.0  0.3092499999999999  0.8126  0.60916  1.0000
  C   C57       1.0  0.40723999999999994  0.78901  0.5634200000000003  1.0000
  C   C58       1.0  0.63192  0.8372700000000001  0.50159  1.0000
  C   C59       1.0  0.67925  0.06350999999999997  0.5771  1.0000
  C   C60       1.0  0.4586  0.6392  0.33009  1.0000
  C   C61       1.0  0.56516  0.64426  0.43922  1.0000
  C   C62       1.0  0.9050799999999999  0.16864000000000004  0.7540200000000002  1.0000
  C   C63       1.0  0.75588  0.21002000000000004  0.70222  1.0000
  C   C64       1.0  0.39524  0.51725  0.04492000000000001  1.0000
  C   C65       1.0  0.4864299999999999  0.48288  0.07933  1.0000
  C   C66       1.0  0.59003  0.46772  0.03376  1.0000
  C   C67       1.0  0.28647  0.54546  0.08827000000000003  1.0000
  C   C68       1.0  0.47698  0.45565  0.16055000000000005  1.0000
  N   N1        1.0  0.17137000000000002  0.73978  0.9395  1.0000
  N   N2        1.0  0.23743000000000003  0.7380900000000001  0.86996  1.0000
  N   N3        1.0  0.08287  0.57807  0.87035  1.0000
  N   N4        1.0  0.36232  0.12309000000000003  0.15367  1.0000
  N   N5        1.0  0.23967999999999998  0.09365000000000002  0.18649  1.0000
  N   N6        1.0  0.39436  0.24241000000000001  0.26575  1.0000
  N   N7        1.0  0.43056  0.25961  0.5602300000000002  1.0000
  N   N8        1.0  0.49899  0.26131  0.62952  1.0000
  N   N9        1.0  0.50446  0.42133  0.6294600000000002  1.0000
  N   N10       1.0  0.23954999999999999  0.87705  0.34588  1.0000
  N   N11       1.0  0.14535000000000015  0.9058400000000002  0.31348  1.0000
  N   N12       1.0  0.15285000000000007  0.7582400000000001  0.23345  1.0000
  N   N13       1.0  0.82863  0.26022  0.060500000000000005  1.0000
  N   N14       1.0  0.76257  0.26191  0.13004  1.0000
  N   N15       1.0  0.91713  0.42193  0.12965  1.0000
  N   N16       1.0  0.6376799999999998  0.87691  0.84633  1.0000
  N   N17       1.0  0.7603199999999999  0.90635  0.81351  1.0000
  N   N18       1.0  0.60565  0.7575900000000001  0.73425  1.0000
  N   N19       1.0  0.56945  0.74039  0.43977  1.0000
  N   N20       1.0  0.50101  0.73869  0.37048  1.0000
  N   N21       1.0  0.49554  0.57867  0.37053000000000014  1.0000
  N   N22       1.0  0.76046  0.12295  0.65412  1.0000
  N   N23       1.0  0.85465  0.09416  0.68652  1.0000
  N   N24       1.0  0.8471499999999998  0.24176  0.76655  1.0000
  O   O1        1.0  0.35021  0.52399  0.54887  1.0000
  O   O2        1.0  0.28151  0.59594  0.66265  1.0000
  O   O3        1.0  0.88059  0.47261000000000003  0.69815  1.0000
  O   O4        1.0  0.05195  0.41462  0.68665  1.0000
  O   O5        1.0  0.82608  0.47599  0.95206  1.0000
  O   O6        1.0  0.68708  0.40448  0.8375600000000002  1.0000
  O   O7        1.0  0.40771  0.52664  0.80174  1.0000
  O   O8        1.0  0.6374499999999999  0.5850599999999999  0.81322  1.0000
  O   O9        1.0  0.6498  0.47601  0.4511300000000001  1.0000
  O   O10       1.0  0.7185  0.40406  0.33735  1.0000
  O   O11       1.0  0.11941999999999998  0.52739  0.30185  1.0000
  O   O12       1.0  0.94806  0.5853800000000001  0.31335000000000013  1.0000
  O   O13       1.0  0.17393  0.52401  0.04794000000000002  1.0000
  O   O14       1.0  0.31292  0.59552  0.16244  1.0000
  O   O15       1.0  0.5923  0.47336  0.19826  1.0000
  O   O16       1.0  0.36256  0.41494  0.18678  1.0000
