data_image0
_chemical_formula_structural       Zn8H44C72N12O28
_chemical_formula_sum              "Zn8 H44 C72 N12 O28"
_cell_length_a       11.20093
_cell_length_b       11.185629999999998
_cell_length_c       19.977520000000002
_cell_angle_alpha    97.83487
_cell_angle_beta     100.48066
_cell_angle_gamma    116.02999999999999

_space_group_name_H-M_alt    "P 1"
_space_group_IT_number       1

loop_
  _space_group_symop_operation_xyz
  'x, y, z'

loop_
  _atom_site_type_symbol
  _atom_site_label
  _atom_site_symmetry_multiplicity
  _atom_site_fract_x
  _atom_site_fract_y
  _atom_site_fract_z
  _atom_site_occupancy
  Zn  Zn1       1.0  0.25519  0.8185899999999999  0.37532  1.0000
  Zn  Zn2       1.0  0.9447000000000001  0.87934  0.12334  1.0000
  Zn  Zn3       1.0  0.7448200000000001  0.18141  0.62468  1.0000
  Zn  Zn4       1.0  0.05529999999999999  0.12065999999999998  0.87666  1.0000
  Zn  Zn5       1.0  0.19510000000000008  0.9459900000000001  0.25007  1.0000
  Zn  Zn6       1.0  0.9322800000000001  0.68327  0.25082  1.0000
  Zn  Zn7       1.0  0.8049000000000002  0.05402000000000001  0.7499300000000001  1.0000
  Zn  Zn8       1.0  0.06773000000000001  0.31673  0.74918  1.0000
  H   H1        1.0  0.14097999999999994  0.6810199999999998  0.24254000000000003  1.0000
  H   H2        1.0  0.18551  0.25851  0.37815  1.0000
  H   H3        1.0  0.17791000000000007  0.049159999999999975  0.54431  1.0000
  H   H4        1.0  0.18030999999999991  0.43751999999999996  0.5831  1.0000
  H   H5        1.0  0.84104  0.40542  0.30573  1.0000
  H   H6        1.0  0.59693  0.21841999999999998  0.27399  1.0000
  H   H7        1.0  0.6946900000000001  0.06880000000000007  0.45194000000000006  1.0000
  H   H8        1.0  0.93544  0.25111  0.48427  1.0000
  H   H9        1.0  0.46106  0.5862200000000001  0.4625600000000001  1.0000
  H   H10       1.0  0.43788  0.65759  0.54137  1.0000
  H   H11       1.0  0.47594000000000003  0.75376  0.47670000000000007  1.0000
  H   H12       1.0  0.9402400000000001  0.90146  0.2557500000000001  1.0000
  H   H13       1.0  0.3802499999999999  0.8075899999999999  0.12186000000000001  1.0000
  H   H14       1.0  0.004450000000000012  0.63199  0.9548300000000001  1.0000
  H   H15       1.0  0.35421000000000014  0.59655  0.91698  1.0000
  H   H16       1.0  0.6009300000000001  0.53613  0.19457  1.0000
  H   H17       1.0  0.4455100000000001  0.32441999999999993  0.22643000000000002  1.0000
  H   H18       1.0  0.11685  0.24284999999999998  0.04826  1.0000
  H   H19       1.0  0.2667300000000001  0.45097  0.01604  1.0000
  H   H20       1.0  0.62385  0.9985699999999998  0.03752000000000001  1.0000
  H   H21       1.0  0.6157200000000002  0.8958899999999999  0.95867  1.0000
  H   H22       1.0  0.7769899999999998  0.9989699999999999  0.02358  1.0000
  H   H23       1.0  0.8590200000000001  0.31898  0.75746  1.0000
  H   H24       1.0  0.81449  0.74149  0.6218500000000001  1.0000
  H   H25       1.0  0.8220999999999999  0.9508399999999999  0.45569  1.0000
  H   H26       1.0  0.81969  0.56248  0.4169  1.0000
  H   H27       1.0  0.15897000000000006  0.59459  0.6942700000000002  1.0000
  H   H28       1.0  0.40307  0.78159  0.72601  1.0000
  H   H29       1.0  0.30532000000000004  0.9312  0.54806  1.0000
  H   H30       1.0  0.06456000000000008  0.7489  0.5157300000000001  1.0000
  H   H31       1.0  0.53894  0.41379  0.53744  1.0000
  H   H32       1.0  0.56212  0.34241  0.4586300000000001  1.0000
  H   H33       1.0  0.52406  0.24623999999999996  0.5233  1.0000
  H   H34       1.0  0.05976999999999997  0.09853999999999999  0.74425  1.0000
  H   H35       1.0  0.61976  0.19240999999999997  0.87814  1.0000
  H   H36       1.0  0.9955500000000003  0.36802  0.04517  1.0000
  H   H37       1.0  0.64579  0.40345999999999993  0.08302000000000002  1.0000
  H   H38       1.0  0.39907  0.46387  0.80543  1.0000
  H   H39       1.0  0.5544900000000001  0.67558  0.7735700000000001  1.0000
  H   H40       1.0  0.8831499999999999  0.7571499999999999  0.9517400000000001  1.0000
  H   H41       1.0  0.7332700000000002  0.54904  0.98396  1.0000
  H   H42       1.0  0.37615  0.0014300000000000018  0.96248  1.0000
  H   H43       1.0  0.38428  0.10412  0.041330000000000006  1.0000
  H   H44       1.0  0.22301000000000007  0.0010300000000000218  0.97642  1.0000
  C   C1        1.0  0.04465000000000011  0.45569000000000004  0.4131600000000001  1.0000
  C   C2        1.0  0.27054  0.59304  0.45046  1.0000
  C   C3        1.0  0.1853000000000001  0.36104  0.47841000000000006  1.0000
  C   C4        1.0  0.18737000000000006  0.2567300000000001  0.43263000000000007  1.0000
  C   C5        1.0  0.18831000000000012  0.14510000000000006  0.45691000000000004  1.0000
  C   C6        1.0  0.18315000000000003  0.13787000000000002  0.52575  1.0000
  C   C7        1.0  0.18169  0.24365999999999996  0.57132  1.0000
  C   C8        1.0  0.18543  0.35762  0.54796  1.0000
  C   C9        1.0  0.19398  0.035580000000000014  0.40717  1.0000
  C   C10       1.0  0.16098  0.22968999999999998  0.64291  1.0000
  C   C11       1.0  0.90565  0.34044  0.39659  1.0000
  C   C12       1.0  0.8085400000000001  0.3309000000000001  0.33724000000000004  1.0000
  C   C13       1.0  0.67285  0.22722999999999996  0.31958  1.0000
  C   C14       1.0  0.6313100000000001  0.13133  0.36047  1.0000
  C   C15       1.0  0.72737  0.14128  0.41949  1.0000
  C   C16       1.0  0.8638800000000001  0.24465000000000003  0.4375800000000001  1.0000
  C   C17       1.0  0.48376  0.022710000000000022  0.3413800000000001  1.0000
  C   C18       1.0  0.4196700000000001  0.65057  0.48466  1.0000
  C   C19       1.0  0.54297  0.63175  0.08709  1.0000
  C   C20       1.0  0.64253  0.81985  0.04954  1.0000
  C   C21       1.0  0.38242  0.70649  0.02165  1.0000
  C   C22       1.0  0.32397000000000004  0.75448  0.06727000000000001  1.0000
  C   C23       1.0  0.18797999999999998  0.7307099999999999  0.0426  1.0000
  C   C24       1.0  0.11173000000000001  0.65602  0.97363  1.0000
  C   C25       1.0  0.17179  0.60898  0.92814  1.0000
  C   C26       1.0  0.30921000000000015  0.6365400000000001  0.9519400000000002  1.0000
  C   C27       1.0  0.12799  0.78673  0.09179  1.0000
  C   C28       1.0  0.08604000000000003  0.5172  0.8560400000000001  1.0000
  C   C29       1.0  0.4444500000000001  0.50947  0.10372000000000003  1.0000
  C   C30       1.0  0.49460000000000004  0.47205  0.16305  1.0000
  C   C31       1.0  0.40851000000000004  0.35423  0.18074000000000004  1.0000
  C   C32       1.0  0.27142  0.27152  0.13977000000000003  1.0000
  C   C33       1.0  0.22208  0.30814  0.08072  1.0000
  C   C34       1.0  0.30732  0.42643999999999993  0.06272  1.0000
  C   C35       1.0  0.18122  0.14317000000000002  0.15860000000000005  1.0000
  C   C36       1.0  0.66577  0.93474  0.015420000000000003  1.0000
  C   C37       1.0  0.95536  0.5443099999999998  0.58684  1.0000
  C   C38       1.0  0.72947  0.40695999999999993  0.54954  1.0000
  C   C39       1.0  0.8147100000000003  0.6389699999999999  0.52159  1.0000
  C   C40       1.0  0.8126400000000001  0.74327  0.56737  1.0000
  C   C41       1.0  0.81169  0.85491  0.54309  1.0000
  C   C42       1.0  0.8168500000000001  0.86213  0.47425000000000006  1.0000
  C   C43       1.0  0.8183100000000002  0.7563400000000001  0.42868  1.0000
  C   C44       1.0  0.81457  0.64238  0.45204  1.0000
  C   C45       1.0  0.80603  0.96442  0.59283  1.0000
  C   C46       1.0  0.8390200000000002  0.7703099999999999  0.3571  1.0000
  C   C47       1.0  0.09435000000000004  0.65957  0.60341  1.0000
  C   C48       1.0  0.1914600000000001  0.66911  0.66276  1.0000
  C   C49       1.0  0.3271500000000001  0.77278  0.6804200000000002  1.0000
  C   C50       1.0  0.36868999999999996  0.86867  0.6395300000000002  1.0000
  C   C51       1.0  0.27262999999999993  0.8587199999999998  0.58051  1.0000
  C   C52       1.0  0.13612000000000002  0.75535  0.56242  1.0000
  C   C53       1.0  0.5162400000000001  0.9772899999999998  0.65862  1.0000
  C   C54       1.0  0.58033  0.34944000000000003  0.5153400000000001  1.0000
  C   C55       1.0  0.45703  0.36826  0.91291  1.0000
  C   C56       1.0  0.35747  0.18016000000000001  0.95046  1.0000
  C   C57       1.0  0.6175800000000001  0.29351999999999995  0.97835  1.0000
  C   C58       1.0  0.6760300000000002  0.2455200000000001  0.9327300000000001  1.0000
  C   C59       1.0  0.8120200000000001  0.2693000000000001  0.9574  1.0000
  C   C60       1.0  0.88827  0.34399  0.02637  1.0000
  C   C61       1.0  0.8282200000000001  0.39102  0.07186  1.0000
  C   C62       1.0  0.69079  0.36345999999999995  0.04806  1.0000
  C   C63       1.0  0.87201  0.2132699999999999  0.90821  1.0000
  C   C64       1.0  0.9139600000000001  0.48281  0.14396  1.0000
  C   C65       1.0  0.55555  0.49054  0.8962800000000001  1.0000
  C   C66       1.0  0.5054000000000001  0.52795  0.83695  1.0000
  C   C67       1.0  0.59149  0.64577  0.81926  1.0000
  C   C68       1.0  0.7285799999999998  0.7284799999999998  0.86023  1.0000
  C   C69       1.0  0.77793  0.69187  0.9192800000000001  1.0000
  C   C70       1.0  0.6926800000000001  0.5735600000000001  0.9372800000000001  1.0000
  C   C71       1.0  0.81878  0.85683  0.8414  1.0000
  C   C72       1.0  0.33424  0.06526  0.98458  1.0000
  N   N1        1.0  0.16830000000000003  0.46718  0.45087  1.0000
  N   N2        1.0  0.0704  0.56882  0.39136  1.0000
  N   N3        1.0  0.21064000000000005  0.6531  0.41438  1.0000
  N   N4        1.0  0.51635  0.7175999999999999  0.0495  1.0000
  N   N5        1.0  0.67795  0.67904  0.10848  1.0000
  N   N6        1.0  0.73898  0.79598  0.08531  1.0000
  N   N7        1.0  0.8317  0.5328199999999998  0.54913  1.0000
  N   N8        1.0  0.9296  0.43118999999999996  0.60864  1.0000
  N   N9        1.0  0.7893600000000003  0.34691  0.58563  1.0000
  N   N10       1.0  0.4836500000000001  0.28240000000000004  0.9505000000000001  1.0000
  N   N11       1.0  0.32204999999999995  0.32095999999999997  0.89153  1.0000
  N   N12       1.0  0.26102  0.20402999999999996  0.91469  1.0000
  O   O1        1.0  0.20145000000000002  0.05411999999999999  0.34684  1.0000
  O   O2        1.0  0.1943999999999999  0.93389  0.43049  1.0000
  O   O3        1.0  0.1721  0.34041  0.68075  1.0000
  O   O4        1.0  0.1304900000000001  0.11851000000000014  0.6597200000000002  1.0000
  O   O5        1.0  0.40531  0.01683999999999999  0.28559  1.0000
  O   O6        1.0  0.44909  0.94502  0.38433  1.0000
  O   O7        1.0  0.13833999999999988  0.7513999999999997  0.27741  1.0000
  O   O8        1.0  0.20619999999999997  0.8560599999999999  0.15222  1.0000
  O   O9        1.0  0.0027899999999999926  0.7629499999999999  0.06776000000000003  1.0000
  O   O10       1.0  0.15840999999999997  0.49119999999999997  0.81793  1.0000
  O   O11       1.0  0.9579400000000001  0.4702900000000001  0.8390000000000002  1.0000
  O   O12       1.0  0.22941  0.12140000000000002  0.21511000000000002  1.0000
  O   O13       1.0  0.06123  0.06483  0.11462  1.0000
  O   O14       1.0  0.9737800000000001  0.8604199999999999  0.22156000000000006  1.0000
  O   O15       1.0  0.79855  0.9458899999999998  0.65316  1.0000
  O   O16       1.0  0.8056000000000001  0.06612000000000001  0.56951  1.0000
  O   O17       1.0  0.8279000000000001  0.65959  0.31925000000000003  1.0000
  O   O18       1.0  0.86951  0.8814899999999999  0.34028  1.0000
  O   O19       1.0  0.59469  0.98317  0.71441  1.0000
  O   O20       1.0  0.5509100000000003  0.05498000000000013  0.6156700000000003  1.0000
  O   O21       1.0  0.8616700000000002  0.24859999999999996  0.72259  1.0000
  O   O22       1.0  0.7938  0.14394000000000004  0.8477800000000001  1.0000
  O   O23       1.0  0.9972100000000002  0.23705000000000004  0.9322400000000001  1.0000
  O   O24       1.0  0.8416000000000001  0.5088  0.18208  1.0000
  O   O25       1.0  0.04205999999999999  0.52972  0.161  1.0000
  O   O26       1.0  0.7705899999999999  0.8785999999999999  0.78489  1.0000
  O   O27       1.0  0.93878  0.93518  0.88539  1.0000
  O   O28       1.0  0.026220000000000063  0.13959000000000002  0.7784400000000001  1.0000
