data_image0
_chemical_formula_structural       Zn12H48C56N64Cl8
_chemical_formula_sum              "Zn12 H48 C56 N64 Cl8"
_cell_length_a       15.04645
_cell_length_b       15.172409999999998
_cell_length_c       20.58342
_cell_angle_alpha    90.02109999999999
_cell_angle_beta     89.99182999999998
_cell_angle_gamma    108.98092

_space_group_name_H-M_alt    "P 1"
_space_group_IT_number       1

loop_
  _space_group_symop_operation_xyz
  'x, y, z'

loop_
  _atom_site_type_symbol
  _atom_site_label
  _atom_site_symmetry_multiplicity
  _atom_site_fract_x
  _atom_site_fract_y
  _atom_site_fract_z
  _atom_site_occupancy
  Zn  Zn1       1.0  0.80717  0.14553  0.91708  1.0000
  Zn  Zn2       1.0  0.30744  0.64551  0.58284  1.0000
  Zn  Zn3       1.0  0.64661  0.29863  0.9140500000000001  1.0000
  Zn  Zn4       1.0  0.8765799999999999  0.86948  0.7549100000000001  1.0000
  Zn  Zn5       1.0  0.37668  0.36955  0.74512  1.0000
  Zn  Zn6       1.0  0.6925599999999997  0.35449  0.41716000000000003  1.0000
  Zn  Zn7       1.0  0.62332  0.63045  0.25489  1.0000
  Zn  Zn8       1.0  0.19283000000000003  0.85447  0.08292  1.0000
  Zn  Zn9       1.0  0.35339  0.70138  0.08595000000000001  1.0000
  Zn  Zn10      1.0  0.8532099999999998  0.20116  0.41400000000000003  1.0000
  Zn  Zn11      1.0  0.14679  0.79884  0.5860000000000001  1.0000
  Zn  Zn12      1.0  0.12341999999999997  0.13052  0.24509  1.0000
  H   H1        1.0  0.8569899999999998  0.52725  0.74327  1.0000
  H   H2        1.0  0.8683499999999996  0.37281999999999993  0.34696000000000005  1.0000
  H   H3        1.0  0.9109  0.51839  0.4204900000000001  1.0000
  H   H4        1.0  0.8138899999999998  0.38501  0.6678800000000001  1.0000
  H   H5        1.0  0.3702399999999999  0.04468  0.8796000000000002  1.0000
  H   H6        1.0  0.08911  0.48161  0.57951  1.0000
  H   H7        1.0  0.8779599999999997  0.38521  0.26146  1.0000
  H   H8        1.0  0.12203999999999997  0.61479  0.7385500000000002  1.0000
  H   H9        1.0  0.31394  0.88504  0.83203  1.0000
  H   H10       1.0  0.62203  0.11485999999999999  0.76141  1.0000
  H   H11       1.0  0.54098  0.94606  0.29159  1.0000
  H   H12       1.0  0.35693  0.0271  0.75667  1.0000
  H   H13       1.0  0.14302  0.47275  0.25674  1.0000
  H   H14       1.0  0.6297599999999998  0.9553199999999998  0.1204  1.0000
  H   H15       1.0  0.46762  0.14838  0.23819  1.0000
  H   H16       1.0  0.114  0.68734  0.33413  1.0000
  H   H17       1.0  0.032309999999999985  0.35159  0.73812  1.0000
  H   H18       1.0  0.18611  0.61499  0.3321200000000001  1.0000
  H   H19       1.0  0.12975  0.45538  0.37962  1.0000
  H   H20       1.0  0.04091000000000001  0.44594  0.20849  1.0000
  H   H21       1.0  0.45902  0.05394  0.7084100000000002  1.0000
  H   H22       1.0  0.41086  0.018269999999999995  0.07961  1.0000
  H   H23       1.0  0.98105  0.5885  0.5823000000000002  1.0000
  H   H24       1.0  0.6139399999999998  0.1873  0.16597  1.0000
  H   H25       1.0  0.88601  0.31266  0.6658700000000001  1.0000
  H   H26       1.0  0.3860599999999999  0.8127  0.8340300000000002  1.0000
  H   H27       1.0  0.5323799999999997  0.85162  0.7618100000000001  1.0000
  H   H28       1.0  0.9381299999999998  0.54952  0.21129000000000006  1.0000
  H   H29       1.0  0.6860699999999997  0.11496  0.16797000000000006  1.0000
  H   H30       1.0  0.4810699999999999  0.08863  0.9176200000000001  1.0000
  H   H31       1.0  0.45396  0.12977  0.11538000000000001  1.0000
  H   H32       1.0  0.96769  0.64841  0.26188  1.0000
  H   H33       1.0  0.36845  0.8727299999999998  0.15308  1.0000
  H   H34       1.0  0.06186999999999998  0.45049  0.78871  1.0000
  H   H35       1.0  0.87026  0.54462  0.62039  1.0000
  H   H36       1.0  0.95909  0.55406  0.7915100000000002  1.0000
  H   H37       1.0  0.43811  0.049569999999999996  0.2888  1.0000
  H   H38       1.0  0.9540099999999998  0.62988  0.38478  1.0000
  H   H39       1.0  0.51893  0.91137  0.08239  1.0000
  H   H40       1.0  0.018949999999999974  0.4115  0.4177  1.0000
  H   H41       1.0  0.13165  0.62718  0.65304  1.0000
  H   H42       1.0  0.54605  0.87024  0.8846200000000001  1.0000
  H   H43       1.0  0.58914  0.98173  0.92039  1.0000
  H   H44       1.0  0.37798  0.88514  0.23859000000000005  1.0000
  H   H45       1.0  0.04599999999999996  0.3701199999999999  0.6152200000000002  1.0000
  H   H46       1.0  0.63156  0.12727  0.84692  1.0000
  H   H47       1.0  0.6430699999999999  0.9729  0.24333000000000005  1.0000
  H   H48       1.0  0.56189  0.95043  0.7112000000000002  1.0000
  C   C1        1.0  0.09033  0.4831  0.68589  1.0000
  C   C2        1.0  0.4020799999999999  0.90401  0.9478300000000001  1.0000
  C   C3        1.0  0.07063999999999995  0.4742299999999999  0.25581  1.0000
  C   C4        1.0  0.9096699999999998  0.5169  0.31411  1.0000
  C   C5        1.0  0.09803  0.59609  0.44789000000000007  1.0000
  C   C6        1.0  0.8868199999999998  0.38502  0.67093  1.0000
  C   C7        1.0  0.9843  0.68359  0.69337  1.0000
  C   C8        1.0  0.9433499999999998  0.5451  0.62262  1.0000
  C   C9        1.0  0.9533399999999996  0.55755  0.38021000000000005  1.0000
  C   C10       1.0  0.8111699999999998  0.5208  0.31169  1.0000
  C   C11       1.0  0.62966  0.13559  0.28967  1.0000
  C   C12       1.0  0.41018999999999983  0.9153099999999998  0.19231000000000006  1.0000
  C   C13       1.0  0.6131399999999998  0.11494  0.17099000000000003  1.0000
  C   C14       1.0  0.18882999999999994  0.4792  0.6883100000000001  1.0000
  C   C15       1.0  0.45333  0.05745  0.11989000000000001  1.0000
  C   C16       1.0  0.68878  0.97924  0.8116600000000002  1.0000
  C   C17       1.0  0.40967  0.01681  0.18598  1.0000
  C   C18       1.0  0.5979199999999998  0.09598999999999999  0.05217000000000001  1.0000
  C   C19       1.0  0.57043  0.07542  0.23746  1.0000
  C   C20       1.0  0.51575  0.81641  0.19339000000000003  1.0000
  C   C21       1.0  0.4295799999999999  0.92458  0.7625500000000001  1.0000
  C   C22       1.0  0.44534  0.94489  0.88465  1.0000
  C   C23       1.0  0.5466799999999998  0.94256  0.88011  1.0000
  C   C24       1.0  0.55466  0.05511  0.11535  1.0000
  C   C25       1.0  0.55667  0.95485  0.12267000000000002  1.0000
  C   C26       1.0  0.03137000000000003  0.42343  0.7413300000000002  1.0000
  C   C27       1.0  0.59033  0.98319  0.81403  1.0000
  C   C28       1.0  0.9686299999999998  0.57657  0.25867  1.0000
  C   C29       1.0  0.57066  0.97428  0.24425000000000005  1.0000
  C   C30       1.0  0.9019799999999998  0.40391  0.55211  1.0000
  C   C31       1.0  0.91015  0.41537  0.30775  1.0000
  C   C32       1.0  0.46858  0.07655  0.2414  1.0000
  C   C33       1.0  0.015699999999999995  0.31641  0.30663000000000007  1.0000
  C   C34       1.0  0.5126199999999999  0.9141099999999999  0.18869000000000002  1.0000
  C   C35       1.0  0.04666  0.44245  0.61979  1.0000
  C   C36       1.0  0.056650000000000006  0.4549  0.37738000000000005  1.0000
  C   C37       1.0  0.44333  0.045149999999999996  0.8773300000000003  1.0000
  C   C38       1.0  0.38685999999999987  0.88506  0.8290100000000002  1.0000
  C   C39       1.0  0.9295  0.42456999999999995  0.73741  1.0000
  C   C40       1.0  0.1298  0.63558  0.21037000000000003  1.0000
  C   C41       1.0  0.07050000000000002  0.57543  0.26259  1.0000
  C   C42       1.0  0.012559999999999986  0.41413  0.31137  1.0000
  C   C43       1.0  0.53143  0.92345  0.7586  1.0000
  C   C44       1.0  0.8702  0.36442  0.78964  1.0000
  C   C45       1.0  0.05468999999999997  0.55519  0.38471000000000005  1.0000
  C   C46       1.0  0.11318999999999996  0.6149799999999999  0.32907000000000003  1.0000
  C   C47       1.0  0.48425  0.18359  0.80662  1.0000
  C   C48       1.0  0.31123  0.02076  0.18834000000000004  1.0000
  C   C49       1.0  0.92937  0.52577  0.7441900000000001  1.0000
  C   C50       1.0  0.94531  0.44481  0.6152900000000001  1.0000
  C   C51       1.0  0.58982  0.08469  0.8076900000000001  1.0000
  C   C52       1.0  0.37033999999999984  0.8644099999999998  0.71034  1.0000
  C   C53       1.0  0.9874399999999998  0.58587  0.68863  1.0000
  C   C54       1.0  0.48738  0.08589  0.81131  1.0000
  C   C55       1.0  0.08986  0.58463  0.6922500000000001  1.0000
  C   C56       1.0  0.4293499999999999  0.02572  0.75575  1.0000
  N   N1        1.0  0.19198999999999994  0.63323  0.52742  1.0000
  N   N2        1.0  0.5748199999999998  0.16291999999999995  0.02009  1.0000
  N   N3        1.0  0.8650699999999999  0.31469999999999987  0.47042  1.0000
  N   N4        1.0  0.7909999999999998  0.37598  0.8131800000000001  1.0000
  N   N5        1.0  0.8370499999999997  0.00458  0.8337300000000001  1.0000
  N   N6        1.0  0.76441  0.03246  0.8475900000000001  1.0000
  N   N7        1.0  0.66991  0.07622999999999998  0.023630000000000005  1.0000
  N   N8        1.0  0.11319999999999997  0.71001  0.18381  1.0000
  N   N9        1.0  0.74132  0.1931  0.3558  1.0000
  N   N10       1.0  0.63469  0.1851  0.97047  1.0000
  N   N11       1.0  0.31622  0.75528  0.64234  1.0000
  N   N12       1.0  0.2865799999999999  0.08217  0.22452  1.0000
  N   N13       1.0  0.557  0.7009699999999998  0.21783000000000002  1.0000
  N   N14       1.0  0.25868  0.8069  0.6442  1.0000
  N   N15       1.0  0.8868  0.28999  0.8161900000000001  1.0000
  N   N16       1.0  0.07473  0.29188  0.26775000000000004  1.0000
  N   N17       1.0  0.13494000000000003  0.6853  0.52958  1.0000
  N   N18       1.0  0.44301  0.29903  0.7821700000000001  1.0000
  N   N19       1.0  0.30507  0.4361  0.70957  1.0000
  N   N20       1.0  0.18402999999999994  0.74471  0.14241000000000004  1.0000
  N   N21       1.0  0.68378  0.24473  0.35766  1.0000
  N   N22       1.0  0.19506  0.06406  0.20943  1.0000
  N   N23       1.0  0.75847  0.30696  0.8557400000000002  1.0000
  N   N24       1.0  0.92527  0.70812  0.7322500000000002  1.0000
  N   N25       1.0  0.61298  0.20999  0.31624  1.0000
  N   N26       1.0  0.3653099999999999  0.8149  0.029530000000000004  1.0000
  N   N27       1.0  0.05706999999999999  0.20102  0.28216  1.0000
  N   N28       1.0  0.26449  0.53236  0.6523600000000002  1.0000
  N   N29       1.0  0.99106  0.16917  0.3275  1.0000
  N   N30       1.0  0.83  0.4237099999999999  0.5236000000000001  1.0000
  N   N31       1.0  0.23558999999999986  0.9675399999999997  0.15241  1.0000
  N   N32       1.0  0.20899999999999994  0.62402  0.18683  1.0000
  N   N33       1.0  0.29116  0.8759299999999999  0.6868000000000001  1.0000
  N   N34       1.0  0.6628499999999998  0.49540999999999996  0.33368000000000003  1.0000
  N   N35       1.0  0.50893  0.33083  0.82756  1.0000
  N   N36       1.0  0.24152999999999994  0.6930399999999999  0.14426  1.0000
  N   N37       1.0  0.035669999999999986  0.75865  0.6565700000000002  1.0000
  N   N38       1.0  0.69181  0.13311  0.97261  1.0000
  N   N39       1.0  0.008940000000000054  0.83083  0.6725  1.0000
  N   N40       1.0  0.81597  0.25529  0.8575900000000001  1.0000
  N   N41       1.0  0.80494  0.93594  0.7905800000000002  1.0000
  N   N42       1.0  0.69493  0.5639  0.2904300000000001  1.0000
  N   N43       1.0  0.38701999999999986  0.79001  0.68376  1.0000
  N   N44       1.0  0.16295  0.99543  0.16627000000000003  1.0000
  N   N45       1.0  0.7088499999999998  0.12407  0.3132  1.0000
  N   N46       1.0  0.42518  0.83708  0.97991  1.0000
  N   N47       1.0  0.9429299999999999  0.79899  0.71784  1.0000
  N   N48       1.0  0.9643299999999998  0.24135  0.34343  1.0000
  N   N49       1.0  0.33009  0.92377  0.97637  1.0000
  N   N50       1.0  0.7134299999999999  0.91783  0.77549  1.0000
  N   N51       1.0  0.5746899999999998  0.79184  0.2323  1.0000
  N   N52       1.0  0.9249699999999998  0.3369  0.5200200000000001  1.0000
  N   N53       1.0  0.49106999999999984  0.6691699999999998  0.17244  1.0000
  N   N54       1.0  0.30818999999999985  0.8668899999999999  0.0274  1.0000
  N   N55       1.0  0.4644299999999999  0.74139  0.15652  1.0000
  N   N56       1.0  0.7355199999999997  0.46763999999999994  0.34764000000000006  1.0000
  N   N57       1.0  0.4253199999999999  0.20816  0.7677  1.0000
  N   N58       1.0  0.78647  0.58202  0.2753900000000001  1.0000
  N   N59       1.0  0.53558  0.25861  0.84348  1.0000
  N   N60       1.0  0.33716  0.50459  0.6663200000000002  1.0000
  N   N61       1.0  0.21353  0.41798  0.7246100000000001  1.0000
  N   N62       1.0  0.8080099999999998  0.36677  0.47258000000000006  1.0000
  N   N63       1.0  0.07503  0.6631  0.47998000000000013  1.0000
  N   N64       1.0  0.16999999999999996  0.57629  0.47640000000000005  1.0000
  Cl  Cl1       1.0  0.42977999999999983  0.6422699999999999  0.52947  1.0000
  Cl  Cl2       1.0  0.3530299999999999  0.5791  0.03216  1.0000
  Cl  Cl3       1.0  0.92957  0.14265  0.9704800000000002  1.0000
  Cl  Cl4       1.0  0.85299  0.07903  0.4677500000000001  1.0000
  Cl  Cl5       1.0  0.57022  0.35773  0.4705300000000001  1.0000
  Cl  Cl6       1.0  0.07042999999999998  0.85735  0.029520000000000008  1.0000
  Cl  Cl7       1.0  0.14702  0.92097  0.53225  1.0000
  Cl  Cl8       1.0  0.6469699999999998  0.42089999999999994  0.96784  1.0000
