data_image0
_chemical_formula_structural       Tb4H60C90S6O48
_chemical_formula_sum              "Tb4 H60 C90 S6 O48"
_cell_length_a       9.23027
_cell_length_b       15.67435
_cell_length_c       22.21043
_cell_angle_alpha    102.25794999999998
_cell_angle_beta     101.55013
_cell_angle_gamma    104.75619

_space_group_name_H-M_alt    "P 1"
_space_group_IT_number       1

loop_
  _space_group_symop_operation_xyz
  'x, y, z'

loop_
  _atom_site_type_symbol
  _atom_site_label
  _atom_site_symmetry_multiplicity
  _atom_site_fract_x
  _atom_site_fract_y
  _atom_site_fract_z
  _atom_site_occupancy
  Tb  Tb1       1.0  0.51202  0.86407  0.81047  1.0000
  Tb  Tb2       1.0  0.03209  0.9033600000000003  0.8482499999999997  1.0000
  Tb  Tb3       1.0  0.48836  0.13691  0.19065  1.0000
  Tb  Tb4       1.0  0.9678399999999999  0.09662000000000001  0.15173999999999999  1.0000
  H   H1        1.0  0.87196  0.8333600000000002  0.6725799999999998  1.0000
  H   H2        1.0  0.7292800000000002  0.8359100000000003  0.56627  1.0000
  H   H3        1.0  0.30551999999999996  0.91287  0.62305  1.0000
  H   H4        1.0  0.65496  0.7777400000000002  0.45066  1.0000
  H   H5        1.0  0.6556900000000001  0.8931400000000002  0.48419  1.0000
  H   H6        1.0  0.6767  0.8587100000000002  0.40496  1.0000
  H   H7        1.0  0.9698099999999998  0.8441300000000003  0.36884  1.0000
  H   H8        1.0  0.9514799999999999  0.90802  0.27368  1.0000
  H   H9        1.0  0.44893999999999995  0.02014999999999998  0.32443999999999995  1.0000
  H   H10       1.0  0.46954000000000007  0.9588100000000003  0.42060999999999993  1.0000
  H   H11       1.0  0.98578  0.66968  0.9123499999999998  1.0000
  H   H12       1.0  0.91735  0.5136900000000001  0.9303899999999999  1.0000
  H   H13       1.0  0.27713999999999994  0.45483  0.84632  1.0000
  H   H14       1.0  0.34657  0.6128900000000002  0.8307899999999999  1.0000
  H   H15       1.0  0.07342  0.24936  0.01585  1.0000
  H   H16       1.0  0.48989999999999995  0.16953000000000004  0.03188  1.0000
  H   H17       1.0  0.59753  0.28527  0.97902  1.0000
  H   H18       1.0  0.69062  0.43312  0.97158  1.0000
  H   H19       1.0  0.5980599999999999  0.3476500000000001  0.8959699999999999  1.0000
  H   H20       1.0  0.6121399999999999  0.46541000000000005  0.9023199999999999  1.0000
  H   H21       1.0  0.56349  0.56157  0.79422  1.0000
  H   H22       1.0  0.013629999999999969  0.5599500000000002  0.7028899999999999  1.0000
  H   H23       1.0  0.9376599999999999  0.7011  0.72673  1.0000
  H   H24       1.0  0.95418  0.3983  0.64808  1.0000
  H   H25       1.0  0.1038400000000001  0.4433900000000001  0.7231  1.0000
  H   H26       1.0  0.9976699999999998  0.32363  0.69492  1.0000
  H   H27       1.0  0.2412  0.2807800000000001  0.795  1.0000
  H   H28       1.0  0.20027999999999993  0.1576  0.85028  1.0000
  H   H29       1.0  0.5913399999999999  0.08662  0.8013999999999999  1.0000
  H   H30       1.0  0.6337  0.21023999999999998  0.74564  1.0000
  H   H31       1.0  0.12776  0.16646000000000002  0.32741999999999993  1.0000
  H   H32       1.0  0.2708099999999999  0.16421  0.4338599999999999  1.0000
  H   H33       1.0  0.6943599999999999  0.08627  0.37681  1.0000
  H   H34       1.0  0.34494  0.22222000000000006  0.54925  1.0000
  H   H35       1.0  0.34414999999999996  0.10681  0.51572  1.0000
  H   H36       1.0  0.3233500000000001  0.1412500000000001  0.595  1.0000
  H   H37       1.0  0.029760000000000054  0.1556500000000001  0.63129  1.0000
  H   H38       1.0  0.04820999999999997  0.09200999999999994  0.72652  1.0000
  H   H39       1.0  0.55075  0.9793900000000002  0.67557  1.0000
  H   H40       1.0  0.53018  0.040710000000000045  0.57939  1.0000
  H   H41       1.0  0.014110000000000018  0.33043  0.08757  1.0000
  H   H42       1.0  0.08194999999999997  0.48621  0.0692  1.0000
  H   H43       1.0  0.7220700000000001  0.5450500000000003  0.1532  1.0000
  H   H44       1.0  0.6532099999999998  0.38723  0.1691  1.0000
  H   H45       1.0  0.9261199999999999  0.7514800000000003  0.98352  1.0000
  H   H46       1.0  0.5099999999999999  0.8314700000000002  0.9684099999999998  1.0000
  H   H47       1.0  0.4025200000000001  0.7152700000000002  0.02095  1.0000
  H   H48       1.0  0.30879000000000006  0.5670900000000002  0.028319999999999994  1.0000
  H   H49       1.0  0.40281  0.65272  0.10374  1.0000
  H   H50       1.0  0.38863  0.53503  0.09749  1.0000
  H   H51       1.0  0.43526999999999993  0.4382100000000001  0.20503  1.0000
  H   H52       1.0  0.9866499999999999  0.44016  0.29724  1.0000
  H   H53       1.0  0.06153  0.29871  0.27279  1.0000
  H   H54       1.0  0.04344000000000003  0.60198  0.35296  1.0000
  H   H55       1.0  0.89873  0.5565600000000003  0.27658  1.0000
  H   H56       1.0  0.002680000000000002  0.67653  0.30554  1.0000
  H   H57       1.0  0.75853  0.71928  0.20482  1.0000
  H   H58       1.0  0.79943  0.84275  0.1498  1.0000
  H   H59       1.0  0.40844  0.91354  0.19911  1.0000
  H   H60       1.0  0.36637  0.7894800000000001  0.2545899999999999  1.0000
  C   C1        1.0  0.18593999999999994  0.8667900000000001  0.7173799999999999  1.0000
  C   C2        1.0  0.09850999999999997  0.8720900000000003  0.6554399999999999  1.0000
  C   C3        1.0  0.9359400000000001  0.8520600000000003  0.63868  1.0000
  C   C4        1.0  0.8552999999999998  0.8537800000000002  0.57893  1.0000
  C   C5        1.0  0.9366  0.8779700000000001  0.5347  1.0000
  C   C6        1.0  0.10070000000000005  0.9022200000000002  0.5535  1.0000
  C   C7        1.0  0.17996  0.89738  0.61171  1.0000
  C   C8        1.0  0.7038799999999998  0.8503699999999998  0.45320999999999995  1.0000
  C   C9        1.0  0.22068999999999997  0.89655  0.39823  1.0000
  C   C10       1.0  0.07339000000000002  0.8818300000000001  0.3581  1.0000
  C   C11       1.0  0.06360999999999994  0.91724  0.30554  1.0000
  C   C12       1.0  0.1994299999999999  0.9658300000000001  0.29314999999999997  1.0000
  C   C13       1.0  0.34559  0.9810600000000003  0.3345699999999999  1.0000
  C   C14       1.0  0.3573299999999999  0.9467500000000002  0.38769999999999993  1.0000
  C   C15       1.0  0.19089999999999996  0.0036299999999999974  0.23654  1.0000
  C   C16       1.0  0.21219999999999997  0.7439900000000002  0.8616899999999997  1.0000
  C   C17       1.0  0.17127000000000014  0.6502300000000002  0.8716  1.0000
  C   C18       1.0  0.050019999999999946  0.6227100000000001  0.8992599999999997  1.0000
  C   C19       1.0  0.010890000000000058  0.53563  0.90876  1.0000
  C   C20       1.0  0.09369999999999996  0.47633  0.8894799999999999  1.0000
  C   C21       1.0  0.2151699999999999  0.50236  0.8613899999999999  1.0000
  C   C22       1.0  0.25360000000000005  0.5899400000000002  0.85267  1.0000
  C   C23       1.0  0.2524299999999999  0.32534  0.9818599999999997  1.0000
  C   C24       1.0  0.18904999999999997  0.25774  0.00891  1.0000
  C   C25       1.0  0.27576999999999996  0.20182  0.02841  1.0000
  C   C26       1.0  0.4230999999999999  0.21315000000000006  0.01721  1.0000
  C   C27       1.0  0.4839299999999999  0.27847000000000005  0.9875799999999999  1.0000
  C   C28       1.0  0.39954  0.33621  0.9695  1.0000
  C   C29       1.0  0.21963  0.13871000000000006  0.06599  1.0000
  C   C30       1.0  0.5971799999999999  0.41181999999999996  0.9271299999999998  1.0000
  C   C31       1.0  0.70046  0.72622  0.77607  1.0000
  C   C32       1.0  0.7453699999999995  0.64151  0.7618399999999997  1.0000
  C   C33       1.0  0.66294  0.5621500000000003  0.77494  1.0000
  C   C34       1.0  0.7102399999999998  0.4845099999999999  0.7641799999999997  1.0000
  C   C35       1.0  0.83711  0.48122000000000015  0.73801  1.0000
  C   C36       1.0  0.91654  0.5602900000000002  0.7235299999999999  1.0000
  C   C37       1.0  0.87259  0.63953  0.7364399999999998  1.0000
  C   C38       1.0  0.9904099999999998  0.39269000000000004  0.69687  1.0000
  C   C39       1.0  0.4386899999999999  0.25143999999999994  0.7673799999999998  1.0000
  C   C40       1.0  0.3167300000000001  0.2379200000000001  0.79629  1.0000
  C   C41       1.0  0.2946599999999998  0.16924999999999998  0.8275299999999998  1.0000
  C   C42       1.0  0.3943499999999998  0.11515000000000002  0.8294499999999999  1.0000
  C   C43       1.0  0.51604  0.12969000000000006  0.7998  1.0000
  C   C44       1.0  0.5392499999999998  0.19794  0.7683599999999999  1.0000
  C   C45       1.0  0.36794  0.03921  0.86108  1.0000
  C   C46       1.0  0.81419  0.13249  0.28275  1.0000
  C   C47       1.0  0.90155  0.12724  0.34463  1.0000
  C   C48       1.0  0.06416999999999998  0.14772  0.36142  1.0000
  C   C49       1.0  0.1448  0.14616  0.42119  1.0000
  C   C50       1.0  0.06337999999999998  0.12186999999999999  0.46536999999999995  1.0000
  C   C51       1.0  0.8992399999999999  0.09740999999999997  0.44658999999999993  1.0000
  C   C52       1.0  0.81996  0.10196999999999998  0.38832  1.0000
  C   C53       1.0  0.29613  0.14961  0.5467599999999999  1.0000
  C   C54       1.0  0.77902  0.10307999999999999  0.60183  1.0000
  C   C55       1.0  0.92624  0.11787999999999998  0.64203  1.0000
  C   C56       1.0  0.9359699999999999  0.08256  0.69464  1.0000
  C   C57       1.0  0.8001799999999999  0.0338299999999999  0.7069899999999999  1.0000
  C   C58       1.0  0.6541  0.018539999999999994  0.66547  1.0000
  C   C59       1.0  0.64241  0.05282000000000004  0.61231  1.0000
  C   C60       1.0  0.8086599999999999  0.9960900000000003  0.76372  1.0000
  C   C61       1.0  0.78831  0.25617  0.13852  1.0000
  C   C62       1.0  0.8283500000000001  0.3497200000000001  0.12819  1.0000
  C   C63       1.0  0.9495399999999999  0.37728  0.10049  1.0000
  C   C64       1.0  0.9883899999999999  0.46426  0.09081  1.0000
  C   C65       1.0  0.9053499999999999  0.5235  0.10993999999999998  1.0000
  C   C66       1.0  0.78407  0.4975100000000001  0.13815  1.0000
  C   C67       1.0  0.7459299999999998  0.4100200000000001  0.14704999999999996  1.0000
  C   C68       1.0  0.7474700000000001  0.6750900000000002  0.017549999999999996  1.0000
  C   C69       1.0  0.81066  0.7430000000000001  0.9906899999999998  1.0000
  C   C70       1.0  0.7240199999999999  0.7992400000000001  0.9716699999999999  1.0000
  C   C71       1.0  0.57684  0.7878100000000002  0.98297  1.0000
  C   C72       1.0  0.51606  0.72216  0.012319999999999998  1.0000
  C   C73       1.0  0.60031  0.6641100000000001  0.02994  1.0000
  C   C74       1.0  0.7799499999999999  0.8631900000000001  0.9346299999999998  1.0000
  C   C75       1.0  0.4029999999999999  0.58841  0.07248999999999999  1.0000
  C   C76       1.0  0.29948  0.2740200000000001  0.22323999999999997  1.0000
  C   C77       1.0  0.25355000000000005  0.3583300000000001  0.23748999999999995  1.0000
  C   C78       1.0  0.3362299999999999  0.43777  0.22455999999999998  1.0000
  C   C79       1.0  0.29005999999999993  0.5157  0.23597  1.0000
  C   C80       1.0  0.16469  0.51945  0.26304  1.0000
  C   C81       1.0  0.08375999999999997  0.43988  0.27660999999999997  1.0000
  C   C82       1.0  0.12670999999999996  0.36033  0.26313999999999993  1.0000
  C   C83       1.0  0.010860000000000054  0.6077500000000002  0.30402  1.0000
  C   C84       1.0  0.56143  0.74867  0.23267999999999997  1.0000
  C   C85       1.0  0.6832  0.76225  0.20369999999999994  1.0000
  C   C86       1.0  0.70511  0.8310200000000002  0.17256999999999997  1.0000
  C   C87       1.0  0.6052899999999999  0.8850700000000002  0.17076  1.0000
  C   C88       1.0  0.48379  0.87049  0.20054999999999998  1.0000
  C   C89       1.0  0.46076999999999996  0.80209  0.23186999999999994  1.0000
  C   C90       1.0  0.63185  0.9611600000000002  0.13921999999999998  1.0000
  S   S1        1.0  0.23279000000000008  0.8515500000000003  0.46494  1.0000
  S   S2        1.0  0.04220999999999985  0.36561000000000005  0.9017199999999999  1.0000
  S   S3        1.0  0.46664  0.34066  0.72985  1.0000
  S   S4        1.0  0.76719  0.14814000000000002  0.53512  1.0000
  S   S5        1.0  0.9567699999999998  0.63416  0.09774999999999999  1.0000
  S   S6        1.0  0.53368  0.65939  0.27013  1.0000
  O   O1        1.0  0.11792000000000008  0.8631700000000002  0.7620299999999999  1.0000
  O   O2        1.0  0.32637  0.8654800000000002  0.7239799999999998  1.0000
  O   O3        1.0  0.87185  0.8793900000000002  0.47493  1.0000
  O   O4        1.0  0.18467999999999993  0.9318500000000002  0.51172  1.0000
  O   O5        1.0  0.11196999999999999  0.7645600000000002  0.4504799999999999  1.0000
  O   O6        1.0  0.39400999999999997  0.8615800000000002  0.49393999999999993  1.0000
  O   O7        1.0  0.05861000000000007  0.9955200000000002  0.20110999999999998  1.0000
  O   O8        1.0  0.32038999999999995  0.04235999999999998  0.22715999999999995  1.0000
  O   O9        1.0  0.13337999999999992  0.79597  0.8790799999999998  1.0000
  O   O10       1.0  0.32412000000000013  0.7663400000000002  0.83702  1.0000
  O   O11       1.0  0.8920899999999998  0.34585  0.9155599999999998  1.0000
  O   O12       1.0  0.0740199999999999  0.2992699999999999  0.8539299999999999  1.0000
  O   O13       1.0  0.17580999999999997  0.3896900000000001  0.97095  1.0000
  O   O14       1.0  0.45953000000000005  0.9909500000000001  0.86128  1.0000
  O   O15       1.0  0.25226999999999994  0.025519999999999987  0.88535  1.0000
  O   O16       1.0  0.07888000000000002  0.12000000000000002  0.06932  1.0000
  O   O17       1.0  0.31850000000000006  0.10754000000000002  0.09619999999999998  1.0000
  O   O18       1.0  0.3494  0.38645  0.73583  1.0000
  O   O19       1.0  0.6349899999999999  0.4072000000000001  0.7817  1.0000
  O   O20       1.0  0.56363  0.7225500000000001  0.7808199999999998  1.0000
  O   O21       1.0  0.4479  0.4020700000000001  0.94073  1.0000
  O   O22       1.0  0.8034899999999998  0.8035400000000001  0.7839899999999999  1.0000
  O   O23       1.0  0.8734499999999998  0.4020700000000001  0.73024  1.0000
  O   O24       1.0  0.49529999999999996  0.31089999999999995  0.6681299999999999  1.0000
  O   O25       1.0  0.88237  0.13717000000000004  0.23827  1.0000
  O   O26       1.0  0.6731899999999998  0.13302999999999998  0.27605999999999997  1.0000
  O   O27       1.0  0.1282  0.12060000000000005  0.52513  1.0000
  O   O28       1.0  0.81534  0.06780000000000005  0.48841  1.0000
  O   O29       1.0  0.8881599999999998  0.23507  0.54966  1.0000
  O   O30       1.0  0.6060999999999999  0.13837999999999998  0.50609  1.0000
  O   O31       1.0  0.9407899999999999  0.004699999999999995  0.79943  1.0000
  O   O32       1.0  0.6790199999999998  0.95697  0.7728499999999999  1.0000
  O   O33       1.0  0.8671699999999999  0.20414  0.12102999999999997  1.0000
  O   O34       1.0  0.67742  0.23381  0.16364  1.0000
  O   O35       1.0  0.10738  0.6542  0.08439  1.0000
  O   O36       1.0  0.9240499999999999  0.70005  0.14555999999999997  1.0000
  O   O37       1.0  0.82422  0.6106100000000002  0.028119999999999992  1.0000
  O   O38       1.0  0.54048  0.009570000000000002  0.13906999999999997  1.0000
  O   O39       1.0  0.74737  0.9747  0.11481  1.0000
  O   O40       1.0  0.91997  0.88046  0.9303299999999999  1.0000
  O   O41       1.0  0.6819099999999999  0.8965400000000001  0.9061799999999998  1.0000
  O   O42       1.0  0.65082  0.6135600000000002  0.26401  1.0000
  O   O43       1.0  0.36526  0.59286  0.21835  1.0000
  O   O44       1.0  0.43624999999999997  0.27851  0.21785  1.0000
  O   O45       1.0  0.5513199999999999  0.59765  0.05809999999999999  1.0000
  O   O46       1.0  0.19862000000000002  0.19619000000000006  0.21604  1.0000
  O   O47       1.0  0.1320200000000001  0.5997500000000002  0.27276  1.0000
  O   O48       1.0  0.50507  0.68896  0.33186999999999994  1.0000
