data_image0
_chemical_formula_structural       Cu6H52C84N8O24
_chemical_formula_sum              "Cu6 H52 C84 N8 O24"
_cell_length_a       9.91755
_cell_length_b       15.72208
_cell_length_c       21.04949
_cell_angle_alpha    99.67826999999998
_cell_angle_beta     92.78605999999999
_cell_angle_gamma    105.83623

_space_group_name_H-M_alt    "P 1"
_space_group_IT_number       1

loop_
  _space_group_symop_operation_xyz
  'x, y, z'

loop_
  _atom_site_type_symbol
  _atom_site_label
  _atom_site_symmetry_multiplicity
  _atom_site_fract_x
  _atom_site_fract_y
  _atom_site_fract_z
  _atom_site_occupancy
  Cu  Cu1       1.0  0.36731000000000014  0.7976900000000002  0.5447599999999999  1.0000
  Cu  Cu2       1.0  0.9480800000000001  0.08979000000000001  0.36941999999999997  1.0000
  Cu  Cu3       1.0  0.9458300000000001  0.10015000000000003  0.80232  1.0000
  Cu  Cu4       1.0  0.6317500000000003  0.20406000000000005  0.4568499999999999  1.0000
  Cu  Cu5       1.0  0.052319999999999985  0.9093900000000001  0.6306599999999999  1.0000
  Cu  Cu6       1.0  0.05570000000000013  0.9009000000000003  0.19763999999999998  1.0000
  H   H1        1.0  0.28447  0.32692  0.32563  1.0000
  H   H2        1.0  0.51904  0.44257000000000013  0.35104  1.0000
  H   H3        1.0  0.55644  0.3733900000000001  0.53977  1.0000
  H   H4        1.0  0.32263  0.2596  0.51347  1.0000
  H   H5        1.0  0.7504600000000003  0.48631000000000024  0.55702  1.0000
  H   H6        1.0  0.7207200000000001  0.51625  0.41708999999999996  1.0000
  H   H7        1.0  0.19822999999999993  0.69609  0.6309699999999999  1.0000
  H   H8        1.0  0.95792  0.58678  0.6230199999999999  1.0000
  H   H9        1.0  0.91787  0.5983800000000002  0.41927  1.0000
  H   H10       1.0  0.1565500000000001  0.7077900000000003  0.43669999999999987  1.0000
  H   H11       1.0  0.30934  0.17301  0.9318  1.0000
  H   H12       1.0  0.49399  0.17102  0.015889999999999998  1.0000
  H   H13       1.0  0.22795999999999994  0.92196  0.05402  1.0000
  H   H14       1.0  0.0497400000000001  0.9207600000000001  0.96625  1.0000
  H   H15       1.0  0.58688  0.09611000000000003  0.0852  1.0000
  H   H16       1.0  0.36665000000000014  0.9772700000000002  0.15551  1.0000
  H   H17       1.0  0.93789  0.12677  0.23861  1.0000
  H   H18       1.0  0.7581399999999999  0.10136999999999999  0.14641999999999997  1.0000
  H   H19       1.0  0.4511500000000001  0.9573200000000002  0.25901  1.0000
  H   H20       1.0  0.6426900000000002  0.9872200000000002  0.34598  1.0000
  H   H21       1.0  0.8931300000000001  0.07043000000000005  0.5778  1.0000
  H   H22       1.0  0.18489  0.09935000000000002  0.73269  1.0000
  H   H23       1.0  0.38631  0.20273999999999998  0.6921699999999998  1.0000
  H   H24       1.0  0.39267000000000013  0.36655000000000004  0.7027499999999999  1.0000
  H   H25       1.0  0.19110000000000008  0.4157700000000001  0.74947  1.0000
  H   H26       1.0  0.99506  0.3014600000000001  0.78519  1.0000
  H   H27       1.0  0.7144400000000001  0.6737100000000003  0.67445  1.0000
  H   H28       1.0  0.4798  0.55795  0.64892  1.0000
  H   H29       1.0  0.44249000000000005  0.6269600000000002  0.46028  1.0000
  H   H30       1.0  0.6762900000000001  0.7405800000000002  0.48635  1.0000
  H   H31       1.0  0.24827000000000007  0.5137200000000002  0.44328  1.0000
  H   H32       1.0  0.28012  0.4832500000000001  0.58295  1.0000
  H   H33       1.0  0.80081  0.30406000000000005  0.37002999999999997  1.0000
  H   H34       1.0  0.04194999999999999  0.4127  0.37762999999999997  1.0000
  H   H35       1.0  0.08300000000000005  0.4013100000000001  0.58134  1.0000
  H   H36       1.0  0.84381  0.2923900000000001  0.56429  1.0000
  H   H37       1.0  0.6914900000000002  0.82792  0.06837  1.0000
  H   H38       1.0  0.50684  0.83028  0.9843799999999999  1.0000
  H   H39       1.0  0.7739900000000001  0.07842999999999996  0.9456599999999998  1.0000
  H   H40       1.0  0.95274  0.07918000000000003  0.03314999999999999  1.0000
  H   H41       1.0  0.41369  0.90618  0.9155499999999999  1.0000
  H   H42       1.0  0.63379  0.023379999999999998  0.84421  1.0000
  H   H43       1.0  0.06244000000000016  0.8723800000000003  0.7619  1.0000
  H   H44       1.0  0.24276000000000011  0.8987700000000002  0.85398  1.0000
  H   H45       1.0  0.5478500000000001  0.04396  0.74106  1.0000
  H   H46       1.0  0.35626  0.012439999999999996  0.65415  1.0000
  H   H47       1.0  0.10813000000000009  0.9295700000000002  0.42282999999999993  1.0000
  H   H48       1.0  0.8151000000000003  0.9013100000000002  0.26699  1.0000
  H   H49       1.0  0.61554  0.79802  0.30875  1.0000
  H   H50       1.0  0.60964  0.63433  0.29795  1.0000
  H   H51       1.0  0.8104400000000002  0.5851900000000002  0.25027  1.0000
  H   H52       1.0  0.005369999999999961  0.69959  0.21390999999999996  1.0000
  C   C1        1.0  0.15400000000000003  0.21638  0.40137  1.0000
  C   C2        1.0  0.28935000000000005  0.2878100000000001  0.4184  1.0000
  C   C3        1.0  0.3443300000000001  0.33967  0.37262  1.0000
  C   C4        1.0  0.47497000000000017  0.4035800000000002  0.38712  1.0000
  C   C5        1.0  0.55382  0.4179399999999999  0.44755  1.0000
  C   C6        1.0  0.4970900000000001  0.36514000000000013  0.4932  1.0000
  C   C7        1.0  0.36643  0.30114  0.47880999999999996  1.0000
  C   C8        1.0  0.77924  0.51377  0.5138  1.0000
  C   C9        1.0  0.68989  0.4854300000000001  0.45884  1.0000
  C   C10       1.0  0.13151999999999997  0.67085  0.5853099999999999  1.0000
  C   C11       1.0  0.99851  0.61008  0.57998  1.0000
  C   C12       1.0  0.91611  0.58019  0.5198  1.0000
  C   C13       1.0  0.9748700000000001  0.61705  0.46728  1.0000
  C   C14       1.0  0.10791000000000005  0.6776100000000002  0.47594999999999993  1.0000
  C   C15       1.0  0.0615  0.051750000000000004  0.89346  1.0000
  C   C16       1.0  0.16802  0.04756000000000001  0.94403  1.0000
  C   C17       1.0  0.29393  0.11805000000000004  0.95836  1.0000
  C   C18       1.0  0.39602  0.11676000000000003  0.00535  1.0000
  C   C19       1.0  0.37361  0.04735  0.04165  1.0000
  C   C20       1.0  0.24706000000000003  0.9765500000000003  0.026879999999999998  1.0000
  C   C21       1.0  0.14678  0.9757400000000002  0.9779  1.0000
  C   C22       1.0  0.48369000000000006  0.05329000000000001  0.09178  1.0000
  C   C23       1.0  0.47004  0.015769999999999992  0.14534999999999998  1.0000
  C   C24       1.0  0.8282900000000001  0.09109  0.24123  1.0000
  C   C25       1.0  0.7263600000000001  0.0762  0.19001999999999997  1.0000
  C   C26       1.0  0.58534  0.028930000000000008  0.19488  1.0000
  C   C27       1.0  0.5574200000000001  0.9949000000000002  0.25202  1.0000
  C   C28       1.0  0.66411  0.012919999999999977  0.30165999999999993  1.0000
  C   C29       1.0  0.5432600000000001  0.8554300000000004  0.6614899999999999  1.0000
  C   C30       1.0  0.6133600000000001  0.9132100000000002  0.61443  1.0000
  C   C31       1.0  0.7406200000000001  0.9820200000000002  0.62494  1.0000
  C   C32       1.0  0.8279900000000001  0.013229999999999964  0.6890099999999999  1.0000
  C   C33       1.0  0.7925400000000001  0.018430000000000023  0.57154  1.0000
  C   C34       1.0  0.78399  0.028900000000000006  0.4545699999999999  1.0000
  C   C35       1.0  0.7210700000000001  0.9862000000000002  0.50913  1.0000
  C   C36       1.0  0.59389  0.9175399999999999  0.5021999999999999  1.0000
  C   C37       1.0  0.4990500000000001  0.8667300000000002  0.4408699999999999  1.0000
  C   C38       1.0  0.19121000000000002  0.16996000000000006  0.73546  1.0000
  C   C39       1.0  0.30365000000000003  0.2285400000000001  0.71331  1.0000
  C   C40       1.0  0.30530999999999997  0.31855000000000006  0.7185399999999998  1.0000
  C   C41       1.0  0.19369000000000006  0.34622  0.74453  1.0000
  C   C42       1.0  0.08441999999999995  0.28314999999999996  0.7649499999999999  1.0000
  C   C43       1.0  0.8465499999999999  0.78293  0.59839  1.0000
  C   C44       1.0  0.7103500000000001  0.7121900000000002  0.5814299999999999  1.0000
  C   C45       1.0  0.6549700000000003  0.6607200000000002  0.62736  1.0000
  C   C46       1.0  0.52431  0.59687  0.61289  1.0000
  C   C47       1.0  0.44569  0.5822699999999998  0.5524199999999999  1.0000
  C   C48       1.0  0.50214  0.6351300000000001  0.5067599999999999  1.0000
  C   C49       1.0  0.63291  0.69905  0.5210899999999999  1.0000
  C   C50       1.0  0.22034  0.4860300000000001  0.48647999999999997  1.0000
  C   C51       1.0  0.3100800000000002  0.5144300000000003  0.54127  1.0000
  C   C52       1.0  0.8680200000000001  0.3291000000000001  0.41555999999999993  1.0000
  C   C53       1.0  0.0012400000000000215  0.3894700000000001  0.4206699999999999  1.0000
  C   C54       1.0  0.08386999999999999  0.41942  0.48077  1.0000
  C   C55       1.0  0.025599999999999987  0.38271  0.53343  1.0000
  C   C56       1.0  0.89235  0.32246000000000014  0.52497  1.0000
  C   C57       1.0  0.94071  0.9486300000000002  0.10614  1.0000
  C   C58       1.0  0.8337100000000001  0.9530000000000002  0.05583  1.0000
  C   C59       1.0  0.7073  0.8828100000000001  0.04174  1.0000
  C   C60       1.0  0.60512  0.8843000000000002  0.9948099999999999  1.0000
  C   C61       1.0  0.6276700000000002  0.9536100000000002  0.9584099999999998  1.0000
  C   C62       1.0  0.75476  0.023980000000000026  0.97291  1.0000
  C   C63       1.0  0.85522  0.02457000000000001  0.02174  1.0000
  C   C64       1.0  0.5172099999999998  0.9481900000000001  0.9085699999999999  1.0000
  C   C65       1.0  0.5304800000000002  0.9853800000000003  0.8548399999999999  1.0000
  C   C66       1.0  0.17173000000000005  0.9086500000000002  0.75923  1.0000
  C   C67       1.0  0.2740000000000002  0.9242000000000002  0.8104099999999999  1.0000
  C   C68       1.0  0.41468000000000016  0.9720900000000003  0.8054899999999999  1.0000
  C   C69       1.0  0.44193000000000005  0.006049999999999976  0.7482799999999998  1.0000
  C   C70       1.0  0.33497000000000016  0.9872400000000002  0.6986599999999998  1.0000
  C   C71       1.0  0.45640000000000003  0.14607  0.33972  1.0000
  C   C72       1.0  0.38703  0.08756000000000003  0.38657  1.0000
  C   C73       1.0  0.26026  0.018200000000000008  0.37568  1.0000
  C   C74       1.0  0.17298000000000008  0.9871400000000002  0.31144  1.0000
  C   C75       1.0  0.20888  0.98143  0.4290399999999999  1.0000
  C   C76       1.0  0.21621000000000015  0.9705900000000002  0.5456699999999999  1.0000
  C   C77       1.0  0.2809  0.013089999999999984  0.49141999999999997  1.0000
  C   C78       1.0  0.40852000000000005  0.08157000000000002  0.49862999999999996  1.0000
  C   C79       1.0  0.50517  0.13121  0.56001  1.0000
  C   C80       1.0  0.80927  0.83079  0.26429  1.0000
  C   C81       1.0  0.69757  0.7722  0.28690999999999994  1.0000
  C   C82       1.0  0.69634  0.68228  0.28167  1.0000
  C   C83       1.0  0.80753  0.6546600000000002  0.25518  1.0000
  C   C84       1.0  0.9162000000000002  0.7177800000000002  0.23443  1.0000
  N   N1        1.0  0.1864500000000001  0.7032500000000003  0.5339199999999998  1.0000
  N   N2        1.0  0.79742  0.06133000000000001  0.29701  1.0000
  N   N3        1.0  0.5468600000000002  0.8866200000000002  0.55481  1.0000
  N   N4        1.0  0.08376000000000003  0.19657000000000005  0.7609  1.0000
  N   N5        1.0  0.81334  0.29706999999999995  0.46713999999999994  1.0000
  N   N6        1.0  0.20208000000000007  0.9383400000000002  0.70338  1.0000
  N   N7        1.0  0.45401  0.11356999999999999  0.44615999999999995  1.0000
  N   N8        1.0  0.9165800000000002  0.8043300000000002  0.23855999999999994  1.0000
  O   O1        1.0  0.11196000000000002  0.15961000000000006  0.4385999999999999  1.0000
  O   O2        1.0  0.07831000000000002  0.20793000000000006  0.3482199999999999  1.0000
  O   O3        1.0  0.971  0.9836100000000001  0.86132  1.0000
  O   O4        1.0  0.06794000000000006  0.13197000000000006  0.88209  1.0000
  O   O5        1.0  0.6064400000000001  0.8612000000000002  0.71467  1.0000
  O   O6        1.0  0.41914000000000007  0.80059  0.63854  1.0000
  O   O7        1.0  0.78829  0.06392000000000003  0.73459  1.0000
  O   O8        1.0  0.9437500000000002  0.9950700000000002  0.6951  1.0000
  O   O9        1.0  0.86078  0.9911200000000002  0.41922  1.0000
  O   O10       1.0  0.76643  0.10361000000000001  0.44815  1.0000
  O   O11       1.0  0.5291800000000001  0.8864300000000003  0.38745  1.0000
  O   O12       1.0  0.3914300000000001  0.8026400000000002  0.45001  1.0000
  O   O13       1.0  0.8878800000000002  0.8406600000000002  0.56175  1.0000
  O   O14       1.0  0.9236799999999996  0.78977  0.65084  1.0000
  O   O15       1.0  0.032720000000000006  0.01654  0.13784  1.0000
  O   O16       1.0  0.9333300000000002  0.8685000000000003  0.11779999999999999  1.0000
  O   O17       1.0  0.3942399999999999  0.13874  0.28589  1.0000
  O   O18       1.0  0.57873  0.20282  0.3632  1.0000
  O   O19       1.0  0.21291000000000007  0.9368800000000003  0.2657  1.0000
  O   O20       1.0  0.05703999999999999  0.004989999999999977  0.30518999999999996  1.0000
  O   O21       1.0  0.13999  0.009010000000000006  0.58084  1.0000
  O   O22       1.0  0.23136000000000012  0.8952500000000002  0.55205  1.0000
  O   O23       1.0  0.4794600000000001  0.10797000000000005  0.61277  1.0000
  O   O24       1.0  0.60942  0.19811000000000004  0.5517999999999998  1.0000
