data_image0
_chemical_formula_structural       Cu8H64C64N32
_chemical_formula_sum              "Cu8 H64 C64 N32"
_cell_length_a       10.72291
_cell_length_b       17.87266
_cell_length_c       13.59211
_cell_angle_alpha    90.07758
_cell_angle_beta     89.91849
_cell_angle_gamma    97.92046

_space_group_name_H-M_alt    "P 1"
_space_group_IT_number       1

loop_
  _space_group_symop_operation_xyz
  'x, y, z'

loop_
  _atom_site_type_symbol
  _atom_site_label
  _atom_site_symmetry_multiplicity
  _atom_site_fract_x
  _atom_site_fract_y
  _atom_site_fract_z
  _atom_site_occupancy
  Cu  Cu1       1.0  0.029259999999999984  0.36755999999999994  0.8349399999999999  1.0000
  Cu  Cu2       1.0  0.4715  0.13408  0.83403  1.0000
  Cu  Cu3       1.0  0.97061  0.13221999999999998  0.33548  1.0000
  Cu  Cu4       1.0  0.52786  0.36552  0.3329  1.0000
  Cu  Cu5       1.0  0.97092  0.63202  0.1648  1.0000
  Cu  Cu6       1.0  0.52763  0.8658699999999998  0.16709  1.0000
  Cu  Cu7       1.0  0.02917999999999997  0.8677999999999998  0.66463  1.0000
  Cu  Cu8       1.0  0.47166000000000013  0.63428  0.66684  1.0000
  H   H1        1.0  0.31031  0.38552  0.90645  1.0000
  H   H2        1.0  0.47162  0.30045  0.8768499999999998  1.0000
  H   H3        1.0  0.18797000000000003  0.11636999999999999  0.85338  1.0000
  H   H4        1.0  0.026919999999999996  0.20079  0.8840599999999998  1.0000
  H   H5        1.0  0.8653999999999998  0.2837  0.9708299999999999  1.0000
  H   H6        1.0  0.66365  0.19342  0.9693099999999999  1.0000
  H   H7        1.0  0.6378400000000001  0.22181  0.66547  1.0000
  H   H8        1.0  0.84023  0.30856  0.66683  1.0000
  H   H9        1.0  0.81635  0.45432  0.90169  1.0000
  H   H10       1.0  0.14785999999999996  0.4114099999999999  0.03513  1.0000
  H   H11       1.0  0.22839  0.37284  0.68055  1.0000
  H   H12       1.0  0.42876  0.45729  0.6575599999999999  1.0000
  H   H13       1.0  0.29566  0.61916  0.83627  1.0000
  H   H14       1.0  0.0944  0.53606  0.8567599999999999  1.0000
  H   H15       1.0  0.3239  0.07107  0.01083  1.0000
  H   H16       1.0  0.31012  0.9424  0.08426  1.0000
  H   H17       1.0  0.69017  0.11508  0.40587  1.0000
  H   H18       1.0  0.52896  0.2  0.37707  1.0000
  H   H19       1.0  0.81253  0.38404  0.35143  1.0000
  H   H20       1.0  0.9737500000000002  0.2996099999999999  0.38103  1.0000
  H   H21       1.0  0.1372  0.21431  0.47185  1.0000
  H   H22       1.0  0.33545  0.3072799999999999  0.46913999999999995  1.0000
  H   H23       1.0  0.3613  0.2782  0.16530999999999998  1.0000
  H   H24       1.0  0.16312999999999997  0.18789999999999998  0.16783999999999996  1.0000
  H   H25       1.0  0.18443  0.045  0.40114  1.0000
  H   H26       1.0  0.85357  0.08811999999999999  0.5365  1.0000
  H   H27       1.0  0.77312  0.1262  0.17915  1.0000
  H   H28       1.0  0.5719800000000002  0.0423  0.15719999999999998  1.0000
  H   H29       1.0  0.70329  0.88114  0.33741  1.0000
  H   H30       1.0  0.9054200000000001  0.9634799999999999  0.3565  1.0000
  H   H31       1.0  0.67573  0.4279799999999999  0.51128  1.0000
  H   H32       1.0  0.68963  0.55694  0.58475  1.0000
  H   H33       1.0  0.69006  0.61492  0.09464  1.0000
  H   H34       1.0  0.52854  0.69994  0.12288  1.0000
  H   H35       1.0  0.81181  0.8840999999999999  0.14839  1.0000
  H   H36       1.0  0.97339  0.79959  0.11938999999999998  1.0000
  H   H37       1.0  0.13728  0.71422  0.0282  1.0000
  H   H38       1.0  0.33560000000000006  0.80716  0.03083  1.0000
  H   H39       1.0  0.36100000000000004  0.77826  0.33463  1.0000
  H   H40       1.0  0.16259  0.68816  0.33199  1.0000
  H   H41       1.0  0.18430000000000002  0.54507  0.09841  1.0000
  H   H42       1.0  0.85343  0.5882  0.96394  1.0000
  H   H43       1.0  0.77329  0.62625  0.32143  1.0000
  H   H44       1.0  0.5723000000000001  0.54245  0.34358999999999995  1.0000
  H   H45       1.0  0.70372  0.38126  0.1624  1.0000
  H   H46       1.0  0.9057800000000001  0.46375999999999995  0.14348  1.0000
  H   H47       1.0  0.67586  0.9281399999999999  0.9885  1.0000
  H   H48       1.0  0.68944  0.056850000000000005  0.91511  1.0000
  H   H49       1.0  0.31021  0.88548  0.59345  1.0000
  H   H50       1.0  0.47118  0.8006199999999999  0.62376  1.0000
  H   H51       1.0  0.18717000000000003  0.61653  0.6470399999999998  1.0000
  H   H52       1.0  0.026540000000000015  0.70086  0.61556  1.0000
  H   H53       1.0  0.86575  0.78349  0.52899  1.0000
  H   H54       1.0  0.66372  0.6935  0.53053  1.0000
  H   H55       1.0  0.63776  0.72211  0.8343899999999999  1.0000
  H   H56       1.0  0.84024  0.80859  0.83306  1.0000
  H   H57       1.0  0.8169  0.9543699999999999  0.59875  1.0000
  H   H58       1.0  0.14842999999999998  0.9115099999999999  0.46452  1.0000
  H   H59       1.0  0.22814  0.87285  0.81899  1.0000
  H   H60       1.0  0.42844  0.9571699999999999  0.8422  1.0000
  H   H61       1.0  0.29608  0.11917  0.66406  1.0000
  H   H62       1.0  0.09484  0.03622  0.64349  1.0000
  H   H63       1.0  0.32394  0.57109  0.49001  1.0000
  H   H64       1.0  0.30987  0.44215  0.41667  1.0000
  C   C1        1.0  0.28228  0.32533999999999996  0.89433  1.0000
  C   C2        1.0  0.37185  0.27831  0.87716  1.0000
  C   C3        1.0  0.2153  0.17661  0.8648399999999999  1.0000
  C   C4        1.0  0.12633  0.22371  0.88202  1.0000
  C   C5        1.0  0.81528  0.26794  0.90268  1.0000
  C   C6        1.0  0.70431  0.21911999999999995  0.90184  1.0000
  C   C7        1.0  0.68892  0.23435999999999998  0.73407  1.0000
  C   C8        1.0  0.80104  0.28274  0.73459  1.0000
  C   C9        1.0  0.8986  0.47467  0.9459699999999999  1.0000
  C   C10       1.0  0.08174999999999999  0.4510899999999999  0.020099999999999996  1.0000
  C   C11       1.0  0.24275  0.42845  0.71456  1.0000
  C   C12       1.0  0.35439000000000004  0.47581  0.70196  1.0000
  C   C13       1.0  0.28081  0.56427  0.80051  1.0000
  C   C14       1.0  0.16886  0.51752  0.8125599999999998  1.0000
  C   C15       1.0  0.40319000000000005  0.03923  0.006659999999999998  1.0000
  C   C16       1.0  0.39513  0.9675399999999998  0.046  1.0000
  C   C17       1.0  0.71831  0.17515  0.39319  1.0000
  C   C18       1.0  0.62872  0.22215  0.37651  1.0000
  C   C19       1.0  0.7852  0.32382  0.36296  1.0000
  C   C20       1.0  0.8743100000000003  0.2767199999999999  0.37946  1.0000
  C   C21       1.0  0.18658  0.23038  0.40343  1.0000
  C   C22       1.0  0.29574  0.28074999999999994  0.40188  1.0000
  C   C23       1.0  0.31102  0.2649  0.23413  1.0000
  C   C24       1.0  0.20081  0.21483  0.23540999999999998  1.0000
  C   C25       1.0  0.10227  0.02475  0.44569  1.0000
  C   C26       1.0  0.9193600000000002  0.04837  0.52058  1.0000
  C   C27       1.0  0.75815  0.07098  0.21401  1.0000
  C   C28       1.0  0.64607  0.023969999999999995  0.20190999999999998  1.0000
  C   C29       1.0  0.71851  0.93581  0.30123  1.0000
  C   C30       1.0  0.8309800000000003  0.9821999999999999  0.31267  1.0000
  C   C31       1.0  0.59644  0.45982999999999996  0.50729  1.0000
  C   C32       1.0  0.60465  0.53163  0.54663  1.0000
  C   C33       1.0  0.71807  0.67504  0.10724  1.0000
  C   C34       1.0  0.6283  0.7221  0.12344  1.0000
  C   C35       1.0  0.78468  0.82384  0.13694  1.0000
  C   C36       1.0  0.87393  0.7766899999999999  0.12082  1.0000
  C   C37       1.0  0.18662  0.73051  0.09651999999999998  1.0000
  C   C38       1.0  0.29592  0.78077  0.09814  1.0000
  C   C39       1.0  0.31079000000000007  0.76497  0.26582  1.0000
  C   C40       1.0  0.20046  0.7150399999999999  0.26447  1.0000
  C   C41       1.0  0.10215000000000003  0.52478  0.053949999999999984  1.0000
  C   C42       1.0  0.9192000000000001  0.54843  0.9795499999999999  1.0000
  C   C43       1.0  0.75808  0.5710699999999997  0.28637  1.0000
  C   C44       1.0  0.6461  0.52395  0.29856  1.0000
  C   C45       1.0  0.71873  0.4359  0.19881  1.0000
  C   C46       1.0  0.83109  0.4824  0.18732  1.0000
  C   C47       1.0  0.5964299999999999  0.95986  0.99275  1.0000
  C   C48       1.0  0.60452  0.03156  0.9533899999999998  1.0000
  C   C49       1.0  0.28204  0.82532  0.60547  1.0000
  C   C50       1.0  0.37146  0.7783499999999999  0.6231599999999998  1.0000
  C   C51       1.0  0.21479999999999996  0.6767199999999999  0.63542  1.0000
  C   C52       1.0  0.12598  0.72376  0.61764  1.0000
  C   C53       1.0  0.81537  0.76795  0.59714  1.0000
  C   C54       1.0  0.7043  0.71923  0.59798  1.0000
  C   C55       1.0  0.68889  0.73462  0.76578  1.0000
  C   C56       1.0  0.80107  0.7829099999999999  0.76522  1.0000
  C   C57       1.0  0.89904  0.9746999999999999  0.55426  1.0000
  C   C58       1.0  0.08221000000000002  0.9511600000000001  0.47968  1.0000
  C   C59       1.0  0.24252  0.92842  0.78508  1.0000
  C   C60       1.0  0.35423999999999994  0.9756699999999999  0.7978299999999998  1.0000
  C   C61       1.0  0.28125  0.0643  0.69971  1.0000
  C   C62       1.0  0.16924  0.01766  0.68749  1.0000
  C   C63       1.0  0.40319000000000005  0.5392  0.49388999999999994  1.0000
  C   C64       1.0  0.39503  0.46743  0.45455  1.0000
  N   N1        1.0  0.15543  0.30002  0.89594  1.0000
  N   N2        1.0  0.34159  0.20271999999999998  0.8598999999999998  1.0000
  N   N3        1.0  0.86893  0.30095  0.8186799999999997  1.0000
  N   N4        1.0  0.6374700000000001  0.19947  0.81753  1.0000
  N   N5        1.0  0.97985  0.4235499999999999  0.96417  1.0000
  N   N6        1.0  0.14446999999999996  0.4470099999999999  0.77049  1.0000
  N   N7        1.0  0.37834  0.54677  0.74267  1.0000
  N   N8        1.0  0.50779  0.07438  0.9584799999999999  1.0000
  N   N9        1.0  0.84526  0.20045  0.39379  1.0000
  N   N10       1.0  0.65881  0.2977  0.35902999999999996  1.0000
  N   N11       1.0  0.13356  0.19644  0.31978  1.0000
  N   N12       1.0  0.36151  0.30094  0.31717  1.0000
  N   N13       1.0  0.02095  0.07586  0.4642899999999999  1.0000
  N   N14       1.0  0.85613  0.0524  0.27004  1.0000
  N   N15       1.0  0.62137  0.95332  0.24324  1.0000
  N   N16       1.0  0.49188  0.4246899999999999  0.45911  1.0000
  N   N17       1.0  0.845  0.70037  0.10678999999999998  1.0000
  N   N18       1.0  0.6583  0.79771  0.14073  1.0000
  N   N19       1.0  0.13335  0.69669  0.18013  1.0000
  N   N20       1.0  0.36149000000000003  0.8009899999999998  0.18286999999999995  1.0000
  N   N21       1.0  0.02098999999999999  0.57596  0.03553  1.0000
  N   N22       1.0  0.8561  0.55258  0.23009  1.0000
  N   N23       1.0  0.62144  0.45329  0.25702  1.0000
  N   N24       1.0  0.49194  0.92476  0.04118  1.0000
  N   N25       1.0  0.15520999999999996  0.8000099999999999  0.6033399999999999  1.0000
  N   N26       1.0  0.34112  0.70279  0.64056  1.0000
  N   N27       1.0  0.86899  0.8010699999999998  0.68107  1.0000
  N   N28       1.0  0.63733  0.69973  0.6823599999999999  1.0000
  N   N29       1.0  0.98046  0.9236599999999999  0.53589  1.0000
  N   N30       1.0  0.14446  0.94714  0.7293  1.0000
  N   N31       1.0  0.37851  0.04666  0.7574799999999998  1.0000
  N   N32       1.0  0.50791  0.57445  0.54175  1.0000
