data_image0
_chemical_formula_structural       Cd4H64C80N12Cl4O12F8
_chemical_formula_sum              "Cd4 H64 C80 N12 Cl4 O12 F8"
_cell_length_a       6.44589
_cell_length_b       15.690380000000001
_cell_length_c       23.75439
_cell_angle_alpha    89.93483
_cell_angle_beta     90.03618
_cell_angle_gamma    99.84502000000002

_space_group_name_H-M_alt    "P 1"
_space_group_IT_number       1

loop_
  _space_group_symop_operation_xyz
  'x, y, z'

loop_
  _atom_site_type_symbol
  _atom_site_label
  _atom_site_symmetry_multiplicity
  _atom_site_fract_x
  _atom_site_fract_y
  _atom_site_fract_z
  _atom_site_occupancy
  Cd  Cd1       1.0  0.7377299999999998  0.9691500000000002  0.4674000000000001  1.0000
  Cd  Cd2       1.0  0.2624499999999999  0.53052  0.9670400000000002  1.0000
  Cd  Cd3       1.0  0.26225  0.03086  0.5326  1.0000
  Cd  Cd4       1.0  0.73753  0.46949  0.03296  1.0000
  H   H1        1.0  0.15869  0.08742  0.32956  1.0000
  H   H2        1.0  0.04998000000000003  0.37736  0.26495  1.0000
  H   H3        1.0  0.5809  0.30780000000000013  0.4136300000000001  1.0000
  H   H4        1.0  0.63067  0.3874  0.26679  1.0000
  H   H5        1.0  0.6433  0.54838  0.25303  1.0000
  H   H6        1.0  0.0035900000000001157  0.6005500000000003  0.4048  1.0000
  H   H7        1.0  0.9989999999999999  0.44022  0.41792  1.0000
  H   H8        1.0  0.29709  0.44115  0.22650000000000006  1.0000
  H   H9        1.0  0.1535  0.39462  0.16684  1.0000
  H   H10       1.0  0.4368899999999999  0.50655  0.13386000000000003  1.0000
  H   H11       1.0  0.6289  0.4633600000000001  0.17337000000000002  1.0000
  H   H12       1.0  0.7108599999999998  0.3185800000000001  0.14465000000000003  1.0000
  H   H13       1.0  0.58359  0.2696500000000001  0.08326  1.0000
  H   H14       1.0  0.23867999999999995  0.24924000000000004  0.13185  1.0000
  H   H15       1.0  0.41776999999999986  0.19929  0.1718  1.0000
  H   H16       1.0  0.37803000000000003  0.38102000000000014  0.07927000000000001  1.0000
  H   H17       1.0  0.83792  0.41212  0.8294300000000001  1.0000
  H   H18       1.0  0.95107  0.12284  0.76505  1.0000
  H   H19       1.0  0.4189899999999999  0.19283  0.9137400000000002  1.0000
  H   H20       1.0  0.36892999999999987  0.11304  0.7668200000000002  1.0000
  H   H21       1.0  0.35621  0.95182  0.7535900000000001  1.0000
  H   H22       1.0  0.99587  0.9006400000000002  0.90549  1.0000
  H   H23       1.0  0.0006700000000000013  0.061369999999999994  0.9179600000000002  1.0000
  H   H24       1.0  0.70312  0.05837  0.7264400000000002  1.0000
  H   H25       1.0  0.84629  0.1051  0.66671  1.0000
  H   H26       1.0  0.56264  0.99324  0.63376  1.0000
  H   H27       1.0  0.37077  0.03635  0.67331  1.0000
  H   H28       1.0  0.28906  0.18131  0.64455  1.0000
  H   H29       1.0  0.4163199999999999  0.2303  0.58317  1.0000
  H   H30       1.0  0.7614499999999997  0.2504  0.63178  1.0000
  H   H31       1.0  0.5826  0.30044000000000004  0.67169  1.0000
  H   H32       1.0  0.6216299999999999  0.11888000000000001  0.5792200000000001  1.0000
  H   H33       1.0  0.84128  0.91258  0.67044  1.0000
  H   H34       1.0  0.95  0.62264  0.7350500000000002  1.0000
  H   H35       1.0  0.4190799999999999  0.69221  0.58637  1.0000
  H   H36       1.0  0.36930999999999997  0.6126  0.73321  1.0000
  H   H37       1.0  0.3566799999999999  0.45162  0.74697  1.0000
  H   H38       1.0  0.9963899999999998  0.39946  0.5952  1.0000
  H   H39       1.0  0.0009800000000000073  0.55979  0.58208  1.0000
  H   H40       1.0  0.70289  0.55886  0.7735  1.0000
  H   H41       1.0  0.8464799999999998  0.60538  0.83316  1.0000
  H   H42       1.0  0.56309  0.4934500000000001  0.8661400000000001  1.0000
  H   H43       1.0  0.37107999999999997  0.5366400000000002  0.8266300000000002  1.0000
  H   H44       1.0  0.2891099999999999  0.68143  0.8553500000000002  1.0000
  H   H45       1.0  0.41639  0.73036  0.91674  1.0000
  H   H46       1.0  0.7612999999999999  0.7507600000000002  0.86815  1.0000
  H   H47       1.0  0.5822099999999998  0.80072  0.8282000000000003  1.0000
  H   H48       1.0  0.62195  0.61899  0.92073  1.0000
  H   H49       1.0  0.16205999999999998  0.58789  0.17057  1.0000
  H   H50       1.0  0.04889999999999992  0.87716  0.23495000000000005  1.0000
  H   H51       1.0  0.58099  0.80717  0.08626  1.0000
  H   H52       1.0  0.63105  0.88696  0.23318  1.0000
  H   H53       1.0  0.6437599999999998  0.04819  0.24641000000000002  1.0000
  H   H54       1.0  0.004110000000000007  0.09937  0.09451  1.0000
  H   H55       1.0  0.9993099999999998  0.93864  0.08204000000000002  1.0000
  H   H56       1.0  0.29685999999999996  0.94164  0.27356  1.0000
  H   H57       1.0  0.1536899999999999  0.89491  0.33329  1.0000
  H   H58       1.0  0.4373399999999999  0.00676  0.36623000000000006  1.0000
  H   H59       1.0  0.62921  0.9636500000000002  0.32669000000000004  1.0000
  H   H60       1.0  0.71092  0.8187  0.35545  1.0000
  H   H61       1.0  0.5836499999999999  0.76971  0.4168300000000001  1.0000
  H   H62       1.0  0.23852000000000004  0.7496100000000002  0.36822000000000005  1.0000
  H   H63       1.0  0.41737999999999986  0.69957  0.32831  1.0000
  H   H64       1.0  0.3783499999999999  0.88112  0.42078000000000004  1.0000
  C   C1        1.0  0.53645  0.15321000000000007  0.45457  1.0000
  C   C2        1.0  0.6914999999999998  0.18747  0.40933000000000014  1.0000
  C   C3        1.0  0.84196  0.14084  0.38368  1.0000
  C   C4        1.0  0.9760599999999998  0.18893000000000004  0.3406800000000001  1.0000
  C   C5        1.0  0.13292  0.15033  0.31472000000000006  1.0000
  C   C6        1.0  0.25591  0.19329  0.27318  1.0000
  C   C7        1.0  0.22831999999999994  0.27499  0.25096  1.0000
  C   C8        1.0  0.07826  0.31465  0.27896  1.0000
  C   C9        1.0  0.9575400000000001  0.27333000000000013  0.3235100000000001  1.0000
  C   C10       1.0  0.6891599999999999  0.27172  0.39307000000000003  1.0000
  C   C11       1.0  0.8132  0.40582  0.3434  1.0000
  C   C12       1.0  0.8239500000000001  0.5805800000000002  0.32816000000000006  1.0000
  C   C13       1.0  0.7117199999999998  0.4344400000000001  0.2967600000000001  1.0000
  C   C14       1.0  0.7182399999999999  0.5231300000000002  0.28886  1.0000
  C   C15       1.0  0.9244899999999998  0.55318  0.37503000000000003  1.0000
  C   C16       1.0  0.9201800000000001  0.46457  0.38226  1.0000
  C   C17       1.0  0.30626999999999993  0.4009600000000001  0.18908000000000003  1.0000
  C   C18       1.0  0.4795399999999999  0.44638  0.15043  1.0000
  C   C19       1.0  0.56234  0.30785  0.12085000000000003  1.0000
  C   C20       1.0  0.3838699999999999  0.26141  0.15728  1.0000
  C   C21       1.0  0.4625299999999999  0.34672  0.9546600000000002  1.0000
  C   C22       1.0  0.30755  0.31307  0.9090500000000002  1.0000
  C   C23       1.0  0.15790999999999994  0.35985  0.8827500000000003  1.0000
  C   C24       1.0  0.022329999999999996  0.31148  0.84004  1.0000
  C   C25       1.0  0.8634199999999999  0.34941  0.8141600000000001  1.0000
  C   C26       1.0  0.73904  0.30589  0.77314  1.0000
  C   C27       1.0  0.77026  0.22477  0.7508000000000002  1.0000
  C   C28       1.0  0.9216799999999998  0.18551  0.7787300000000001  1.0000
  C   C29       1.0  0.04168  0.22703  0.82332  1.0000
  C   C30       1.0  0.31074  0.22887000000000005  0.89296  1.0000
  C   C31       1.0  0.18722  0.09499000000000003  0.84354  1.0000
  C   C32       1.0  0.17615999999999998  0.92046  0.82916  1.0000
  C   C33       1.0  0.28812  0.06612  0.7969500000000002  1.0000
  C   C34       1.0  0.2813300000000001  0.9773100000000002  0.78934  1.0000
  C   C35       1.0  0.07481000000000003  0.94808  0.8756800000000001  1.0000
  C   C36       1.0  0.07948  0.036640000000000006  0.88254  1.0000
  C   C37       1.0  0.6936899999999998  0.09861000000000002  0.68899  1.0000
  C   C38       1.0  0.5201099999999999  0.053340000000000005  0.65036  1.0000
  C   C39       1.0  0.43752  0.19199000000000005  0.62076  1.0000
  C   C40       1.0  0.61611  0.23831000000000005  0.6571400000000001  1.0000
  C   C41       1.0  0.46352999999999994  0.8468  0.54543  1.0000
  C   C42       1.0  0.30848  0.81253  0.59067  1.0000
  C   C43       1.0  0.1580099999999999  0.85917  0.6163200000000001  1.0000
  C   C44       1.0  0.02392000000000009  0.8110700000000002  0.65932  1.0000
  C   C45       1.0  0.86706  0.84967  0.6852800000000002  1.0000
  C   C46       1.0  0.7440599999999998  0.80671  0.7268200000000001  1.0000
  C   C47       1.0  0.7716599999999998  0.72501  0.74904  1.0000
  C   C48       1.0  0.9217199999999999  0.68535  0.7210400000000001  1.0000
  C   C49       1.0  0.04243999999999999  0.72668  0.67649  1.0000
  C   C50       1.0  0.3108199999999999  0.72828  0.6069300000000001  1.0000
  C   C51       1.0  0.18677999999999995  0.59418  0.6566  1.0000
  C   C52       1.0  0.17602  0.4194200000000001  0.67184  1.0000
  C   C53       1.0  0.28826  0.5655600000000002  0.70324  1.0000
  C   C54       1.0  0.28174  0.4768700000000001  0.71113  1.0000
  C   C55       1.0  0.07549000000000002  0.44682000000000005  0.62497  1.0000
  C   C56       1.0  0.0798  0.53544  0.61774  1.0000
  C   C57       1.0  0.6937100000000002  0.5990400000000002  0.81092  1.0000
  C   C58       1.0  0.52044  0.5536300000000002  0.8495700000000003  1.0000
  C   C59       1.0  0.4376399999999999  0.69215  0.8791400000000001  1.0000
  C   C60       1.0  0.6160999999999999  0.7386  0.84272  1.0000
  C   C61       1.0  0.53745  0.65328  0.04534  1.0000
  C   C62       1.0  0.69242  0.68694  0.09095  1.0000
  C   C63       1.0  0.84206  0.64016  0.11725000000000002  1.0000
  C   C64       1.0  0.97764  0.6885300000000002  0.15996000000000002  1.0000
  C   C65       1.0  0.13654999999999998  0.65059  0.18583  1.0000
  C   C66       1.0  0.26093999999999995  0.69411  0.22686  1.0000
  C   C67       1.0  0.22971999999999992  0.77524  0.2492  1.0000
  C   C68       1.0  0.07830000000000004  0.8144900000000003  0.22127000000000002  1.0000
  C   C69       1.0  0.9582999999999999  0.77298  0.17668000000000003  1.0000
  C   C70       1.0  0.68924  0.7711300000000002  0.10704  1.0000
  C   C71       1.0  0.8127599999999998  0.90501  0.15646  1.0000
  C   C72       1.0  0.82382  0.07954  0.17084  1.0000
  C   C73       1.0  0.71186  0.93389  0.20305  1.0000
  C   C74       1.0  0.7186499999999999  0.02270000000000001  0.21066000000000001  1.0000
  C   C75       1.0  0.9251699999999998  0.05192  0.12432  1.0000
  C   C76       1.0  0.9205000000000001  0.9633700000000002  0.11746  1.0000
  C   C77       1.0  0.30629  0.9014000000000002  0.31101  1.0000
  C   C78       1.0  0.47987  0.94667  0.34964000000000006  1.0000
  C   C79       1.0  0.56246  0.80801  0.37924  1.0000
  C   C80       1.0  0.3838699999999999  0.7617  0.34286  1.0000
  N   N1        1.0  0.5156899999999999  0.39213  0.10213  1.0000
  N   N2        1.0  0.34867  0.31526  0.20656000000000005  1.0000
  N   N3        1.0  0.8121899999999999  0.31458  0.35193  1.0000
  N   N4        1.0  0.4839799999999999  0.10776  0.60206  1.0000
  N   N5        1.0  0.6511299999999999  0.18425000000000005  0.70634  1.0000
  N   N6        1.0  0.18808  0.18615  0.85178  1.0000
  N   N7        1.0  0.48429000000000005  0.6078800000000002  0.89787  1.0000
  N   N8        1.0  0.6513099999999997  0.68475  0.7934400000000001  1.0000
  N   N9        1.0  0.18778999999999998  0.68542  0.6480700000000001  1.0000
  N   N10       1.0  0.51599  0.89224  0.3979400000000001  1.0000
  N   N11       1.0  0.34884000000000004  0.8157500000000002  0.29366000000000003  1.0000
  N   N12       1.0  0.8118899999999998  0.81386  0.14822000000000002  1.0000
  Cl  Cl1       1.0  0.06362000000000002  0.89796  0.46432  1.0000
  Cl  Cl2       1.0  0.9365899999999999  0.60191  0.96465  1.0000
  Cl  Cl3       1.0  0.9363600000000001  0.10204000000000003  0.5356800000000002  1.0000
  Cl  Cl4       1.0  0.06339000000000007  0.3981000000000001  0.03535  1.0000
  O   O1        1.0  0.4880099999999999  0.06950000000000003  0.4589900000000001  1.0000
  O   O2        1.0  0.45881  0.20531000000000005  0.4844  1.0000
  O   O3        1.0  0.8670999999999998  0.06429  0.39424000000000003  1.0000
  O   O4        1.0  0.51232  0.43046  0.9592700000000001  1.0000
  O   O5        1.0  0.5392  0.29443  0.98436  1.0000
  O   O6        1.0  0.13562  0.43695  0.8926900000000002  1.0000
  O   O7        1.0  0.51197  0.93051  0.54101  1.0000
  O   O8        1.0  0.5411699999999999  0.7946900000000002  0.51559  1.0000
  O   O9        1.0  0.1328699999999999  0.93571  0.6057600000000001  1.0000
  O   O10       1.0  0.4876599999999999  0.56954  0.04073  1.0000
  O   O11       1.0  0.4607799999999999  0.70557  0.01564  1.0000
  O   O12       1.0  0.86436  0.56306  0.10731000000000002  1.0000
  F   F1        1.0  0.4200299999999999  0.15578  0.25428000000000006  1.0000
  F   F2        1.0  0.83334  0.667  0.31988  1.0000
  F   F3        1.0  0.5711899999999999  0.34216  0.7542800000000001  1.0000
  F   F4        1.0  0.17187999999999992  0.83386  0.82322  1.0000
  F   F5        1.0  0.57995  0.84422  0.74572  1.0000
  F   F6        1.0  0.16663999999999998  0.333  0.68012  1.0000
  F   F7        1.0  0.4287799999999999  0.65784  0.24571000000000004  1.0000
  F   F8        1.0  0.8281099999999998  0.16615  0.17678  1.0000
