data_image0
_chemical_formula_structural       Zn4H52C80N4O20
_chemical_formula_sum              "Zn4 H52 C80 N4 O20"
_cell_length_a       16.24743
_cell_length_b       16.24884
_cell_length_c       23.52684
_cell_angle_alpha    73.38176
_cell_angle_beta     73.36281
_cell_angle_gamma    66.28904999999999

_space_group_name_H-M_alt    "P 1"
_space_group_IT_number       1

loop_
  _space_group_symop_operation_xyz
  'x, y, z'

loop_
  _atom_site_type_symbol
  _atom_site_label
  _atom_site_symmetry_multiplicity
  _atom_site_fract_x
  _atom_site_fract_y
  _atom_site_fract_z
  _atom_site_occupancy
  Zn  Zn1       1.0  0.40893  0.006630000000000006  0.51076  1.0000
  Zn  Zn2       1.0  0.9934000000000002  0.5910599999999997  0.9892199999999999  1.0000
  Zn  Zn3       1.0  0.5910700000000002  0.9933599999999996  0.48923999999999995  1.0000
  Zn  Zn4       1.0  0.0065999999999999965  0.40893  0.01078  1.0000
  H   H1        1.0  0.44745000000000007  0.7850199999999998  0.43288  1.0000
  H   H2        1.0  0.49099000000000015  0.6533699999999998  0.3807  1.0000
  H   H3        1.0  0.77456  0.6230600000000001  0.34977  1.0000
  H   H4        1.0  0.7300300000000002  0.7549299999999998  0.40135999999999994  1.0000
  H   H5        1.0  0.7448600000000002  0.4042699999999999  0.30186  1.0000
  H   H6        1.0  0.8483699999999998  0.38173  0.20075999999999997  1.0000
  H   H7        1.0  0.79772  0.67003  0.14922  1.0000
  H   H8        1.0  0.6939400000000001  0.69383  0.24902999999999995  1.0000
  H   H9        1.0  0.28811  0.90847  0.59541  1.0000
  H   H10       1.0  0.13694000000000006  0.8938999999999998  0.60246  1.0000
  H   H11       1.0  0.10845000000000003  0.10004999999999996  0.43833  1.0000
  H   H12       1.0  0.26080999999999993  0.10353  0.43815  1.0000
  H   H13       1.0  0.99814  0.9442  0.56504  1.0000
  H   H14       1.0  0.2150300000000001  0.5525299999999997  0.06713  1.0000
  H   H15       1.0  0.34669  0.5089999999999999  0.11930999999999999  1.0000
  H   H16       1.0  0.37695999999999996  0.22548  0.1502  1.0000
  H   H17       1.0  0.24508000000000005  0.2699999999999999  0.09861999999999999  1.0000
  H   H18       1.0  0.59573  0.2552  0.19809  1.0000
  H   H19       1.0  0.61829  0.15170999999999996  0.29915  1.0000
  H   H20       1.0  0.32993000000000006  0.20231999999999992  0.35077  1.0000
  H   H21       1.0  0.3061300000000002  0.3060699999999998  0.251  1.0000
  H   H22       1.0  0.0915400000000001  0.7118699999999998  0.90455  1.0000
  H   H23       1.0  0.10610000000000004  0.863  0.8975099999999999  1.0000
  H   H24       1.0  0.8999300000000001  0.89155  0.06166  1.0000
  H   H25       1.0  0.8964500000000001  0.73922  0.061829999999999996  1.0000
  H   H26       1.0  0.05580000000000004  0.0018399999999999827  0.93495  1.0000
  H   H27       1.0  0.55255  0.21497  0.56712  1.0000
  H   H28       1.0  0.50901  0.34662  0.61931  1.0000
  H   H29       1.0  0.2254400000000001  0.37692999999999977  0.65023  1.0000
  H   H30       1.0  0.26997  0.24505999999999992  0.59864  1.0000
  H   H31       1.0  0.2551400000000001  0.5957199999999998  0.69815  1.0000
  H   H32       1.0  0.15163000000000007  0.61826  0.79925  1.0000
  H   H33       1.0  0.20228000000000004  0.32997000000000004  0.8507799999999999  1.0000
  H   H34       1.0  0.3060599999999999  0.30615999999999993  0.7509799999999999  1.0000
  H   H35       1.0  0.71189  0.09152000000000003  0.40458999999999995  1.0000
  H   H36       1.0  0.8630600000000002  0.10608999999999996  0.39754999999999996  1.0000
  H   H37       1.0  0.89155  0.8999399999999997  0.5616699999999999  1.0000
  H   H38       1.0  0.7391900000000002  0.8964599999999998  0.56185  1.0000
  H   H39       1.0  0.0018600000000000068  0.055790000000000006  0.43495999999999996  1.0000
  H   H40       1.0  0.7849700000000001  0.44745999999999997  0.9328799999999999  1.0000
  H   H41       1.0  0.6533100000000002  0.49098999999999987  0.8806999999999998  1.0000
  H   H42       1.0  0.6230399999999999  0.7745099999999998  0.8497999999999999  1.0000
  H   H43       1.0  0.7549200000000003  0.7299899999999998  0.9013899999999999  1.0000
  H   H44       1.0  0.4042700000000001  0.74479  0.80191  1.0000
  H   H45       1.0  0.38169999999999993  0.8482899999999998  0.70085  1.0000
  H   H46       1.0  0.6700600000000001  0.7976699999999999  0.64923  1.0000
  H   H47       1.0  0.69387  0.6939200000000001  0.7489999999999999  1.0000
  H   H48       1.0  0.9084600000000002  0.28811999999999993  0.09545  1.0000
  H   H49       1.0  0.8939000000000001  0.13698999999999995  0.1025  1.0000
  H   H50       1.0  0.10007000000000006  0.10844  0.93834  1.0000
  H   H51       1.0  0.10355000000000006  0.26077000000000006  0.9381699999999998  1.0000
  H   H52       1.0  0.9442  0.99815  0.06505  1.0000
  C   C1        1.0  0.5593200000000002  0.8571899999999998  0.44977999999999996  1.0000
  C   C2        1.0  0.5861000000000002  0.7779399999999997  0.4197699999999999  1.0000
  C   C3        1.0  0.51858  0.74893  0.4145  1.0000
  C   C4        1.0  0.54237  0.67635  0.38567  1.0000
  C   C5        1.0  0.6345500000000002  0.6321899999999998  0.36225999999999997  1.0000
  C   C6        1.0  0.70321  0.6590399999999997  0.36788  1.0000
  C   C7        1.0  0.67841  0.7321999999999999  0.39644  1.0000
  C   C8        1.0  0.7144100000000001  0.5498299999999999  0.28125  1.0000
  C   C9        1.0  0.75747  0.46167  0.26798  1.0000
  C   C10       1.0  0.8144600000000001  0.4496  0.21185  1.0000
  C   C11       1.0  0.8299599999999999  0.5245  0.16857  1.0000
  C   C12       1.0  0.78638  0.61204  0.18298  1.0000
  C   C13       1.0  0.7284499999999999  0.62558  0.23861999999999997  1.0000
  C   C14       1.0  0.8910100000000001  0.51254  0.108  1.0000
  C   C15       1.0  0.24519000000000002  0.94889  0.56196  1.0000
  C   C16       1.0  0.1615100000000002  0.9414999999999996  0.56526  1.0000
  C   C17       1.0  0.1098400000000001  0.9942999999999997  0.52002  1.0000
  C   C18       1.0  0.14577  0.05507999999999999  0.4738  1.0000
  C   C19       1.0  0.22973000000000007  0.05872999999999997  0.4735599999999999  1.0000
  C   C20       1.0  0.023780000000000093  0.9835399999999996  0.52265  1.0000
  C   C21       1.0  0.14284000000000002  0.4406699999999999  0.05020999999999999  1.0000
  C   C22       1.0  0.22208000000000003  0.41390999999999994  0.08024  1.0000
  C   C23       1.0  0.25110000000000005  0.4814099999999999  0.08551999999999998  1.0000
  C   C24       1.0  0.3236700000000001  0.4576399999999999  0.11434  1.0000
  C   C25       1.0  0.36781  0.36547  0.13774  1.0000
  C   C26       1.0  0.34096  0.29682  0.13211  1.0000
  C   C27       1.0  0.26781  0.32160999999999995  0.10355  1.0000
  C   C28       1.0  0.4501600000000001  0.2856199999999999  0.21874  1.0000
  C   C29       1.0  0.53833  0.24257999999999988  0.23198  1.0000
  C   C30       1.0  0.55041  0.18558  0.28809999999999997  1.0000
  C   C31       1.0  0.4755  0.17007  0.3314  1.0000
  C   C32       1.0  0.38794000000000006  0.21363999999999997  0.31701  1.0000
  C   C33       1.0  0.37439  0.27157  0.26138  1.0000
  C   C34       1.0  0.48744000000000004  0.10902  0.39197  1.0000
  C   C35       1.0  0.051110000000000086  0.7548  0.9380099999999999  1.0000
  C   C36       1.0  0.058499999999999934  0.83846  0.93472  1.0000
  C   C37       1.0  0.005710000000000217  0.8901599999999996  0.97997  1.0000
  C   C38       1.0  0.9449100000000001  0.85423  0.026189999999999998  1.0000
  C   C39       1.0  0.9412600000000002  0.7702899999999998  0.02642  1.0000
  C   C40       1.0  0.016460000000000183  0.9762099999999997  0.97735  1.0000
  C   C41       1.0  0.44068  0.14279999999999998  0.55022  1.0000
  C   C42       1.0  0.41390000000000016  0.2220499999999999  0.58024  1.0000
  C   C43       1.0  0.48142  0.25106  0.58551  1.0000
  C   C44       1.0  0.45763  0.32363999999999987  0.61434  1.0000
  C   C45       1.0  0.36545000000000005  0.36779999999999996  0.63774  1.0000
  C   C46       1.0  0.29679000000000005  0.34094999999999975  0.63212  1.0000
  C   C47       1.0  0.3215900000000001  0.26779999999999987  0.60356  1.0000
  C   C48       1.0  0.28559  0.45017000000000007  0.71876  1.0000
  C   C49       1.0  0.24253000000000002  0.53832  0.7320299999999998  1.0000
  C   C50       1.0  0.18554000000000004  0.5504  0.78816  1.0000
  C   C51       1.0  0.1700399999999999  0.47549  0.83144  1.0000
  C   C52       1.0  0.21362000000000003  0.38795000000000013  0.8170199999999999  1.0000
  C   C53       1.0  0.27155000000000007  0.37441  0.7613799999999998  1.0000
  C   C54       1.0  0.10899000000000002  0.48745999999999995  0.8919999999999999  1.0000
  C   C55       1.0  0.75481  0.05109999999999999  0.43804  1.0000
  C   C56       1.0  0.83849  0.058490000000000014  0.43473999999999996  1.0000
  C   C57       1.0  0.8901599999999998  0.005690000000000015  0.47999  1.0000
  C   C58       1.0  0.8542300000000004  0.9449099999999996  0.52621  1.0000
  C   C59       1.0  0.7702700000000002  0.9412599999999995  0.52644  1.0000
  C   C60       1.0  0.9762200000000001  0.016450000000000013  0.47734999999999994  1.0000
  C   C61       1.0  0.8571600000000001  0.5593200000000002  0.9497899999999999  1.0000
  C   C62       1.0  0.77792  0.58608  0.91976  1.0000
  C   C63       1.0  0.7489000000000002  0.5185799999999999  0.9144899999999999  1.0000
  C   C64       1.0  0.6763299999999999  0.54235  0.88566  1.0000
  C   C65       1.0  0.6321900000000001  0.6345199999999998  0.86226  1.0000
  C   C66       1.0  0.6590399999999998  0.7031799999999998  0.8679  1.0000
  C   C67       1.0  0.7321899999999999  0.6783799999999999  0.8964499999999999  1.0000
  C   C68       1.0  0.5498399999999999  0.71437  0.78126  1.0000
  C   C69       1.0  0.46166999999999997  0.75742  0.7680199999999999  1.0000
  C   C70       1.0  0.44958999999999993  0.8144099999999997  0.7119  1.0000
  C   C71       1.0  0.5245  0.8299199999999998  0.6686  1.0000
  C   C72       1.0  0.6120600000000002  0.7863499999999998  0.68299  1.0000
  C   C73       1.0  0.6256100000000002  0.7284299999999998  0.73862  1.0000
  C   C74       1.0  0.5125600000000001  0.8909699999999998  0.6080299999999998  1.0000
  C   C75       1.0  0.9488799999999998  0.24519999999999995  0.06199  1.0000
  C   C76       1.0  0.9415  0.16153000000000003  0.06528999999999999  1.0000
  C   C77       1.0  0.9942900000000001  0.10983999999999997  0.02003  1.0000
  C   C78       1.0  0.05509000000000006  0.14576000000000006  0.9738199999999999  1.0000
  C   C79       1.0  0.05873999999999999  0.22971  0.97358  1.0000
  C   C80       1.0  0.98354  0.023779999999999992  0.02265  1.0000
  N   N1        1.0  0.2791  0.0063200000000000036  0.51676  1.0000
  N   N2        1.0  0.9936900000000004  0.7208899999999998  0.9832299999999999  1.0000
  N   N3        1.0  0.7208999999999999  0.9936700000000002  0.48325  1.0000
  N   N4        1.0  0.006310000000000013  0.27911  0.01678  1.0000
  O   O1        1.0  0.4742700000000001  0.89295  0.47139  1.0000
  O   O2        1.0  0.6230200000000001  0.8831299999999999  0.4512299999999999  1.0000
  O   O3        1.0  0.65494  0.55717  0.33663999999999994  1.0000
  O   O4        1.0  0.92085  0.4335999999999999  0.0943  1.0000
  O   O5        1.0  0.90881  0.5829999999999997  0.07452  1.0000
  O   O6        1.0  0.10710999999999997  0.5257  0.0286  1.0000
  O   O7        1.0  0.11689  0.37699  0.04877  1.0000
  O   O8        1.0  0.44282  0.3450899999999999  0.16337  1.0000
  O   O9        1.0  0.56638  0.07915000000000001  0.4056799999999999  1.0000
  O   O10       1.0  0.4169500000000001  0.09125000000000001  0.4254699999999999  1.0000
  O   O11       1.0  0.5257300000000001  0.10703999999999997  0.52861  1.0000
  O   O12       1.0  0.3769799999999999  0.11686999999999999  0.54878  1.0000
  O   O13       1.0  0.34506000000000014  0.4428199999999998  0.66336  1.0000
  O   O14       1.0  0.07915000000000001  0.5663999999999998  0.9057  1.0000
  O   O15       1.0  0.09119000000000005  0.41699  0.9254799999999999  1.0000
  O   O16       1.0  0.8928900000000003  0.47428999999999977  0.97141  1.0000
  O   O17       1.0  0.8831099999999998  0.623  0.95123  1.0000
  O   O18       1.0  0.5571800000000001  0.6549  0.8366399999999999  1.0000
  O   O19       1.0  0.43362  0.92084  0.59432  1.0000
  O   O20       1.0  0.5830500000000001  0.90874  0.57454  1.0000
