data_image0
_chemical_formula_structural       Cd12H48C96N40Cl4
_chemical_formula_sum              "Cd12 H48 C96 N40 Cl4"
_cell_length_a       19.33385
_cell_length_b       21.72274
_cell_length_c       21.72274
_cell_angle_alpha    90.0
_cell_angle_beta     90.0
_cell_angle_gamma    90.0

_space_group_name_H-M_alt    "P 1"
_space_group_IT_number       1

loop_
  _space_group_symop_operation_xyz
  'x, y, z'

loop_
  _atom_site_type_symbol
  _atom_site_label
  _atom_site_symmetry_multiplicity
  _atom_site_fract_x
  _atom_site_fract_y
  _atom_site_fract_z
  _atom_site_occupancy
  Cd  Cd1       1.0  0.00644  0.1019  0.8981  1.0000
  Cd  Cd2       1.0  0.00644  0.8981  0.1019  1.0000
  Cd  Cd3       1.0  0.8470300000000001  0.1714  0.8286000000000001  1.0000
  Cd  Cd4       1.0  0.8470300000000001  0.1714  0.1714  1.0000
  Cd  Cd5       1.0  0.00644  0.1019  0.1019  1.0000
  Cd  Cd6       1.0  0.00644  0.8981  0.8981  1.0000
  Cd  Cd7       1.0  0.50095  0.5  0.9304900000000002  1.0000
  Cd  Cd8       1.0  0.50095  0.5  0.06952  1.0000
  Cd  Cd9       1.0  0.50095  0.9305500000000001  0.5  1.0000
  Cd  Cd10      1.0  0.50095  0.06959  0.5  1.0000
  Cd  Cd11      1.0  0.8470300000000001  0.8286000000000001  0.8286000000000001  1.0000
  Cd  Cd12      1.0  0.8470300000000001  0.8286000000000001  0.1714  1.0000
  H   H1        1.0  0.76552  0.0  0.56216  1.0000
  H   H2        1.0  0.7780800000000002  0.09937  0.25151  1.0000
  H   H3        1.0  0.31307  0.09902  0.33346  1.0000
  H   H4        1.0  0.68867  0.90096  0.6671  1.0000
  H   H5        1.0  0.68867  0.09904  0.3329  1.0000
  H   H6        1.0  0.31307  0.66654  0.09902  1.0000
  H   H7        1.0  0.22110000000000005  0.74718  0.9011500000000002  1.0000
  H   H8        1.0  0.23693000000000006  0.0  0.56229  1.0000
  H   H9        1.0  0.68867  0.6671  0.09904  1.0000
  H   H10       1.0  0.7780800000000002  0.25151  0.09937  1.0000
  H   H11       1.0  0.43095000000000006  0.73517  0.0  1.0000
  H   H12       1.0  0.7780800000000002  0.90062  0.25151  1.0000
  H   H13       1.0  0.22110000000000005  0.09885  0.74718  1.0000
  H   H14       1.0  0.7780800000000002  0.90062  0.7484900000000001  1.0000
  H   H15       1.0  0.76552  0.0  0.43783  1.0000
  H   H16       1.0  0.68867  0.09904  0.6671  1.0000
  H   H17       1.0  0.31307  0.09902  0.66654  1.0000
  H   H18       1.0  0.76552  0.43783  0.0  1.0000
  H   H19       1.0  0.7780800000000002  0.25151  0.90062  1.0000
  H   H20       1.0  0.43095000000000006  0.0  0.26483  1.0000
  H   H21       1.0  0.31307  0.90098  0.66654  1.0000
  H   H22       1.0  0.31307  0.90098  0.33345  1.0000
  H   H23       1.0  0.43095000000000006  0.0  0.73517  1.0000
  H   H24       1.0  0.22110000000000005  0.74718  0.09885  1.0000
  H   H25       1.0  0.57076  0.0  0.73533  1.0000
  H   H26       1.0  0.68867  0.90096  0.3329  1.0000
  H   H27       1.0  0.31307  0.33346  0.90098  1.0000
  H   H28       1.0  0.22110000000000005  0.9011500000000002  0.74718  1.0000
  H   H29       1.0  0.22110000000000005  0.9011500000000002  0.25282  1.0000
  H   H30       1.0  0.68867  0.3329  0.90096  1.0000
  H   H31       1.0  0.22110000000000005  0.25282  0.09885  1.0000
  H   H32       1.0  0.57076  0.26466  0.0  1.0000
  H   H33       1.0  0.7780800000000002  0.09937  0.7484900000000001  1.0000
  H   H34       1.0  0.57076  0.0  0.26466  1.0000
  H   H35       1.0  0.7780800000000002  0.7484900000000001  0.09937  1.0000
  H   H36       1.0  0.22110000000000005  0.25282  0.9011500000000002  1.0000
  H   H37       1.0  0.43095000000000006  0.26483  0.0  1.0000
  H   H38       1.0  0.31307  0.33346  0.09902  1.0000
  H   H39       1.0  0.23693000000000006  0.4377  0.0  1.0000
  H   H40       1.0  0.68867  0.3329  0.09904  1.0000
  H   H41       1.0  0.23693000000000006  0.56229  0.0  1.0000
  H   H42       1.0  0.22110000000000005  0.09885  0.25282  1.0000
  H   H43       1.0  0.23693000000000006  0.0  0.4377  1.0000
  H   H44       1.0  0.68867  0.6671  0.90096  1.0000
  H   H45       1.0  0.76552  0.56216  0.0  1.0000
  H   H46       1.0  0.7780800000000002  0.7484900000000001  0.90062  1.0000
  H   H47       1.0  0.57076  0.73533  0.0  1.0000
  H   H48       1.0  0.31307  0.66654  0.90098  1.0000
  C   C1        1.0  0.72126  0.46842  0.0  1.0000
  C   C2        1.0  0.8383  0.8019000000000001  0.0  1.0000
  C   C3        1.0  0.4655  0.0  0.30410000000000004  1.0000
  C   C4        1.0  0.29315  0.31568  0.05569000000000001  1.0000
  C   C5        1.0  0.78437  0.0  0.24535  1.0000
  C   C6        1.0  0.16063  0.0  0.20153  1.0000
  C   C7        1.0  0.21558000000000002  0.0  0.2477  1.0000
  C   C8        1.0  0.24181  0.9441900000000001  0.27056  1.0000
  C   C9        1.0  0.55844  0.63247  0.0  1.0000
  C   C10       1.0  0.75849  0.05559000000000001  0.7309  1.0000
  C   C11       1.0  0.21558000000000002  0.75229  0.0  1.0000
  C   C12       1.0  0.78437  0.24535  0.0  1.0000
  C   C13       1.0  0.29315  0.9443  0.31568  1.0000
  C   C14       1.0  0.29315  0.68432  0.05569000000000001  1.0000
  C   C15       1.0  0.4655  0.30410000000000004  0.0  1.0000
  C   C16       1.0  0.62771  0.61271  0.0  1.0000
  C   C17       1.0  0.72126  0.0  0.46842  1.0000
  C   C18       1.0  0.75849  0.26909  0.9444  1.0000
  C   C19       1.0  0.75849  0.7309  0.9444  1.0000
  C   C20       1.0  0.28105  0.46844  0.0  1.0000
  C   C21       1.0  0.35234  0.55111  0.0  1.0000
  C   C22       1.0  0.6499500000000001  0.55111  0.0  1.0000
  C   C23       1.0  0.29315  0.31568  0.9443  1.0000
  C   C24       1.0  0.29315  0.05569000000000001  0.31568  1.0000
  C   C25       1.0  0.28105  0.53156  0.0  1.0000
  C   C26       1.0  0.4655  0.6959000000000001  0.0  1.0000
  C   C27       1.0  0.35234  0.99999  0.44889  1.0000
  C   C28       1.0  0.78437  0.75464  0.0  1.0000
  C   C29       1.0  0.6499500000000001  0.44889  0.0  1.0000
  C   C30       1.0  0.31935  0.0  0.33866  1.0000
  C   C31       1.0  0.21558000000000002  0.2477  0.0  1.0000
  C   C32       1.0  0.8383  0.0  0.8019000000000001  1.0000
  C   C33       1.0  0.75849  0.9444  0.26909  1.0000
  C   C34       1.0  0.70814  0.68498  0.9444100000000001  1.0000
  C   C35       1.0  0.37425  0.0  0.61281  1.0000
  C   C36       1.0  0.37425  0.61281  0.0  1.0000
  C   C37       1.0  0.24181  0.05581  0.72944  1.0000
  C   C38       1.0  0.24181  0.05581  0.27056  1.0000
  C   C39       1.0  0.68226  0.33847  0.0  1.0000
  C   C40       1.0  0.75849  0.7309  0.05559000000000001  1.0000
  C   C41       1.0  0.44356000000000007  0.99999  0.36753  1.0000
  C   C42       1.0  0.75849  0.26909  0.05559000000000001  1.0000
  C   C43       1.0  0.68226  0.66152  0.0  1.0000
  C   C44       1.0  0.62771  0.0  0.61271  1.0000
  C   C45       1.0  0.70814  0.9444100000000001  0.68498  1.0000
  C   C46       1.0  0.55844  0.99999  0.36753  1.0000
  C   C47       1.0  0.68226  0.0  0.33847  1.0000
  C   C48       1.0  0.21558000000000002  0.0  0.75229  1.0000
  C   C49       1.0  0.78437  0.0  0.75464  1.0000
  C   C50       1.0  0.53643  0.0  0.69592  1.0000
  C   C51       1.0  0.70814  0.31501  0.055580000000000004  1.0000
  C   C52       1.0  0.53643  0.0  0.30408  1.0000
  C   C53       1.0  0.44356000000000007  0.36753  0.0  1.0000
  C   C54       1.0  0.62771  0.0  0.3872900000000001  1.0000
  C   C55       1.0  0.29315  0.9443  0.68432  1.0000
  C   C56       1.0  0.29315  0.68432  0.9443  1.0000
  C   C57       1.0  0.75849  0.05559000000000001  0.26909  1.0000
  C   C58       1.0  0.6499500000000001  0.99999  0.44889  1.0000
  C   C59       1.0  0.16063  0.0  0.7984700000000001  1.0000
  C   C60       1.0  0.55844  0.99999  0.63247  1.0000
  C   C61       1.0  0.72126  0.0  0.53158  1.0000
  C   C62       1.0  0.24181  0.9441900000000001  0.72944  1.0000
  C   C63       1.0  0.70814  0.055580000000000004  0.68498  1.0000
  C   C64       1.0  0.53643  0.69592  0.0  1.0000
  C   C65       1.0  0.70814  0.055580000000000004  0.31501  1.0000
  C   C66       1.0  0.16063  0.20153  0.0  1.0000
  C   C67       1.0  0.24181  0.72944  0.05581  1.0000
  C   C68       1.0  0.44356000000000007  0.63246  0.0  1.0000
  C   C69       1.0  0.24181  0.27056  0.05581  1.0000
  C   C70       1.0  0.37425  0.0  0.38719  1.0000
  C   C71       1.0  0.37425  0.38719  0.0  1.0000
  C   C72       1.0  0.28105  0.0  0.53156  1.0000
  C   C73       1.0  0.28105  0.0  0.46844  1.0000
  C   C74       1.0  0.31935  0.0  0.66133  1.0000
  C   C75       1.0  0.4655  0.0  0.6959000000000001  1.0000
  C   C76       1.0  0.53643  0.30408  0.0  1.0000
  C   C77       1.0  0.55844  0.36753  0.0  1.0000
  C   C78       1.0  0.70814  0.68498  0.055580000000000004  1.0000
  C   C79       1.0  0.70814  0.9444100000000001  0.31501  1.0000
  C   C80       1.0  0.35234  0.99999  0.55111  1.0000
  C   C81       1.0  0.6499500000000001  0.99999  0.55111  1.0000
  C   C82       1.0  0.29315  0.05569000000000001  0.68432  1.0000
  C   C83       1.0  0.8383  0.19809  0.0  1.0000
  C   C84       1.0  0.31935  0.33866  0.0  1.0000
  C   C85       1.0  0.16063  0.7984700000000001  0.0  1.0000
  C   C86       1.0  0.35234  0.44889  0.0  1.0000
  C   C87       1.0  0.31935  0.66133  0.0  1.0000
  C   C88       1.0  0.24181  0.27056  0.9441900000000001  1.0000
  C   C89       1.0  0.24181  0.72944  0.9441900000000001  1.0000
  C   C90       1.0  0.68226  0.0  0.66152  1.0000
  C   C91       1.0  0.44356000000000007  0.99999  0.63246  1.0000
  C   C92       1.0  0.8383  0.0  0.19809  1.0000
  C   C93       1.0  0.75849  0.9444  0.7309  1.0000
  C   C94       1.0  0.62771  0.3872900000000001  0.0  1.0000
  C   C95       1.0  0.72126  0.53158  0.0  1.0000
  C   C96       1.0  0.70814  0.31501  0.9444100000000001  1.0000
  N   N1        1.0  0.5010100000000001  0.99998  0.40634  1.0000
  N   N2        1.0  0.8681300000000002  0.17413  0.9490300000000002  1.0000
  N   N3        1.0  0.08268  0.85973  0.03095  1.0000
  N   N4        1.0  0.13126000000000004  0.05155  0.17837  1.0000
  N   N5        1.0  0.13126000000000004  0.05155  0.82162  1.0000
  N   N6        1.0  0.13126000000000004  0.17837  0.05155  1.0000
  N   N7        1.0  0.08268  0.03095  0.85973  1.0000
  N   N8        1.0  0.13126000000000004  0.94845  0.17837  1.0000
  N   N9        1.0  0.91706  0.03049  0.13549  1.0000
  N   N10       1.0  0.8681300000000002  0.9490300000000002  0.82587  1.0000
  N   N11       1.0  0.08268  0.96904  0.14027000000000003  1.0000
  N   N12       1.0  0.13126000000000004  0.82162  0.05155  1.0000
  N   N13       1.0  0.5010100000000001  0.40634  0.0  1.0000
  N   N14       1.0  0.5010100000000001  0.59366  0.0  1.0000
  N   N15       1.0  0.5010100000000001  0.99998  0.59366  1.0000
  N   N16       1.0  0.13126000000000004  0.82162  0.94845  1.0000
  N   N17       1.0  0.13126000000000004  0.17837  0.94845  1.0000
  N   N18       1.0  0.91706  0.13549  0.03049  1.0000
  N   N19       1.0  0.91706  0.13549  0.96951  1.0000
  N   N20       1.0  0.08268  0.14027000000000003  0.96904  1.0000
  N   N21       1.0  0.91706  0.96951  0.8645000000000002  1.0000
  N   N22       1.0  0.08268  0.85973  0.96904  1.0000
  N   N23       1.0  0.8681300000000002  0.9490300000000002  0.17413  1.0000
  N   N24       1.0  0.91706  0.8645000000000002  0.03049  1.0000
  N   N25       1.0  0.8681300000000002  0.17413  0.05097  1.0000
  N   N26       1.0  0.8681300000000002  0.82587  0.05097  1.0000
  N   N27       1.0  0.13126000000000004  0.94845  0.82162  1.0000
  N   N28       1.0  0.8681300000000002  0.05097  0.17413  1.0000
  N   N29       1.0  0.08268  0.03095  0.14027000000000003  1.0000
  N   N30       1.0  0.39600000000000013  0.99998  0.5  1.0000
  N   N31       1.0  0.8681300000000002  0.82587  0.9490300000000002  1.0000
  N   N32       1.0  0.8681300000000002  0.05097  0.82587  1.0000
  N   N33       1.0  0.91706  0.96951  0.13549  1.0000
  N   N34       1.0  0.08268  0.14027000000000003  0.03095  1.0000
  N   N35       1.0  0.91706  0.8645000000000002  0.96951  1.0000
  N   N36       1.0  0.08268  0.96904  0.85973  1.0000
  N   N37       1.0  0.91706  0.03049  0.8645000000000002  1.0000
  N   N38       1.0  0.39600000000000013  0.5  0.0  1.0000
  N   N39       1.0  0.60636  0.5  0.0  1.0000
  N   N40       1.0  0.60636  0.99998  0.5  1.0000
  Cl  Cl1       1.0  0.9842  0.81777  0.18223  1.0000
  Cl  Cl2       1.0  0.9842  0.18223  0.81777  1.0000
  Cl  Cl3       1.0  0.9842  0.81777  0.81777  1.0000
  Cl  Cl4       1.0  0.9842  0.18223  0.18223  1.0000
