data_image0
_chemical_formula_structural       Cu6H66C96N6O36
_chemical_formula_sum              "Cu6 H66 C96 N6 O36"
_cell_length_a       14.3918
_cell_length_b       14.39415
_cell_length_c       14.39008
_cell_angle_alpha    96.04087000000001
_cell_angle_beta     96.04869
_cell_angle_gamma    96.03781999999998

_space_group_name_H-M_alt    "P 1"
_space_group_IT_number       1

loop_
  _space_group_symop_operation_xyz
  'x, y, z'

loop_
  _atom_site_type_symbol
  _atom_site_label
  _atom_site_symmetry_multiplicity
  _atom_site_fract_x
  _atom_site_fract_y
  _atom_site_fract_z
  _atom_site_occupancy
  Cu  Cu1       1.0  0.48044999999999993  0.07344  0.4713400000000001  1.0000
  Cu  Cu2       1.0  0.47147999999999995  0.48048  0.07355000000000002  1.0000
  Cu  Cu3       1.0  0.07351000000000003  0.47138  0.4804500000000001  1.0000
  Cu  Cu4       1.0  0.51956  0.92656  0.52864  1.0000
  Cu  Cu5       1.0  0.5286299999999999  0.5195  0.9265000000000002  1.0000
  Cu  Cu6       1.0  0.92655  0.52863  0.51952  1.0000
  H   H1        1.0  0.49311999999999984  0.24798999999999996  0.7483300000000002  1.0000
  H   H2        1.0  0.39264999999999994  0.19362  0.010750000000000001  1.0000
  H   H3        1.0  0.4119999999999999  0.96311  0.79817  1.0000
  H   H4        1.0  0.32557  0.71957  0.00396  1.0000
  H   H5        1.0  0.2895  0.68786  0.16538  1.0000
  H   H6        1.0  0.26238999999999996  0.8184499999999999  0.28134000000000003  1.0000
  H   H7        1.0  0.27863999999999994  0.9841999999999997  0.24286000000000005  1.0000
  H   H8        1.0  0.26353  0.07090999999999997  0.0475  1.0000
  H   H9        1.0  0.44639000000000006  0.07592  0.14213  1.0000
  H   H10       1.0  0.4657700000000001  0.85197  0.9651200000000002  1.0000
  H   H11       1.0  0.28849999999999987  0.8885599999999998  0.88576  1.0000
  H   H12       1.0  0.7484499999999997  0.49314  0.24796000000000007  1.0000
  H   H13       1.0  0.010720000000000006  0.39258  0.19360000000000002  1.0000
  H   H14       1.0  0.7982799999999998  0.41217  0.9629800000000002  1.0000
  H   H15       1.0  0.00397000000000001  0.3255599999999999  0.7193800000000002  1.0000
  H   H16       1.0  0.16533999999999993  0.2894999999999999  0.68778  1.0000
  H   H17       1.0  0.28119  0.26234  0.8184900000000003  1.0000
  H   H18       1.0  0.24254  0.27851000000000004  0.9842700000000002  1.0000
  H   H19       1.0  0.04731999999999999  0.26365  0.07092000000000002  1.0000
  H   H20       1.0  0.14240999999999995  0.44619999999999993  0.07569  1.0000
  H   H21       1.0  0.9650599999999998  0.46564000000000005  0.8516300000000002  1.0000
  H   H22       1.0  0.88575  0.28864  0.88855  1.0000
  H   H23       1.0  0.24798000000000006  0.7482200000000002  0.4930700000000001  1.0000
  H   H24       1.0  0.19354999999999994  0.01045  0.39249  1.0000
  H   H25       1.0  0.9630599999999998  0.7982  0.41241  1.0000
  H   H26       1.0  0.7193799999999998  0.0039000000000000024  0.32602  1.0000
  H   H27       1.0  0.6877399999999998  0.16532  0.29004  1.0000
  H   H28       1.0  0.8183599999999998  0.2811799999999999  0.26278000000000007  1.0000
  H   H29       1.0  0.9840499999999998  0.24248999999999996  0.2786800000000001  1.0000
  H   H30       1.0  0.07065  0.04716999999999998  0.26325  1.0000
  H   H31       1.0  0.07591  0.1413  0.44642  1.0000
  H   H32       1.0  0.85199  0.9652599999999998  0.4660100000000001  1.0000
  H   H33       1.0  0.8880799999999998  0.88546  0.28871  1.0000
  H   H34       1.0  0.50688  0.75201  0.25163  1.0000
  H   H35       1.0  0.60728  0.8063799999999998  0.9891800000000002  1.0000
  H   H36       1.0  0.5879599999999998  0.03688  0.2018  1.0000
  H   H37       1.0  0.6745099999999997  0.28041999999999995  0.9961000000000002  1.0000
  H   H38       1.0  0.71049  0.31214  0.83468  1.0000
  H   H39       1.0  0.7376600000000001  0.18159000000000003  0.7187100000000001  1.0000
  H   H40       1.0  0.7214299999999999  0.01583000000000003  0.7572000000000002  1.0000
  H   H41       1.0  0.7363299999999998  0.9290000000000003  0.9524800000000002  1.0000
  H   H42       1.0  0.5537199999999998  0.92422  0.85742  1.0000
  H   H43       1.0  0.53434  0.14815  0.034920000000000014  1.0000
  H   H44       1.0  0.7114599999999998  0.11123999999999999  0.11420000000000002  1.0000
  H   H45       1.0  0.2517299999999999  0.50683  0.75205  1.0000
  H   H46       1.0  0.9895499999999998  0.60762  0.80637  1.0000
  H   H47       1.0  0.20188999999999993  0.58799  0.03703  1.0000
  H   H48       1.0  0.9959799999999999  0.67444  0.28065000000000007  1.0000
  H   H49       1.0  0.8345599999999997  0.71046  0.3121800000000001  1.0000
  H   H50       1.0  0.7186699999999999  0.7373999999999998  0.18138000000000007  1.0000
  H   H51       1.0  0.7573299999999997  0.72118  0.01563  1.0000
  H   H52       1.0  0.9526999999999998  0.73664  0.9292100000000001  1.0000
  H   H53       1.0  0.8588899999999998  0.5534  0.9238600000000001  1.0000
  H   H54       1.0  0.03491  0.53419  0.148  1.0000
  H   H55       1.0  0.11437999999999998  0.7115299999999999  0.11181000000000003  1.0000
  H   H56       1.0  0.7519799999999998  0.25177  0.50688  1.0000
  H   H57       1.0  0.8065  0.9895800000000001  0.6074800000000002  1.0000
  H   H58       1.0  0.03692000000000002  0.20189999999999994  0.5875300000000002  1.0000
  H   H59       1.0  0.28069  0.99611  0.6739900000000002  1.0000
  H   H60       1.0  0.31219999999999987  0.83466  0.7100000000000001  1.0000
  H   H61       1.0  0.18153999999999998  0.71887  0.73733  1.0000
  H   H62       1.0  0.01584999999999999  0.7577299999999998  0.72138  1.0000
  H   H63       1.0  0.9293299999999999  0.95304  0.7366700000000003  1.0000
  H   H64       1.0  0.92438  0.85828  0.5537900000000001  1.0000
  H   H65       1.0  0.14831  0.03491  0.5341  1.0000
  H   H66       1.0  0.11191  0.11454000000000002  0.7113100000000002  1.0000
  C   C1        1.0  0.4720399999999999  0.06488000000000001  0.6674700000000001  1.0000
  C   C2        1.0  0.45245999999999986  0.10166  0.76416  1.0000
  C   C3        1.0  0.46596999999999994  0.19856  0.7936500000000001  1.0000
  C   C4        1.0  0.4457400000000001  0.22936999999999996  0.8840200000000001  1.0000
  C   C5        1.0  0.4086899999999999  0.16607  0.94196  1.0000
  C   C6        1.0  0.39523000000000014  0.06838000000000002  0.9131600000000002  1.0000
  C   C7        1.0  0.41979999999999995  0.03745000000000002  0.8233600000000002  1.0000
  C   C8        1.0  0.3451699999999999  0.90323  0.94478  1.0000
  C   C9        1.0  0.3172399999999999  0.86803  0.03365  1.0000
  C   C10       1.0  0.31208999999999987  0.77586  0.05548  1.0000
  C   C11       1.0  0.29242  0.75903  0.14572  1.0000
  C   C12       1.0  0.27807  0.83333  0.21179000000000003  1.0000
  C   C13       1.0  0.28517  0.92617  0.18992  1.0000
  C   C14       1.0  0.3053  0.9422599999999998  0.09984  1.0000
  C   C15       1.0  0.3266799999999999  0.03529999999999999  0.062410000000000014  1.0000
  C   C16       1.0  0.46630999999999995  0.33051  0.92335  1.0000
  C   C17       1.0  0.6675399999999999  0.47208  0.06483  1.0000
  C   C18       1.0  0.7642099999999997  0.4525099999999999  0.10158  1.0000
  C   C19       1.0  0.7936999999999999  0.46598  0.19849000000000006  1.0000
  C   C20       1.0  0.8840299999999998  0.4456999999999999  0.22938000000000003  1.0000
  C   C21       1.0  0.9419399999999999  0.40865  0.16605000000000006  1.0000
  C   C22       1.0  0.9131799999999998  0.3953  0.06833  1.0000
  C   C23       1.0  0.8233999999999998  0.4199  0.03735  1.0000
  C   C24       1.0  0.9447799999999997  0.34522  0.9031600000000002  1.0000
  C   C25       1.0  0.03353999999999997  0.31721  0.86789  1.0000
  C   C26       1.0  0.05541000000000003  0.31209  0.7757300000000003  1.0000
  C   C27       1.0  0.14563  0.2924  0.7589300000000002  1.0000
  C   C28       1.0  0.21164  0.27797  0.8332800000000002  1.0000
  C   C29       1.0  0.18972999999999995  0.28507999999999994  0.92611  1.0000
  C   C30       1.0  0.0997  0.30523  0.9421700000000002  1.0000
  C   C31       1.0  0.062339999999999986  0.32671  0.03524000000000001  1.0000
  C   C32       1.0  0.9233399999999999  0.46629  0.33054  1.0000
  C   C33       1.0  0.06488  0.6674599999999999  0.4721400000000001  1.0000
  C   C34       1.0  0.10164999999999999  0.76412  0.45261000000000007  1.0000
  C   C35       1.0  0.19853999999999994  0.79355  0.46598000000000006  1.0000
  C   C36       1.0  0.22935999999999995  0.88388  0.4457400000000001  1.0000
  C   C37       1.0  0.166  0.94171  0.40860000000000013  1.0000
  C   C38       1.0  0.06829999999999997  0.9129899999999997  0.39521  1.0000
  C   C39       1.0  0.037390000000000014  0.8233  0.4199900000000001  1.0000
  C   C40       1.0  0.9030399999999997  0.94459  0.3452600000000001  1.0000
  C   C41       1.0  0.8678499999999996  0.03342  0.31734  1.0000
  C   C42       1.0  0.7756899999999998  0.0553  0.31235  1.0000
  C   C43       1.0  0.7588799999999998  0.14558  0.29284000000000004  1.0000
  C   C44       1.0  0.8331899999999998  0.21162  0.27841000000000005  1.0000
  C   C45       1.0  0.9259799999999998  0.18961  0.28521  1.0000
  C   C46       1.0  0.9421  0.09955  0.30529  1.0000
  C   C47       1.0  0.03516  0.0621  0.32649  1.0000
  C   C48       1.0  0.3305099999999999  0.92322  0.46632  1.0000
  C   C49       1.0  0.52796  0.93511  0.33252  1.0000
  C   C50       1.0  0.54754  0.89834  0.23583000000000007  1.0000
  C   C51       1.0  0.53403  0.80145  0.20632000000000006  1.0000
  C   C52       1.0  0.55424  0.77061  0.11595000000000003  1.0000
  C   C53       1.0  0.59125  0.8339099999999998  0.05799  1.0000
  C   C54       1.0  0.6046899999999998  0.9315999999999999  0.08677  1.0000
  C   C55       1.0  0.5801799999999998  0.96254  0.17661000000000004  1.0000
  C   C56       1.0  0.65482  0.0967  0.05517  1.0000
  C   C57       1.0  0.6828099999999998  0.13196000000000002  0.9663900000000001  1.0000
  C   C58       1.0  0.68795  0.22414  0.9445800000000001  1.0000
  C   C59       1.0  0.7076199999999998  0.24098999999999998  0.8543500000000003  1.0000
  C   C60       1.0  0.7220199999999998  0.16671999999999995  0.78827  1.0000
  C   C61       1.0  0.7148999999999998  0.07388  0.81012  1.0000
  C   C62       1.0  0.6947599999999998  0.05776000000000002  0.9001800000000002  1.0000
  C   C63       1.0  0.6732599999999999  0.9646800000000001  0.9374900000000003  1.0000
  C   C64       1.0  0.53369  0.66947  0.07666000000000003  1.0000
  C   C65       1.0  0.33257  0.52792  0.9351900000000002  1.0000
  C   C66       1.0  0.23591000000000004  0.54752  0.8984200000000002  1.0000
  C   C67       1.0  0.20644999999999994  0.53403  0.8015  1.0000
  C   C68       1.0  0.11612999999999998  0.55433  0.7706400000000002  1.0000
  C   C69       1.0  0.05827999999999998  0.5914999999999999  0.83397  1.0000
  C   C70       1.0  0.08703000000000002  0.60493  0.9317000000000002  1.0000
  C   C71       1.0  0.17676  0.5802199999999998  0.9626600000000002  1.0000
  C   C72       1.0  0.055360000000000006  0.65488  0.09695  1.0000
  C   C73       1.0  0.9664599999999998  0.68275  0.13208  1.0000
  C   C74       1.0  0.9445399999999998  0.68791  0.22426000000000004  1.0000
  C   C75       1.0  0.85426  0.70749  0.24100000000000005  1.0000
  C   C76       1.0  0.7882399999999999  0.72177  0.16658  1.0000
  C   C77       1.0  0.8102099999999998  0.71472  0.07376  1.0000
  C   C78       1.0  0.9003099999999998  0.69464  0.05776000000000001  1.0000
  C   C79       1.0  0.9378299999999998  0.67344  0.9647400000000003  1.0000
  C   C80       1.0  0.07675999999999998  0.53371  0.6694800000000002  1.0000
  C   C81       1.0  0.9351099999999998  0.3326  0.52784  1.0000
  C   C82       1.0  0.8983299999999997  0.23593999999999998  0.54736  1.0000
  C   C83       1.0  0.8014299999999998  0.20648  0.5340000000000001  1.0000
  C   C84       1.0  0.77065  0.11614999999999999  0.5542700000000002  1.0000
  C   C85       1.0  0.83403  0.058320000000000004  0.5913700000000002  1.0000
  C   C86       1.0  0.9317299999999998  0.08708  0.60474  1.0000
  C   C87       1.0  0.96259  0.17676999999999995  0.5799500000000001  1.0000
  C   C88       1.0  0.09699  0.05549000000000001  0.6547  1.0000
  C   C89       1.0  0.13218999999999997  0.96668  0.6826200000000001  1.0000
  C   C90       1.0  0.22434  0.9447399999999998  0.68762  1.0000
  C   C91       1.0  0.24107999999999993  0.85445  0.7071800000000001  1.0000
  C   C92       1.0  0.16677000000000003  0.78846  0.7216800000000002  1.0000
  C   C93       1.0  0.07398999999999997  0.81054  0.71485  1.0000
  C   C94       1.0  0.05793999999999997  0.9005799999999998  0.6947  1.0000
  C   C95       1.0  0.9648599999999998  0.93798  0.6734600000000001  1.0000
  C   C96       1.0  0.6695  0.07679999999999997  0.5337  1.0000
  N   N1        1.0  0.36449  0.0057500000000000025  0.97331  1.0000
  N   N2        1.0  0.97333  0.36459999999999987  0.00567  1.0000
  N   N3        1.0  0.005610000000000002  0.97302  0.36432000000000003  1.0000
  N   N4        1.0  0.6353599999999998  0.99421  0.02656  1.0000
  N   N5        1.0  0.026960000000000022  0.63577  0.9943600000000002  1.0000
  N   N6        1.0  0.9944199999999997  0.027020000000000013  0.6355600000000002  1.0000
  O   O1        1.0  0.49501999999999996  0.9810500000000001  0.6564400000000002  1.0000
  O   O2        1.0  0.50093  0.38809  0.87048  1.0000
  O   O3        1.0  0.46277  0.11951  0.60323  1.0000
  O   O4        1.0  0.44910999999999995  0.35172  0.00823  1.0000
  O   O5        1.0  0.42179  0.86094  0.91086  1.0000
  O   O6        1.0  0.38757999999999987  0.10214999999999999  0.12614  1.0000
  O   O7        1.0  0.65646  0.49501  0.9809700000000002  1.0000
  O   O8        1.0  0.8704899999999998  0.5009300000000001  0.3881100000000001  1.0000
  O   O9        1.0  0.6033799999999998  0.46278  0.11953  1.0000
  O   O10       1.0  0.008249999999999995  0.4490899999999999  0.35169  1.0000
  O   O11       1.0  0.9108299999999998  0.42180000000000006  0.8608600000000002  1.0000
  O   O12       1.0  0.12611999999999995  0.38757  0.10210000000000002  1.0000
  O   O13       1.0  0.9810299999999997  0.65641  0.4950400000000001  1.0000
  O   O14       1.0  0.38811999999999985  0.8704099999999999  0.50097  1.0000
  O   O15       1.0  0.11951999999999995  0.6032499999999997  0.4627900000000001  1.0000
  O   O16       1.0  0.35165999999999986  0.008110000000000011  0.4490800000000001  1.0000
  O   O17       1.0  0.8609299999999996  0.9109399999999997  0.4221000000000001  1.0000
  O   O18       1.0  0.10202999999999997  0.12584  0.3874200000000001  1.0000
  O   O19       1.0  0.5049899999999998  0.018940000000000005  0.3435500000000001  1.0000
  O   O20       1.0  0.4991099999999999  0.6119  0.12952  1.0000
  O   O21       1.0  0.5372299999999998  0.88048  0.39675  1.0000
  O   O22       1.0  0.5509199999999997  0.64828  0.99176  1.0000
  O   O23       1.0  0.5782899999999997  0.13908  0.08915000000000002  1.0000
  O   O24       1.0  0.6124299999999998  0.8978899999999999  0.87362  1.0000
  O   O25       1.0  0.34361999999999987  0.50497  0.019030000000000005  1.0000
  O   O26       1.0  0.12958  0.49906  0.6118700000000002  1.0000
  O   O27       1.0  0.3967699999999999  0.53721  0.8805200000000002  1.0000
  O   O28       1.0  0.99186  0.55091  0.6483200000000001  1.0000
  O   O29       1.0  0.08918999999999998  0.57815  0.13910000000000003  1.0000
  O   O30       1.0  0.8741799999999997  0.61247  0.8978400000000002  1.0000
  O   O31       1.0  0.018970000000000004  0.34362  0.50495  1.0000
  O   O32       1.0  0.61188  0.12959  0.49902000000000013  1.0000
  O   O33       1.0  0.8804999999999998  0.39682  0.53721  1.0000
  O   O34       1.0  0.64834  0.9919099999999996  0.55093  1.0000
  O   O35       1.0  0.13915000000000002  0.08921000000000003  0.5779200000000002  1.0000
  O   O36       1.0  0.8980199999999998  0.87414  0.6125700000000002  1.0000
