data_image0
_chemical_formula_structural       Co4H64C80N16
_chemical_formula_sum              "Co4 H64 C80 N16"
_cell_length_a       14.11882
_cell_length_b       14.25722
_cell_length_c       14.25616
_cell_angle_alpha    95.17715
_cell_angle_beta     117.44417
_cell_angle_gamma    117.45334999999999

_symmetry_space_group_name_H-M    'P 1'
_symmetry_Int_Tables_number       1

loop_
  _symmetry_equiv_pos_as_xyz
  'x,y,z'

loop_
  _atom_site_type_symbol
  _atom_site_label
  _atom_site_symmetry_multiplicity
  _atom_site_fract_x
  _atom_site_fract_y
  _atom_site_fract_z
  _atom_site_occupancy
  Co  Co1       1.0  0.2361100000000001  0.86762  0.1183  1.0000
  Co  Co2       1.0  0.7492800000000001  0.61706  0.38235  1.0000
  Co  Co3       1.0  0.73508  0.11777999999999997  0.86751  1.0000
  Co  Co4       1.0  0.24948  0.36708  0.63246  1.0000
  H   H1        1.0  0.09261000000000005  0.95086  0.16654  1.0000
  H   H2        1.0  0.125  0.13979  0.21707  1.0000
  H   H3        1.0  0.28031  0.30245  0.19634999999999997  1.0000
  H   H4        1.0  0.3691699999999999  0.07673999999999997  0.09292999999999997  1.0000
  H   H5        1.0  0.40914  0.0727  0.35959  1.0000
  H   H6        1.0  0.3756900000000001  0.09311999999999997  0.51509  1.0000
  H   H7        1.0  0.21787  0.9178999999999999  0.52166  1.0000
  H   H8        1.0  0.13647  0.7205  0.2135  1.0000
  H   H9        1.0  0.7874700000000002  0.85883  0.45058999999999994  1.0000
  H   H10       1.0  0.92419  0.014470000000000002  0.64217  1.0000
  H   H11       1.0  0.10587999999999996  0.02165999999999998  0.8081199999999998  1.0000
  H   H12       1.0  0.9944699999999999  0.7156199999999998  0.57695  1.0000
  H   H13       1.0  0.7135100000000001  0.6654999999999998  0.5721  1.0000
  H   H14       1.0  0.5754600000000002  0.71734  0.5906  1.0000
  H   H15       1.0  0.39233000000000007  0.6992499999999999  0.41495  1.0000
  H   H16       1.0  0.5123  0.59118  0.22277  1.0000
  H   H17       1.0  0.7121700000000002  0.54944  0.14108  1.0000
  H   H18       1.0  0.5759800000000002  0.35826  0.98543  1.0000
  H   H19       1.0  0.39418  0.1915199999999999  0.97784  1.0000
  H   H20       1.0  0.50402  0.42245  0.28316  1.0000
  H   H21       1.0  0.7856899999999999  0.42726999999999987  0.33423  1.0000
  H   H22       1.0  0.9242900000000001  0.40909  0.28273  1.0000
  H   H23       1.0  0.10701000000000002  0.58465  0.30056  1.0000
  H   H24       1.0  0.98704  0.7766999999999998  0.4089199999999999  1.0000
  H   H25       1.0  0.09176000000000002  0.64053  0.92601  1.0000
  H   H26       1.0  0.12389999999999991  0.48427  0.9068199999999998  1.0000
  H   H27       1.0  0.28066  0.47758999999999996  0.08295  1.0000
  H   H28       1.0  0.36887  0.79142  0.27725  1.0000
  H   H29       1.0  0.40867000000000003  0.8358899999999998  0.0503  1.0000
  H   H30       1.0  0.3761399999999999  0.78359  0.8613199999999998  1.0000
  H   H31       1.0  0.21905  0.80132  0.6970799999999999  1.0000
  H   H32       1.0  0.13686999999999985  0.9153199999999999  0.92363  1.0000
  H   H33       1.0  0.90873  0.05034000000000004  0.8363099999999999  1.0000
  H   H34       1.0  0.87621  0.8614999999999998  0.7836399999999998  1.0000
  H   H35       1.0  0.7182899999999999  0.6965799999999998  0.8006799999999998  1.0000
  H   H36       1.0  0.63689  0.92323  0.9156  1.0000
  H   H37       1.0  0.59195  0.92583  0.64083  1.0000
  H   H38       1.0  0.6238000000000001  0.90674  0.48419  1.0000
  H   H39       1.0  0.78027  0.08272999999999996  0.47755  1.0000
  H   H40       1.0  0.8689700000000001  0.27707  0.79169  1.0000
  H   H41       1.0  0.21283  0.14067  0.54761  1.0000
  H   H42       1.0  0.07419000000000009  0.9840399999999999  0.35677  1.0000
  H   H43       1.0  0.89144  0.9766799999999998  0.19138999999999998  1.0000
  H   H44       1.0  0.011809999999999935  0.2885599999999999  0.42153999999999997  1.0000
  H   H45       1.0  0.2867799999999999  0.33680999999999994  0.42861  1.0000
  H   H46       1.0  0.42286000000000007  0.28248  0.40898  1.0000
  H   H47       1.0  0.60422  0.29765  0.58319  1.0000
  H   H48       1.0  0.49482999999999994  0.41734999999999983  0.7793299999999999  1.0000
  H   H49       1.0  0.28663  0.45226  0.85919  1.0000
  H   H50       1.0  0.4258199999999999  0.64347  0.01584  1.0000
  H   H51       1.0  0.6085300000000002  0.8083  0.02291  1.0000
  H   H52       1.0  0.48692000000000024  0.57792  0.71053  1.0000
  H   H53       1.0  0.21261  0.57078  0.66296  1.0000
  H   H54       1.0  0.0771999999999999  0.59084  0.7177399999999998  1.0000
  H   H55       1.0  0.8951600000000002  0.41633999999999993  0.70218  1.0000
  H   H56       1.0  0.004449999999999963  0.22008  0.58274  1.0000
  H   H57       1.0  0.9089300000000002  0.35924  0.07311  1.0000
  H   H58       1.0  0.8757900000000004  0.51511  0.09328  1.0000
  H   H59       1.0  0.71852  0.52181  0.9182  1.0000
  H   H60       1.0  0.6362100000000002  0.21301999999999996  0.7208699999999999  1.0000
  H   H61       1.0  0.5923100000000001  0.16583  0.95101  1.0000
  H   H62       1.0  0.62471  0.21671  0.13983  1.0000
  H   H63       1.0  0.78097  0.19704  0.30309  1.0000
  H   H64       1.0  0.8692399999999999  0.09264999999999997  0.07731  1.0000
  C   C1        1.0  0.16169999999999998  0.02342999999999998  0.16118999999999997  1.0000
  C   C2        1.0  0.17983000000000002  0.12944999999999998  0.18793999999999997  1.0000
  C   C3        1.0  0.26714  0.21999  0.1779  1.0000
  C   C4        1.0  0.33806  0.20254  0.14155  1.0000
  C   C5        1.0  0.31416  0.09358  0.11697  1.0000
  C   C6        1.0  0.3396000000000001  0.9986899999999999  0.36309  1.0000
  C   C7        1.0  0.3202900000000001  0.008619999999999975  0.44992  1.0000
  C   C8        1.0  0.2318  0.9117  0.45296  1.0000
  C   C9        1.0  0.16158999999999996  0.8033999999999999  0.36551  1.0000
  C   C10       1.0  0.18866  0.80128  0.28266  1.0000
  C   C11       1.0  0.8657700000000003  0.8632400000000001  0.52408  1.0000
  C   C12       1.0  0.94324  0.94978  0.63178  1.0000
  C   C13       1.0  0.043289999999999974  0.95325  0.7241499999999998  1.0000
  C   C14       1.0  0.06410999999999996  0.8666199999999998  0.70602  1.0000
  C   C15       1.0  0.9830600000000003  0.78423  0.59457  1.0000
  C   C16       1.0  0.63536  0.66053  0.49791999999999986  1.0000
  C   C17       1.0  0.55658  0.6885499999999998  0.50675  1.0000
  C   C18       1.0  0.45614999999999994  0.6798099999999998  0.4097  1.0000
  C   C19       1.0  0.43689000000000006  0.64287  0.30273  1.0000
  C   C20       1.0  0.5203400000000002  0.61624  0.30179  1.0000
  C   C21       1.0  0.63343  0.47588  0.13621  1.0000
  C   C22       1.0  0.55656  0.3682  0.04989  1.0000
  C   C23       1.0  0.45675000000000004  0.2754  0.04644  1.0000
  C   C24       1.0  0.4359500000000001  0.29334  0.13302  1.0000
  C   C25       1.0  0.51595  0.40484  0.21492  1.0000
  C   C26       1.0  0.8635900000000002  0.50138  0.33882  1.0000
  C   C27       1.0  0.94284  0.49281  0.31125  1.0000
  C   C28       1.0  0.043379999999999974  0.58995  0.32029  1.0000
  C   C29       1.0  0.06267999999999994  0.69696  0.35739  1.0000
  C   C30       1.0  0.97884  0.69763  0.38369999999999993  1.0000
  C   C31       1.0  0.16101  0.63722  0.0005  1.0000
  C   C32       1.0  0.17913  0.54949  0.99122  1.0000
  C   C33       1.0  0.26695  0.5465  0.08847  1.0000
  C   C34       1.0  0.33795  0.63495  0.19617  1.0000
  C   C35       1.0  0.31384  0.71978  0.19756  1.0000
  C   C36       1.0  0.3396600000000002  0.8407499999999999  0.97726  1.0000
  C   C37       1.0  0.32078  0.81236  0.87115  1.0000
  C   C38       1.0  0.23264999999999994  0.8209499999999998  0.77965  1.0000
  C   C39       1.0  0.16231999999999985  0.8586399999999997  0.7967399999999999  1.0000
  C   C40       1.0  0.18905999999999992  0.88705  0.9066699999999999  1.0000
  C   C41       1.0  0.8398400000000003  0.97725  0.8412899999999999  1.0000
  C   C42       1.0  0.82065  0.8710199999999998  0.81238  1.0000
  C   C43       1.0  0.73202  0.77922  0.82046  1.0000
  C   C44       1.0  0.6620600000000001  0.7964999999999999  0.85841  1.0000
  C   C45       1.0  0.68923  0.9065099999999998  0.88744  1.0000
  C   C46       1.0  0.6614100000000002  0.00026000000000001835  0.63769  1.0000
  C   C47       1.0  0.6791900000000002  0.99101  0.5497  1.0000
  C   C48       1.0  0.7667  0.08829999999999995  0.54655  1.0000
  C   C49       1.0  0.8378600000000002  0.19605  0.63505  1.0000
  C   C50       1.0  0.8140200000000001  0.19736999999999993  0.7200999999999999  1.0000
  C   C51       1.0  0.13457  0.13660999999999998  0.47436999999999996  1.0000
  C   C52       1.0  0.05577  0.0492  0.36697  1.0000
  C   C53       1.0  0.9554900000000002  0.04575999999999998  0.2751  1.0000
  C   C54       1.0  0.9363600000000002  0.13338999999999998  0.29349  1.0000
  C   C55       1.0  0.019730000000000015  0.21758999999999998  0.40408  1.0000
  C   C56       1.0  0.36496  0.34143  0.50237  1.0000
  C   C57       1.0  0.44232000000000005  0.31171  0.49299  1.0000
  C   C58       1.0  0.5423000000000002  0.31931  0.58953  1.0000
  C   C59       1.0  0.5633099999999999  0.35769999999999996  0.6972299999999999  1.0000
  C   C60       1.0  0.4827400000000001  0.38812  0.69895  1.0000
  C   C61       1.0  0.36475000000000013  0.52542  0.8630399999999999  1.0000
  C   C62       1.0  0.44407000000000013  0.63287  0.95064  1.0000
  C   C63       1.0  0.54452  0.7244399999999999  0.95402  1.0000
  C   C64       1.0  0.5634800000000002  0.70589  0.8663  1.0000
  C   C65       1.0  0.4793099999999999  0.5953799999999999  0.7816799999999999  1.0000
  C   C66       1.0  0.13429000000000002  0.49698  0.6582  1.0000
  C   C67       1.0  0.05735999999999999  0.50667  0.6882899999999998  1.0000
  C   C68       1.0  0.95729  0.41011999999999993  0.6808  1.0000
  C   C69       1.0  0.9362499999999999  0.30245999999999995  0.6424399999999999  1.0000
  C   C70       1.0  0.016499999999999966  0.30047  0.61174  1.0000
  C   C71       1.0  0.83992  0.3631099999999998  0.9990299999999999  1.0000
  C   C72       1.0  0.8204000000000002  0.44985  0.00882  1.0000
  C   C73       1.0  0.73189  0.45275  0.91191  1.0000
  C   C74       1.0  0.6616300000000003  0.3653  0.80351  1.0000
  C   C75       1.0  0.6887500000000002  0.28249  0.80154  1.0000
  C   C76       1.0  0.66182  0.16105  0.02381  1.0000
  C   C77       1.0  0.67988  0.18787999999999996  0.12973  1.0000
  C   C78       1.0  0.7673200000000001  0.17808999999999997  0.22046  1.0000
  C   C79       1.0  0.8380400000000001  0.14159  0.20279999999999998  1.0000
  C   C80       1.0  0.81421  0.11691999999999997  0.09390999999999998  1.0000
  N   N1        1.0  0.22809  0.004329999999999996  0.1247  1.0000
  N   N2        1.0  0.27536  0.89463  0.2795  1.0000
  N   N3        1.0  0.88598  0.78019  0.50413  1.0000
  N   N4        1.0  0.61728  0.62302  0.39523  1.0000
  N   N5        1.0  0.6126300000000002  0.49571  0.21877999999999995  1.0000
  N   N6        1.0  0.8815000000000002  0.60402  0.3762  1.0000
  N   N7        1.0  0.22750999999999993  0.72281  0.10377999999999998  1.0000
  N   N8        1.0  0.27517  0.8799699999999999  0.9964199999999999  1.0000
  N   N9        1.0  0.7757900000000001  0.99659  0.88095  1.0000
  N   N10       1.0  0.7279800000000001  0.10353999999999997  0.7233399999999999  1.0000
  N   N11       1.0  0.11672  0.22124999999999997  0.49422  1.0000
  N   N12       1.0  0.3857000000000001  0.38153  0.60596  1.0000
  N   N13       1.0  0.38213  0.5054999999999998  0.7780699999999999  1.0000
  N   N14       1.0  0.1133400000000001  0.39338  0.6178  1.0000
  N   N15       1.0  0.77538  0.27939  0.8949199999999999  1.0000
  N   N16       1.0  0.72803  0.12444  0.00455  1.0000
