data_image0
_chemical_formula_structural       Cd8H44C64N40O16
_chemical_formula_sum              "Cd8 H44 C64 N40 O16"
_cell_length_a       12.4308
_cell_length_b       14.57938
_cell_length_c       15.24568
_cell_angle_alpha    96.62134000000002
_cell_angle_beta     90.01923999999998
_cell_angle_gamma    90.32612

_space_group_name_H-M_alt    "P 1"
_space_group_IT_number       1

loop_
  _space_group_symop_operation_xyz
  'x, y, z'

loop_
  _atom_site_type_symbol
  _atom_site_label
  _atom_site_symmetry_multiplicity
  _atom_site_fract_x
  _atom_site_fract_y
  _atom_site_fract_z
  _atom_site_occupancy
  Cd  Cd1       1.0  0.18617  0.3643  0.2653500000000001  1.0000
  Cd  Cd2       1.0  0.16739  0.62325  0.26305  1.0000
  Cd  Cd3       1.0  0.6847299999999997  0.63544  0.23277000000000006  1.0000
  Cd  Cd4       1.0  0.66626  0.3766  0.23583000000000007  1.0000
  Cd  Cd5       1.0  0.8138299999999998  0.6357  0.7346500000000002  1.0000
  Cd  Cd6       1.0  0.8326099999999997  0.37675  0.73695  1.0000
  Cd  Cd7       1.0  0.31526999999999994  0.36456  0.76723  1.0000
  Cd  Cd8       1.0  0.33374  0.62339  0.76417  1.0000
  H   H1        1.0  0.026049999999999993  0.9782899999999999  0.27568  1.0000
  H   H2        1.0  0.0102  0.81004  0.2831900000000001  1.0000
  H   H3        1.0  0.33905  0.77277  0.24388000000000007  1.0000
  H   H4        1.0  0.36742  0.93988  0.23134000000000005  1.0000
  H   H5        1.0  0.4387299999999999  0.41974  0.58548  1.0000
  H   H6        1.0  0.5718099999999999  0.41468999999999995  0.7087800000000002  1.0000
  H   H7        1.0  0.80521  0.29982999999999993  0.53675  1.0000
  H   H8        1.0  0.68451  0.30097  0.4071900000000001  1.0000
  H   H9        1.0  0.9605899999999999  0.41533  0.4383800000000001  1.0000
  H   H10       1.0  0.8119599999999998  0.51989  0.51106  1.0000
  H   H11       1.0  0.8704099999999998  0.61314  0.4635200000000001  1.0000
  H   H12       1.0  0.526  0.020800000000000006  0.22196000000000005  1.0000
  H   H13       1.0  0.5102  0.18939  0.21639  1.0000
  H   H14       1.0  0.83865  0.22955  0.2583100000000001  1.0000
  H   H15       1.0  0.8669799999999998  0.06229  0.26901  1.0000
  H   H16       1.0  0.93985  0.57801  0.91372  1.0000
  H   H17       1.0  0.07361  0.58313  0.7909900000000001  1.0000
  H   H18       1.0  0.30566  0.70333  0.9632900000000002  1.0000
  H   H19       1.0  0.18366  0.70258  0.09234000000000003  1.0000
  H   H20       1.0  0.46756999999999993  0.5841  0.06496000000000003  1.0000
  H   H21       1.0  0.31196  0.48429000000000005  0.9903900000000002  1.0000
  H   H22       1.0  0.36430999999999997  0.39038  0.03976000000000001  1.0000
  H   H23       1.0  0.97395  0.02171000000000003  0.7243200000000002  1.0000
  H   H24       1.0  0.9897899999999998  0.18996  0.71681  1.0000
  H   H25       1.0  0.6609499999999998  0.22723  0.75612  1.0000
  H   H26       1.0  0.63258  0.060120000000000035  0.7686600000000002  1.0000
  H   H27       1.0  0.56126  0.58026  0.4145200000000001  1.0000
  H   H28       1.0  0.42818999999999996  0.58531  0.29122  1.0000
  H   H29       1.0  0.19477999999999998  0.70017  0.4632500000000001  1.0000
  H   H30       1.0  0.3154799999999999  0.6990299999999998  0.59281  1.0000
  H   H31       1.0  0.0394  0.58467  0.5616200000000002  1.0000
  H   H32       1.0  0.18804  0.48011  0.4889400000000001  1.0000
  H   H33       1.0  0.12958  0.38686  0.5364800000000002  1.0000
  H   H34       1.0  0.47399  0.9792000000000001  0.7780400000000002  1.0000
  H   H35       1.0  0.48979999999999996  0.81061  0.7836100000000003  1.0000
  H   H36       1.0  0.16135  0.7704499999999997  0.7416900000000002  1.0000
  H   H37       1.0  0.13301  0.9377100000000002  0.7309900000000003  1.0000
  H   H38       1.0  0.06015  0.42199  0.08628000000000002  1.0000
  H   H39       1.0  0.9263799999999998  0.41687  0.20901000000000006  1.0000
  H   H40       1.0  0.69434  0.29667  0.03672  1.0000
  H   H41       1.0  0.81633  0.29742  0.9076600000000002  1.0000
  H   H42       1.0  0.53242  0.4159  0.9350500000000003  1.0000
  H   H43       1.0  0.68803  0.51571  0.00961  1.0000
  H   H44       1.0  0.6356799999999999  0.6096199999999998  0.9602500000000003  1.0000
  C   C1        1.0  0.21640999999999994  0.07121999999999999  0.24278000000000005  1.0000
  C   C2        1.0  0.19883  0.9737  0.25169  1.0000
  C   C3        1.0  0.09763  0.93571  0.2676600000000001  1.0000
  C   C4        1.0  0.08834  0.84111  0.27228  1.0000
  C   C5        1.0  0.27171  0.82058  0.24973000000000004  1.0000
  C   C6        1.0  0.28740999999999994  0.9136  0.24318000000000006  1.0000
  C   C7        1.0  0.48112  0.37505999999999995  0.41172  1.0000
  C   C8        1.0  0.55243  0.36408  0.4856200000000001  1.0000
  C   C9        1.0  0.5195  0.3930999999999999  0.57242  1.0000
  C   C10       1.0  0.5925699999999999  0.38945  0.6409300000000002  1.0000
  C   C11       1.0  0.7235199999999999  0.32560000000000006  0.5447500000000002  1.0000
  C   C12       1.0  0.65586  0.32731  0.4724900000000001  1.0000
  C   C13       1.0  0.040919999999999984  0.52668  0.3835900000000001  1.0000
  C   C14       1.0  0.9712  0.49008  0.4543300000000001  1.0000
  C   C15       1.0  0.8604499999999999  0.53785  0.45490000000000014  1.0000
  C   C16       1.0  0.7894099999999997  0.51111  0.3741100000000001  1.0000
  C   C17       1.0  0.7161799999999998  0.92941  0.2547700000000001  1.0000
  C   C18       1.0  0.69855  0.026980000000000007  0.24714000000000005  1.0000
  C   C19       1.0  0.5974499999999999  0.06418  0.23104  1.0000
  C   C20       1.0  0.5881599999999999  0.15883  0.22754000000000005  1.0000
  C   C21       1.0  0.7713699999999999  0.18104  0.25155  1.0000
  C   C22       1.0  0.7870699999999998  0.08799  0.25703  1.0000
  C   C23       1.0  0.9812399999999998  0.6257  0.08765000000000003  1.0000
  C   C24       1.0  0.05265000000000001  0.63662  0.01373  1.0000
  C   C25       1.0  0.02037  0.60607  0.9269400000000002  1.0000
  C   C26       1.0  0.09394  0.60958  0.8587400000000002  1.0000
  C   C27       1.0  0.22407  0.67641  0.9551300000000003  1.0000
  C   C28       1.0  0.15581999999999996  0.6749499999999998  0.02704000000000001  1.0000
  C   C29       1.0  0.54136  0.46697  0.11418000000000003  1.0000
  C   C30       1.0  0.47303  0.50935  0.04631000000000001  1.0000
  C   C31       1.0  0.35942  0.46592  0.04685000000000002  1.0000
  C   C32       1.0  0.29142  0.49806  0.1276  1.0000
  C   C33       1.0  0.78359  0.92878  0.7572200000000001  1.0000
  C   C34       1.0  0.8011699999999998  0.0263  0.74831  1.0000
  C   C35       1.0  0.9023599999999999  0.0643  0.73234  1.0000
  C   C36       1.0  0.91165  0.15889000000000003  0.7277200000000003  1.0000
  C   C37       1.0  0.72829  0.17942  0.7502700000000002  1.0000
  C   C38       1.0  0.71259  0.08640000000000003  0.7568200000000003  1.0000
  C   C39       1.0  0.51887  0.62494  0.58828  1.0000
  C   C40       1.0  0.4475599999999999  0.6359199999999998  0.51439  1.0000
  C   C41       1.0  0.4805  0.6069  0.42758  1.0000
  C   C42       1.0  0.40742999999999996  0.61055  0.35907  1.0000
  C   C43       1.0  0.27648  0.6743999999999998  0.4552500000000001  1.0000
  C   C44       1.0  0.34413  0.67269  0.52751  1.0000
  C   C45       1.0  0.9590799999999998  0.47331999999999996  0.61641  1.0000
  C   C46       1.0  0.028789999999999993  0.50992  0.54567  1.0000
  C   C47       1.0  0.13955  0.46214999999999995  0.5451  1.0000
  C   C48       1.0  0.21058999999999997  0.48889  0.6258900000000001  1.0000
  C   C49       1.0  0.28381  0.07059  0.74524  1.0000
  C   C50       1.0  0.30144  0.9730199999999999  0.7528600000000002  1.0000
  C   C51       1.0  0.40254  0.9358200000000001  0.7689700000000003  1.0000
  C   C52       1.0  0.41184  0.8411700000000001  0.7724600000000003  1.0000
  C   C53       1.0  0.22861999999999993  0.81896  0.7484500000000002  1.0000
  C   C54       1.0  0.21292  0.91201  0.74298  1.0000
  C   C55       1.0  0.01876  0.3743  0.9123500000000001  1.0000
  C   C56       1.0  0.9473499999999999  0.36338  0.9862700000000002  1.0000
  C   C57       1.0  0.97963  0.39392999999999995  0.07306  1.0000
  C   C58       1.0  0.90606  0.39042  0.14127  1.0000
  C   C59       1.0  0.7759299999999999  0.32359  0.04487  1.0000
  C   C60       1.0  0.84418  0.32505  0.9729600000000003  1.0000
  C   C61       1.0  0.45863  0.53303  0.8858200000000003  1.0000
  C   C62       1.0  0.52697  0.49065000000000003  0.9536900000000003  1.0000
  C   C63       1.0  0.6405699999999999  0.53408  0.95315  1.0000
  C   C64       1.0  0.70857  0.5019500000000001  0.8724000000000002  1.0000
  N   N1        1.0  0.20014  0.21425999999999998  0.2401  1.0000
  N   N2        1.0  0.30255  0.19267999999999996  0.21657000000000007  1.0000
  N   N3        1.0  0.31379  0.10280000000000002  0.21786000000000003  1.0000
  N   N4        1.0  0.14368  0.13964  0.25727  1.0000
  N   N5        1.0  0.17381  0.78381  0.26313000000000003  1.0000
  N   N6        1.0  0.34284999999999993  0.39555  0.3361600000000001  1.0000
  N   N7        1.0  0.42576999999999987  0.3962999999999999  0.28134  1.0000
  N   N8        1.0  0.51416  0.3835  0.32786  1.0000
  N   N9        1.0  0.37366999999999995  0.38243999999999995  0.4181000000000001  1.0000
  N   N10       1.0  0.6939799999999998  0.35817  0.62761  1.0000
  N   N11       1.0  0.6998599999999998  0.78596  0.25557  1.0000
  N   N12       1.0  0.8023599999999999  0.80823  0.27932  1.0000
  N   N13       1.0  0.81366  0.89836  0.27915  1.0000
  N   N14       1.0  0.64339  0.8604000000000002  0.23951  1.0000
  N   N15       1.0  0.6735299999999999  0.21696  0.23795  1.0000
  N   N16       1.0  0.84272  0.6054699999999998  0.16337  1.0000
  N   N17       1.0  0.9256199999999998  0.6058  0.21835  1.0000
  N   N18       1.0  0.0142  0.61842  0.1718  1.0000
  N   N19       1.0  0.87375  0.6176599999999998  0.08118000000000003  1.0000
  N   N20       1.0  0.19522999999999993  0.64222  0.8724000000000002  1.0000
  N   N21       1.0  0.7998499999999997  0.78574  0.7599000000000002  1.0000
  N   N22       1.0  0.69745  0.80732  0.78343  1.0000
  N   N23       1.0  0.6862  0.8971999999999999  0.7821400000000002  1.0000
  N   N24       1.0  0.85632  0.86036  0.74273  1.0000
  N   N25       1.0  0.8261799999999998  0.21619  0.73687  1.0000
  N   N26       1.0  0.6571499999999999  0.60445  0.6638400000000002  1.0000
  N   N27       1.0  0.57423  0.6037  0.7186600000000002  1.0000
  N   N28       1.0  0.4858299999999999  0.6165  0.67214  1.0000
  N   N29       1.0  0.6263299999999999  0.61756  0.5819000000000002  1.0000
  N   N30       1.0  0.30602  0.64183  0.37239  1.0000
  N   N31       1.0  0.30013  0.21404  0.74444  1.0000
  N   N32       1.0  0.19764  0.19177  0.7206800000000002  1.0000
  N   N33       1.0  0.18634  0.10164  0.72086  1.0000
  N   N34       1.0  0.3566099999999999  0.13959999999999997  0.7604900000000002  1.0000
  N   N35       1.0  0.32647  0.78304  0.7620600000000002  1.0000
  N   N36       1.0  0.15728  0.39453000000000005  0.8366300000000002  1.0000
  N   N37       1.0  0.07438  0.3942  0.7816500000000002  1.0000
  N   N38       1.0  0.98579  0.38158  0.8282000000000003  1.0000
  N   N39       1.0  0.12624  0.38234  0.91882  1.0000
  N   N40       1.0  0.80476  0.35778  0.12761000000000006  1.0000
  O   O1        1.0  0.0736  0.47215000000000007  0.31589000000000006  1.0000
  O   O2        1.0  0.06264  0.61172  0.39118000000000014  1.0000
  O   O3        1.0  0.79894  0.43024  0.33342  1.0000
  O   O4        1.0  0.7198399999999999  0.5703399999999997  0.3558100000000001  1.0000
  O   O5        1.0  0.58197  0.51845  0.18178  1.0000
  O   O6        1.0  0.55522  0.38113  0.10577000000000003  1.0000
  O   O7        1.0  0.30622  0.57971  0.1652  1.0000
  O   O8        1.0  0.21728999999999996  0.44392  0.14981000000000005  1.0000
  O   O9        1.0  0.92639  0.52785  0.6841100000000002  1.0000
  O   O10       1.0  0.93735  0.38829  0.60882  1.0000
  O   O11       1.0  0.20105  0.5697599999999999  0.66658  1.0000
  O   O12       1.0  0.28014999999999995  0.42966  0.64419  1.0000
  O   O13       1.0  0.41803  0.48155000000000003  0.81822  1.0000
  O   O14       1.0  0.44477  0.61887  0.89423  1.0000
  O   O15       1.0  0.69378  0.42029  0.8348000000000002  1.0000
  O   O16       1.0  0.7827  0.55608  0.8502000000000002  1.0000
