data_image0
_chemical_formula_structural       Zn8H48C108O26
_chemical_formula_sum              "Zn8 H48 C108 O26"
_cell_length_a       24.50335
_cell_length_b       24.50332
_cell_length_c       24.50329
_cell_angle_alpha    59.82937
_cell_angle_beta     59.85425999999999
_cell_angle_gamma    59.854299999999995

_space_group_name_H-M_alt    "P 1"
_space_group_IT_number       1

loop_
  _space_group_symop_operation_xyz
  'x, y, z'

loop_
  _atom_site_type_symbol
  _atom_site_label
  _atom_site_symmetry_multiplicity
  _atom_site_fract_x
  _atom_site_fract_y
  _atom_site_fract_z
  _atom_site_occupancy
  Zn  Zn1       1.0  0.7826299999999999  0.78272  0.78273  1.0000
  Zn  Zn2       1.0  0.7828899999999998  0.78285  0.65161  1.0000
  Zn  Zn3       1.0  0.6516299999999999  0.7829000000000002  0.7829  1.0000
  Zn  Zn4       1.0  0.7828900000000001  0.6516000000000001  0.7828499999999999  1.0000
  Zn  Zn5       1.0  0.21711000000000003  0.21715  0.34839  1.0000
  Zn  Zn6       1.0  0.21736  0.21727  0.21726999999999996  1.0000
  Zn  Zn7       1.0  0.34837000000000007  0.2171  0.21709999999999993  1.0000
  Zn  Zn8       1.0  0.21711  0.34839000000000003  0.21714999999999995  1.0000
  H   H1        1.0  0.9020799999999994  0.90208  0.51043  1.0000
  H   H2        1.0  0.9644399999999997  0.9644400000000003  0.3967699999999999  1.0000
  H   H3        1.0  0.90175  0.90175  0.68596  1.0000
  H   H4        1.0  0.9640499999999996  0.96405  0.67494  1.0000
  H   H5        1.0  0.6858699999999999  0.5102600000000002  0.9019299999999998  1.0000
  H   H6        1.0  0.67495  0.39654000000000006  0.9642499999999999  1.0000
  H   H7        1.0  0.51027  0.6859299999999999  0.9019  1.0000
  H   H8        1.0  0.39656  0.6750100000000001  0.9642099999999998  1.0000
  H   H9        1.0  0.6858799999999995  0.9019200000000002  0.51026  1.0000
  H   H10       1.0  0.67495  0.96424  0.39655  1.0000
  H   H11       1.0  0.5102699999999998  0.9018900000000002  0.6859299999999999  1.0000
  H   H12       1.0  0.39655999999999997  0.96421  0.67501  1.0000
  H   H13       1.0  0.90176  0.6859600000000001  0.9017599999999998  1.0000
  H   H14       1.0  0.9640499999999993  0.6749400000000001  0.9640499999999999  1.0000
  H   H15       1.0  0.90208  0.5104300000000003  0.9020799999999998  1.0000
  H   H16       1.0  0.96444  0.39676  0.96444  1.0000
  H   H17       1.0  0.90195  0.6859100000000002  0.51019  1.0000
  H   H18       1.0  0.9642499999999999  0.6750200000000002  0.3964699999999999  1.0000
  H   H19       1.0  0.9019499999999998  0.5101800000000001  0.6859099999999999  1.0000
  H   H20       1.0  0.96425  0.39646  0.67502  1.0000
  H   H21       1.0  0.5104  0.9021000000000003  0.9020999999999998  1.0000
  H   H22       1.0  0.39674999999999994  0.9644400000000001  0.96445  1.0000
  H   H23       1.0  0.6858999999999996  0.9018100000000004  0.9018099999999999  1.0000
  H   H24       1.0  0.6748799999999998  0.96409  0.9641  1.0000
  H   H25       1.0  0.09824000000000004  0.09824000000000001  0.3140299999999999  1.0000
  H   H26       1.0  0.03595  0.03595000000000002  0.32505999999999996  1.0000
  H   H27       1.0  0.09792000000000006  0.09792000000000003  0.4895699999999999  1.0000
  H   H28       1.0  0.03556000000000001  0.035560000000000064  0.6032299999999999  1.0000
  H   H29       1.0  0.31412  0.48973  0.09807  1.0000
  H   H30       1.0  0.32503999999999983  0.6034500000000002  0.03575  1.0000
  H   H31       1.0  0.4897299999999999  0.31407000000000007  0.0981  1.0000
  H   H32       1.0  0.60343  0.32499  0.03579  1.0000
  H   H33       1.0  0.3141  0.09819000000000001  0.09819  1.0000
  H   H34       1.0  0.32511  0.035900000000000015  0.0359  1.0000
  H   H35       1.0  0.48959999999999987  0.09790000000000001  0.0979  1.0000
  H   H36       1.0  0.60325  0.03555  0.03555  1.0000
  H   H37       1.0  0.09804999999999998  0.31409  0.48981  1.0000
  H   H38       1.0  0.03575000000000001  0.32497  0.6035299999999999  1.0000
  H   H39       1.0  0.09804999999999998  0.4898100000000001  0.31409  1.0000
  H   H40       1.0  0.03575000000000001  0.60353  0.32497  1.0000
  H   H41       1.0  0.09823999999999998  0.31403  0.09823999999999998  1.0000
  H   H42       1.0  0.035949999999999996  0.32506  0.03595  1.0000
  H   H43       1.0  0.09791999999999998  0.48956000000000005  0.09792  1.0000
  H   H44       1.0  0.035560000000000015  0.60323  0.035559999999999994  1.0000
  H   H45       1.0  0.4897300000000001  0.09810000000000009  0.31407  1.0000
  H   H46       1.0  0.6034300000000001  0.03579  0.32499  1.0000
  H   H47       1.0  0.31412000000000007  0.09807000000000005  0.4897399999999999  1.0000
  H   H48       1.0  0.32504  0.03574999999999997  0.60345  1.0000
  C   C1        1.0  0.9182699999999998  0.9182700000000001  0.53219  1.0000
  C   C2        1.0  0.9588200000000001  0.9588200000000001  0.49069  1.0000
  C   C3        1.0  0.9804199999999998  0.98042  0.41894999999999993  1.0000
  C   C4        1.0  0.9180799999999999  0.9180800000000002  0.6316499999999999  1.0000
  C   C5        1.0  0.9586300000000002  0.9586300000000001  0.5919999999999999  1.0000
  C   C6        1.0  0.9800799999999997  0.98008  0.62064  1.0000
  C   C7        1.0  0.63156  0.5320800000000001  0.91818  1.0000
  C   C8        1.0  0.59194  0.49059000000000014  0.95873  1.0000
  C   C9        1.0  0.6206399999999999  0.4188200000000001  0.98026  1.0000
  C   C10       1.0  0.5320799999999999  0.6316000000000002  0.91816  1.0000
  C   C11       1.0  0.49059  0.5919800000000002  0.95871  1.0000
  C   C12       1.0  0.41883999999999993  0.62068  0.98023  1.0000
  C   C13       1.0  0.6315599999999998  0.91817  0.53208  1.0000
  C   C14       1.0  0.59195  0.95873  0.49058999999999997  1.0000
  C   C15       1.0  0.62064  0.98026  0.41883  1.0000
  C   C16       1.0  0.5320800000000001  0.9181500000000001  0.6316  1.0000
  C   C17       1.0  0.4905899999999999  0.9587100000000002  0.59198  1.0000
  C   C18       1.0  0.41884999999999994  0.9802300000000002  0.62068  1.0000
  C   C19       1.0  0.91808  0.6316399999999999  0.9180799999999999  1.0000
  C   C20       1.0  0.9586300000000005  0.5920000000000001  0.9586299999999999  1.0000
  C   C21       1.0  0.9800799999999998  0.6206300000000001  0.98008  1.0000
  C   C22       1.0  0.9182699999999999  0.53219  0.9182699999999999  1.0000
  C   C23       1.0  0.9588199999999996  0.49068000000000017  0.9588199999999999  1.0000
  C   C24       1.0  0.98042  0.4189500000000001  0.9804199999999997  1.0000
  C   C25       1.0  0.9181899999999998  0.6315700000000001  0.5320399999999998  1.0000
  C   C26       1.0  0.9587299999999999  0.59197  0.4905599999999999  1.0000
  C   C27       1.0  0.9802499999999997  0.6206900000000002  0.41878999999999994  1.0000
  C   C28       1.0  0.9181899999999996  0.53203  0.63158  1.0000
  C   C29       1.0  0.9587299999999997  0.49056  0.59197  1.0000
  C   C30       1.0  0.9802499999999998  0.41879000000000016  0.6206999999999999  1.0000
  C   C31       1.0  0.5321699999999999  0.9182900000000003  0.9182899999999999  1.0000
  C   C32       1.0  0.4906800000000001  0.9588200000000001  0.9588199999999999  1.0000
  C   C33       1.0  0.41896000000000005  0.9804100000000001  0.98041  1.0000
  C   C34       1.0  0.6315999999999997  0.9181100000000001  0.91811  1.0000
  C   C35       1.0  0.5919699999999999  0.9586500000000006  0.9586499999999999  1.0000
  C   C36       1.0  0.62059  0.9801000000000001  0.9800999999999997  1.0000
  C   C37       1.0  0.08191000000000002  0.08191000000000004  0.3683499999999999  1.0000
  C   C38       1.0  0.04136000000000002  0.04136000000000003  0.4079999999999999  1.0000
  C   C39       1.0  0.019919999999999972  0.01992000000000005  0.37936999999999993  1.0000
  C   C40       1.0  0.08172000000000006  0.08172000000000004  0.4678099999999999  1.0000
  C   C41       1.0  0.04117999999999998  0.04118  0.50931  1.0000
  C   C42       1.0  0.019579999999999986  0.019580000000000007  0.58105  1.0000
  C   C43       1.0  0.36844  0.46792  0.08183  1.0000
  C   C44       1.0  0.40805  0.50941  0.04127  1.0000
  C   C45       1.0  0.37935  0.58117  0.01974  1.0000
  C   C46       1.0  0.46792  0.3684  0.08184  1.0000
  C   C47       1.0  0.5094  0.40802000000000005  0.04129  1.0000
  C   C48       1.0  0.58115  0.37931  0.01977  1.0000
  C   C49       1.0  0.3684  0.08188  0.08188  1.0000
  C   C50       1.0  0.40802999999999995  0.04134  0.04135  1.0000
  C   C51       1.0  0.3794  0.01989  0.019889999999999998  1.0000
  C   C52       1.0  0.46782999999999997  0.08171  0.08171  1.0000
  C   C53       1.0  0.5093199999999999  0.04118  0.04118  1.0000
  C   C54       1.0  0.5810399999999999  0.01959  0.01959  1.0000
  C   C55       1.0  0.08180999999999995  0.36842000000000014  0.4679599999999999  1.0000
  C   C56       1.0  0.04126999999999998  0.40802000000000005  0.50944  1.0000
  C   C57       1.0  0.019739999999999966  0.3793  0.58121  1.0000
  C   C58       1.0  0.08180999999999995  0.46796  0.36842  1.0000
  C   C59       1.0  0.04127000000000009  0.50943  0.40801999999999994  1.0000
  C   C60       1.0  0.019739999999999966  0.5812100000000001  0.3793  1.0000
  C   C61       1.0  0.08190999999999994  0.3683500000000001  0.08192  1.0000
  C   C62       1.0  0.041369999999999976  0.40800000000000003  0.04137  1.0000
  C   C63       1.0  0.019919999999999976  0.37936000000000003  0.01992  1.0000
  C   C64       1.0  0.08171999999999999  0.46781  0.08173  1.0000
  C   C65       1.0  0.041179999999999946  0.5093100000000002  0.04118  1.0000
  C   C66       1.0  0.019579999999999938  0.5810500000000001  0.01958  1.0000
  C   C67       1.0  0.4679199999999999  0.08184000000000002  0.3684  1.0000
  C   C68       1.0  0.5093999999999999  0.04129000000000002  0.40801999999999994  1.0000
  C   C69       1.0  0.5811499999999998  0.01977  0.37931  1.0000
  C   C70       1.0  0.36844  0.08182000000000002  0.46791999999999995  1.0000
  C   C71       1.0  0.4080499999999998  0.04127000000000006  0.5094099999999999  1.0000
  C   C72       1.0  0.3793500000000001  0.019730000000000032  0.5811699999999999  1.0000
  C   C73       1.0  0.8980300000000001  0.89802  0.60207  1.0000
  C   C74       1.0  0.8548299999999998  0.85484  0.64524  1.0000
  C   C75       1.0  0.9794399999999999  0.97944  0.5206  1.0000
  C   C76       1.0  0.6019700000000001  0.60199  0.8980099999999999  1.0000
  C   C77       1.0  0.6451699999999998  0.6451800000000001  0.8548399999999999  1.0000
  C   C78       1.0  0.5205499999999996  0.5205600000000002  0.97944  1.0000
  C   C79       1.0  0.6019700000000001  0.8980100000000002  0.6019899999999998  1.0000
  C   C80       1.0  0.6451699999999998  0.85484  0.6451899999999999  1.0000
  C   C81       1.0  0.5205599999999999  0.9794300000000001  0.52057  1.0000
  C   C82       1.0  0.8980300000000001  0.6020700000000002  0.8980299999999999  1.0000
  C   C83       1.0  0.8548300000000001  0.64524  0.8548399999999999  1.0000
  C   C84       1.0  0.9794399999999999  0.5206  0.97944  1.0000
  C   C85       1.0  0.8980299999999998  0.60195  0.60196  1.0000
  C   C86       1.0  0.8548699999999999  0.6451400000000002  0.64515  1.0000
  C   C87       1.0  0.9794399999999999  0.5205500000000001  0.5205499999999998  1.0000
  C   C88       1.0  0.6020399999999996  0.8980500000000002  0.8980499999999999  1.0000
  C   C89       1.0  0.6451999999999999  0.85487  0.85487  1.0000
  C   C90       1.0  0.5205899999999996  0.9794400000000005  0.97944  1.0000
  C   C91       1.0  0.10197000000000002  0.10197  0.39793  1.0000
  C   C92       1.0  0.14516000000000007  0.14516000000000004  0.35474999999999995  1.0000
  C   C93       1.0  0.020560000000000033  0.020560000000000016  0.47939999999999994  1.0000
  C   C94       1.0  0.3980299999999999  0.39801  0.10199  1.0000
  C   C95       1.0  0.35482999999999987  0.35481000000000007  0.14515999999999998  1.0000
  C   C96       1.0  0.47944  0.4794300000000001  0.02056  1.0000
  C   C97       1.0  0.3979599999999999  0.10194000000000002  0.10194  1.0000
  C   C98       1.0  0.3547999999999999  0.14512000000000005  0.14513  1.0000
  C   C99       1.0  0.47941  0.020549999999999995  0.02055  1.0000
  C   C100      1.0  0.10196000000000005  0.39804  0.3980399999999999  1.0000
  C   C101      1.0  0.14512999999999995  0.35485  0.35485  1.0000
  C   C102      1.0  0.020559999999999988  0.47944  0.47944  1.0000
  C   C103      1.0  0.1019699999999999  0.3979200000000003  0.10196999999999999  1.0000
  C   C104      1.0  0.14515999999999998  0.3547500000000001  0.14515999999999998  1.0000
  C   C105      1.0  0.020559999999999988  0.4794  0.02056  1.0000
  C   C106      1.0  0.3980299999999999  0.10199000000000004  0.3980099999999999  1.0000
  C   C107      1.0  0.3548299999999999  0.14516000000000004  0.35481  1.0000
  C   C108      1.0  0.4794399999999999  0.020560000000000016  0.47942999999999997  1.0000
  O   O1        1.0  0.75002  0.7500100000000002  0.75002  1.0000
  O   O2        1.0  0.24997999999999998  0.24997000000000005  0.24996999999999997  1.0000
  O   O3        1.0  0.8380299999999997  0.8380500000000002  0.70863  1.0000
  O   O4        1.0  0.8381899999999999  0.8381799999999999  0.61533  1.0000
  O   O5        1.0  0.6152299999999998  0.7085899999999999  0.83813  1.0000
  O   O6        1.0  0.7085699999999997  0.6152299999999999  0.83813  1.0000
  O   O7        1.0  0.6152299999999998  0.8381300000000005  0.7085999999999998  1.0000
  O   O8        1.0  0.70856  0.8381300000000002  0.6152299999999998  1.0000
  O   O9        1.0  0.8381899999999998  0.6153300000000004  0.8381899999999998  1.0000
  O   O10       1.0  0.8380299999999998  0.7086200000000001  0.8380499999999999  1.0000
  O   O11       1.0  0.83816  0.6151799999999998  0.70857  1.0000
  O   O12       1.0  0.83815  0.70856  0.6151899999999999  1.0000
  O   O13       1.0  0.7085699999999997  0.83808  0.8380799999999999  1.0000
  O   O14       1.0  0.6152899999999999  0.8382100000000001  0.8382199999999999  1.0000
  O   O15       1.0  0.16180999999999998  0.16181  0.38466  1.0000
  O   O16       1.0  0.16197  0.16194  0.29137  1.0000
  O   O17       1.0  0.38476999999999995  0.29140000000000005  0.16186  1.0000
  O   O18       1.0  0.29143  0.38476000000000005  0.16187  1.0000
  O   O19       1.0  0.3846999999999998  0.16178000000000006  0.16178  1.0000
  O   O20       1.0  0.29142999999999997  0.16191000000000003  0.16190999999999994  1.0000
  O   O21       1.0  0.16183999999999998  0.38481  0.29142999999999997  1.0000
  O   O22       1.0  0.1618399999999999  0.29143000000000013  0.38481  1.0000
  O   O23       1.0  0.16181  0.38466  0.16180999999999998  1.0000
  O   O24       1.0  0.1619699999999999  0.29137  0.16194  1.0000
  O   O25       1.0  0.29143  0.16187000000000004  0.38475999999999994  1.0000
  O   O26       1.0  0.38477  0.16186  0.2914  1.0000
