data_image0
_chemical_formula_structural       Ca4H80C120O16
_chemical_formula_sum              "Ca4 H80 C120 O16"
_cell_length_a       8.81127
_cell_length_b       10.368980000000002
_cell_length_c       33.02236
_cell_angle_alpha    90.03808
_cell_angle_beta     90.05498999999999
_cell_angle_gamma    90.10132

_space_group_name_H-M_alt    "P 1"
_space_group_IT_number       1

loop_
  _space_group_symop_operation_xyz
  'x, y, z'

loop_
  _atom_site_type_symbol
  _atom_site_label
  _atom_site_symmetry_multiplicity
  _atom_site_fract_x
  _atom_site_fract_y
  _atom_site_fract_z
  _atom_site_occupancy
  Ca  Ca1       1.0  0.45710999999999996  0.89839  0.24938999999999997  1.0000
  Ca  Ca2       1.0  0.04864999999999999  0.09928  0.7494  1.0000
  Ca  Ca3       1.0  0.5500699999999997  0.40024  0.25062999999999996  1.0000
  Ca  Ca4       1.0  0.9561499999999999  0.60186  0.75074  1.0000
  H   H1        1.0  0.46687  0.41608  0.14377  1.0000
  H   H2        1.0  0.31473  0.3773  0.0811  1.0000
  H   H3        1.0  0.18439  0.7774300000000001  0.07982  1.0000
  H   H4        1.0  0.3409399999999999  0.81635  0.14129  1.0000
  H   H5        1.0  0.93831  0.64803  0.98471  1.0000
  H   H6        1.0  0.66882  0.70155  0.99674  1.0000
  H   H7        1.0  0.5543  0.67014  0.065  1.0000
  H   H8        1.0  0.7121  0.58116  0.12094  1.0000
  H   H9        1.0  0.9815199999999998  0.52695  0.10897  1.0000
  H   H10       1.0  0.12176  0.49512999999999996  0.9792399999999999  1.0000
  H   H11       1.0  0.43813  0.50403  0.0212  1.0000
  H   H12       1.0  0.6231999999999999  0.35143  0.01578  1.0000
  H   H13       1.0  0.8930199999999998  0.29988  0.00354  1.0000
  H   H14       1.0  0.00679  0.33249  0.93526  1.0000
  H   H15       1.0  0.84833  0.42107  0.87951  1.0000
  H   H16       1.0  0.578  0.47376  0.89169  1.0000
  H   H17       1.0  0.37648  0.22062  0.92073  1.0000
  H   H18       1.0  0.22618  0.18281  0.85796  1.0000
  H   H19       1.0  0.10212  0.58333  0.85496  1.0000
  H   H20       1.0  0.24789  0.62144  0.91884  1.0000
  H   H21       1.0  0.03909  0.58391  0.64423  1.0000
  H   H22       1.0  0.18830999999999995  0.62293  0.58108  1.0000
  H   H23       1.0  0.31619  0.22216999999999998  0.57883  1.0000
  H   H24       1.0  0.16354  0.18349  0.64092  1.0000
  H   H25       1.0  0.56443  0.35216  0.48418  1.0000
  H   H26       1.0  0.83345  0.29808  0.49665  1.0000
  H   H27       1.0  0.94722  0.3291  0.56504  1.0000
  H   H28       1.0  0.7891599999999999  0.4186  0.62079  1.0000
  H   H29       1.0  0.51995  0.47346999999999995  0.60845  1.0000
  H   H30       1.0  0.37832999999999994  0.50465  0.47872  1.0000
  H   H31       1.0  0.06322999999999998  0.4959700000000001  0.5212499999999999  1.0000
  H   H32       1.0  0.87569  0.64734  0.51589  1.0000
  H   H33       1.0  0.6063099999999998  0.70033  0.50353  1.0000
  H   H34       1.0  0.4923  0.6689  0.43519  1.0000
  H   H35       1.0  0.64988  0.57895  0.3795  1.0000
  H   H36       1.0  0.91978  0.52506  0.39172  1.0000
  H   H37       1.0  0.12215999999999999  0.77831  0.42094  1.0000
  H   H38       1.0  0.27359  0.81694  0.3584099999999999  1.0000
  H   H39       1.0  0.39736  0.41643  0.35499  1.0000
  H   H40       1.0  0.24966000000000002  0.37759  0.41849  1.0000
  H   H41       1.0  0.53664  0.91618  0.35559  1.0000
  H   H42       1.0  0.68653  0.8775499999999999  0.41846  1.0000
  H   H43       1.0  0.8157999999999997  0.27845  0.4205999999999999  1.0000
  H   H44       1.0  0.66202  0.31703  0.35872  1.0000
  H   H45       1.0  0.06329000000000001  0.14756  0.51561  1.0000
  H   H46       1.0  0.33282  0.20141  0.50344  1.0000
  H   H47       1.0  0.44677  0.17049  0.43514  1.0000
  H   H48       1.0  0.28883  0.08075  0.37927  1.0000
  H   H49       1.0  0.01911  0.02626  0.39131  1.0000
  H   H50       1.0  0.87747  0.9946500000000001  0.52082  1.0000
  H   H51       1.0  0.56178  0.0042099999999999985  0.47848  1.0000
  H   H52       1.0  0.3742  0.8518500000000001  0.48385  1.0000
  H   H53       1.0  0.10462  0.79931  0.49637  1.0000
  H   H54       1.0  0.9919299999999999  0.8308000000000001  0.56478  1.0000
  H   H55       1.0  0.15065  0.9210300000000001  0.62034  1.0000
  H   H56       1.0  0.42078  0.97467  0.6079599999999997  1.0000
  H   H57       1.0  0.6224  0.72035  0.57866  1.0000
  H   H58       1.0  0.7734299999999998  0.68254  0.6413  1.0000
  H   H59       1.0  0.89803  0.08322  0.64462  1.0000
  H   H60       1.0  0.75147  0.12157000000000001  0.5809299999999998  1.0000
  H   H61       1.0  0.9653799999999999  0.08403  0.85578  1.0000
  H   H62       1.0  0.81391  0.12286  0.91848  1.0000
  H   H63       1.0  0.68557  0.7219  0.92041  1.0000
  H   H64       1.0  0.84106  0.68298  0.85887  1.0000
  H   H65       1.0  0.43808  0.85224  0.01532  1.0000
  H   H66       1.0  0.16834  0.79857  0.00337  1.0000
  H   H67       1.0  0.05321  0.82927  0.93513  1.0000
  H   H68       1.0  0.21046  0.9186599999999999  0.8791599999999999  1.0000
  H   H69       1.0  0.48023  0.97321  0.89101  1.0000
  H   H70       1.0  0.6222  0.00474  0.02062  1.0000
  H   H71       1.0  0.9380299999999999  0.99665  0.97861  1.0000
  H   H72       1.0  0.12409  0.14833  0.9841099999999999  1.0000
  H   H73       1.0  0.3941699999999999  0.20002000000000003  0.9963800000000002  1.0000
  H   H74       1.0  0.5081899999999999  0.16784  0.06468  1.0000
  H   H75       1.0  0.34987  0.07905  0.12041  1.0000
  H   H76       1.0  0.07925  0.02614  0.10823  1.0000
  H   H77       1.0  0.8778  0.27892  0.07912  1.0000
  H   H78       1.0  0.7287  0.3165  0.14204  1.0000
  H   H79       1.0  0.60332  0.9157400000000001  0.14495  1.0000
  H   H80       1.0  0.74897  0.8779999999999999  0.08121  1.0000
  C   C1        1.0  0.50111  0.64069  0.18488  1.0000
  C   C2        1.0  0.41289  0.6184  0.14667  1.0000
  C   C3        1.0  0.40594  0.49487  0.12933  1.0000
  C   C4        1.0  0.32126  0.47339999999999993  0.09428  1.0000
  C   C5        1.0  0.23987  0.57454  0.07621  1.0000
  C   C6        1.0  0.24709  0.69838  0.09363  1.0000
  C   C7        1.0  0.33384  0.72029  0.12818  1.0000
  C   C8        1.0  0.14239999999999994  0.5524  0.04022  1.0000
  C   C9        1.0  0.9799699999999999  0.58213  0.04585  1.0000
  C   C10       1.0  0.889  0.63193  0.01448  1.0000
  C   C11       1.0  0.73698  0.66274  0.02132999999999999  1.0000
  C   C12       1.0  0.67233  0.64501  0.05954  1.0000
  C   C13       1.0  0.7610799999999999  0.5952  0.09103  1.0000
  C   C14       1.0  0.91281  0.56464  0.08431  1.0000
  C   C15       1.0  0.20087  0.51069  0.00414  1.0000
  C   C16       1.0  0.35902  0.48793  0.99633  1.0000
  C   C17       1.0  0.4177  0.4461  0.96031  1.0000
  C   C18       1.0  0.58049  0.41756  0.95468  1.0000
  C   C19       1.0  0.67208  0.36814  0.98598  1.0000
  C   C20       1.0  0.8243099999999998  0.33836  0.97901  1.0000
  C   C21       1.0  0.88858  0.35678  0.94079  1.0000
  C   C22       1.0  0.7992799999999998  0.4065  0.90939  1.0000
  C   C23       1.0  0.64735  0.43612999999999996  0.91623  1.0000
  C   C24       1.0  0.32113  0.42372999999999994  0.92416  1.0000
  C   C25       1.0  0.31508999999999987  0.29992  0.90665  1.0000
  C   C26       1.0  0.23183999999999996  0.27844  0.87146  1.0000
  C   C27       1.0  0.15524  0.38089  0.85257  1.0000
  C   C28       1.0  0.1605  0.5043  0.87002  1.0000
  C   C29       1.0  0.24177  0.52529  0.90566  1.0000
  C   C30       1.0  0.07162  0.35921  0.8137  1.0000
  C   C31       1.0  0.00997  0.35941  0.68552  1.0000
  C   C32       1.0  0.09347  0.38164  0.64671  1.0000
  C   C33       1.0  0.0992  0.50523  0.62945  1.0000
  C   C34       1.0  0.18214  0.52673  0.59416  1.0000
  C   C35       1.0  0.26236  0.42548  0.57576  1.0000
  C   C36       1.0  0.25506  0.30144  0.59297  1.0000
  C   C37       1.0  0.17044  0.27951  0.62781  1.0000
  C   C38       1.0  0.3592  0.44759  0.5397  1.0000
  C   C39       1.0  0.5217799999999998  0.41790999999999995  0.54535  1.0000
  C   C40       1.0  0.61311  0.36806  0.51407  1.0000
  C   C41       1.0  0.76499  0.33699  0.52114  1.0000
  C   C42       1.0  0.82932  0.35452  0.55944  1.0000
  C   C43       1.0  0.74038  0.40464  0.59082  1.0000
  C   C44       1.0  0.5887999999999999  0.43547  0.58388  1.0000
  C   C45       1.0  0.29978  0.4891  0.5037  1.0000
  C   C46       1.0  0.14125  0.51172  0.49616000000000005  1.0000
  C   C47       1.0  0.08112  0.55296  0.46023  1.0000
  C   C48       1.0  0.91819  0.58153  0.45473  1.0000
  C   C49       1.0  0.8268299999999997  0.6311  0.48603  1.0000
  C   C50       1.0  0.67478  0.66167  0.479  1.0000
  C   C51       1.0  0.6103  0.64376  0.44074  1.0000
  C   C52       1.0  0.69915  0.59345  0.4093799999999999  1.0000
  C   C53       1.0  0.8508999999999998  0.5631  0.41627  1.0000
  C   C54       1.0  0.1771  0.57525  0.42402  1.0000
  C   C55       1.0  0.18359999999999999  0.69927  0.40676  1.0000
  C   C56       1.0  0.26751  0.72122  0.37179  1.0000
  C   C57       1.0  0.34438  0.6189  0.35291  1.0000
  C   C58       1.0  0.33861  0.49521999999999994  0.37007  1.0000
  C   C59       1.0  0.25644  0.47382  0.40547  1.0000
  C   C60       1.0  0.42849  0.64088  0.31427  1.0000
  C   C61       1.0  0.50425  0.14076  0.31441  1.0000
  C   C62       1.0  0.59071  0.11874  0.3529199999999999  1.0000
  C   C63       1.0  0.5971399999999999  0.99518  0.37018  1.0000
  C   C64       1.0  0.68067  0.9737799999999999  0.4054  1.0000
  C   C65       1.0  0.76135  0.07509  0.42379  1.0000
  C   C66       1.0  0.7542699999999998  0.19904  0.4065  1.0000
  C   C67       1.0  0.66886  0.22085  0.3717199999999999  1.0000
  C   C68       1.0  0.8581299999999997  0.05273  0.4599  1.0000
  C   C69       1.0  0.02092  0.08201  0.45439  1.0000
  C   C70       1.0  0.11225  0.13165  0.48579  1.0000
  C   C71       1.0  0.26433  0.1626  0.47887  1.0000
  C   C72       1.0  0.3287599999999999  0.14503  0.44063  1.0000
  C   C73       1.0  0.23982999999999996  0.09488  0.40917  1.0000
  C   C74       1.0  0.08802  0.06422  0.41593999999999987  1.0000
  C   C75       1.0  0.79885  0.01067  0.49584999999999996  1.0000
  C   C76       1.0  0.64035  0.98803  0.50344  1.0000
  C   C77       1.0  0.58093  0.9462399999999999  0.53938  1.0000
  C   C78       1.0  0.41797  0.91772  0.545  1.0000
  C   C79       1.0  0.32592  0.86817  0.51374  1.0000
  C   C80       1.0  0.17376  0.83788  0.52084  1.0000
  C   C81       1.0  0.10993999999999997  0.8559099999999998  0.55914  1.0000
  C   C82       1.0  0.19945999999999994  0.9062999999999999  0.59044  1.0000
  C   C83       1.0  0.35131  0.9364200000000001  0.58348  1.0000
  C   C84       1.0  0.67749  0.92376  0.57551  1.0000
  C   C85       1.0  0.68373  0.79978  0.59284  1.0000
  C   C86       1.0  0.76739  0.77825  0.62793  1.0000
  C   C87       1.0  0.84423  0.8807700000000002  0.6468799999999999  1.0000
  C   C88       1.0  0.839  0.00429  0.62957  1.0000
  C   C89       1.0  0.75729  0.02537  0.59403  1.0000
  C   C90       1.0  0.92817  0.85904  0.68563  1.0000
  C   C91       1.0  0.0011699999999999996  0.8592599999999999  0.8151  1.0000
  C   C92       1.0  0.9119799999999999  0.8814299999999999  0.85313  1.0000
  C   C93       1.0  0.90461  0.00515  0.87031  1.0000
  C   C94       1.0  0.82021  0.026680000000000002  0.90536  1.0000
  C   C95       1.0  0.7393999999999998  0.9253299999999999  0.92362  1.0000
  C   C96       1.0  0.74711  0.8012899999999998  0.90636  1.0000
  C   C97       1.0  0.83346  0.7793099999999998  0.87178  1.0000
  C   C98       1.0  0.64225  0.94729  0.95965  1.0000
  C   C99       1.0  0.47954  0.91758  0.95409  1.0000
  C   C100      1.0  0.38864  0.8680599999999999  0.98553  1.0000
  C   C101      1.0  0.23639999999999997  0.83721  0.97874  1.0000
  C   C102      1.0  0.17135  0.85463  0.94054  1.0000
  C   C103      1.0  0.25985  0.9046000000000001  0.90903  1.0000
  C   C104      1.0  0.41181  0.9352500000000001  0.91569  1.0000
  C   C105      1.0  0.7011  0.9891399999999999  0.99573  1.0000
  C   C106      1.0  0.8593199999999999  0.01227  0.00354  1.0000
  C   C107      1.0  0.9185  0.05367  0.0396  1.0000
  C   C108      1.0  0.08144  0.08236  0.04523  1.0000
  C   C109      1.0  0.17304999999999998  0.13175  0.01393  1.0000
  C   C110      1.0  0.32544  0.16162  0.02091  1.0000
  C   C111      1.0  0.38988  0.14336  0.05913999999999999  1.0000
  C   C112      1.0  0.30062  0.09359  0.09053  1.0000
  C   C113      1.0  0.14853  0.06384  0.08367999999999999  1.0000
  C   C114      1.0  0.8223999999999999  0.07569  0.07582  1.0000
  C   C115      1.0  0.81669  0.19951999999999998  0.09329  1.0000
  C   C116      1.0  0.73402  0.22093  0.1285  1.0000
  C   C117      1.0  0.65725  0.11845999999999998  0.14744  1.0000
  C   C118      1.0  0.66191  0.99503  0.13001  1.0000
  C   C119      1.0  0.74305  0.9741000000000001  0.09439  1.0000
  C   C120      1.0  0.57459  0.14075  0.18635  1.0000
  O   O1        1.0  0.49877  0.75364  0.20019  1.0000
  O   O2        1.0  0.57359  0.54589  0.20011  1.0000
  O   O3        1.0  0.9999299999999999  0.45386  0.79818  1.0000
  O   O4        1.0  0.07654  0.24683999999999998  0.79808  1.0000
  O   O5        1.0  0.015179999999999997  0.24689999999999998  0.70099  1.0000
  O   O6        1.0  0.9390599999999999  0.45439000000000007  0.7011  1.0000
  O   O7        1.0  0.49996999999999997  0.54613  0.29872  1.0000
  O   O8        1.0  0.42401  0.75354  0.29888  1.0000
  O   O9        1.0  0.50789  0.25345  0.29902  1.0000
  O   O10       1.0  0.43221999999999994  0.04575  0.29902999999999996  1.0000
  O   O11       1.0  0.9999899999999999  0.9539999999999998  0.70114  1.0000
  O   O12       1.0  0.92345  0.74666  0.70118  1.0000
  O   O13       1.0  0.9994099999999999  0.74627  0.79984  1.0000
  O   O14       1.0  0.07399  0.95417  0.79996  1.0000
  O   O15       1.0  0.5011  0.04694  0.2019  1.0000
  O   O16       1.0  0.58284  0.25304  0.202  1.0000
