data_image0
_chemical_formula_structural       Ag20H50C70N40
_chemical_formula_sum              "Ag20 H50 C70 N40"
_cell_length_a       13.89957
_cell_length_b       12.70558
_cell_length_c       14.80028
_cell_angle_alpha    86.19701
_cell_angle_beta     92.45249
_cell_angle_gamma    106.27125999999998

_symmetry_space_group_name_H-M    'P 1'
_symmetry_Int_Tables_number       1

loop_
  _symmetry_equiv_pos_as_xyz
  'x,y,z'

loop_
  _atom_site_type_symbol
  _atom_site_label
  _atom_site_symmetry_multiplicity
  _atom_site_fract_x
  _atom_site_fract_y
  _atom_site_fract_z
  _atom_site_occupancy
  Ag  Ag1       1.0  0.44088  0.42624  0.58639  1.0000
  Ag  Ag2       1.0  0.37973  0.63944  0.030539999999999998  1.0000
  Ag  Ag3       1.0  0.37212  0.009369999999999998  0.2398  1.0000
  Ag  Ag4       1.0  0.05892000000000001  0.14906  0.9994599999999999  1.0000
  Ag  Ag5       1.0  0.3021  0.17972999999999997  0.16962999999999995  1.0000
  Ag  Ag6       1.0  0.46782  0.51684  0.17707999999999993  1.0000
  Ag  Ag7       1.0  0.4577899999999999  0.63361  0.8591899999999998  1.0000
  Ag  Ag8       1.0  0.53436  0.30273  0.9545  1.0000
  Ag  Ag9       1.0  0.43404  0.10241999999999998  0.07203999999999998  1.0000
  Ag  Ag10      1.0  0.44518999999999986  0.8861099999999998  0.04515  1.0000
  Ag  Ag11      1.0  0.5568299999999998  0.61467  0.3867199999999999  1.0000
  Ag  Ag12      1.0  0.5086899999999998  0.50088  0.00117  1.0000
  Ag  Ag13      1.0  0.63315  0.98  0.74442  1.0000
  Ag  Ag14      1.0  0.91191  0.82703  0.01731  1.0000
  Ag  Ag15      1.0  0.66059  0.78463  0.81533  1.0000
  Ag  Ag16      1.0  0.57056  0.50177  0.79566  1.0000
  Ag  Ag17      1.0  0.48928  0.31703  0.12687  1.0000
  Ag  Ag18      1.0  0.5761799999999999  0.75247  0.9945199999999997  1.0000
  Ag  Ag19      1.0  0.49264  0.85629  0.85988  1.0000
  Ag  Ag20      1.0  0.54636  0.05509000000000001  0.9355699999999998  1.0000
  H   H1        1.0  0.24243999999999993  0.3322  0.56481  1.0000
  H   H2        1.0  0.10323  0.22838000000000003  0.46739999999999987  1.0000
  H   H3        1.0  0.9847499999999999  0.055310000000000005  0.5285199999999999  1.0000
  H   H4        1.0  0.006430000000000014  0.9869  0.68765  1.0000
  H   H5        1.0  0.14919  0.08915  0.7837  1.0000
  H   H6        1.0  0.2425  0.09959  0.32746  1.0000
  H   H7        1.0  0.18998  0.91026  0.39339  1.0000
  H   H8        1.0  0.23905999999999997  0.86772  0.55366  1.0000
  H   H9        1.0  0.34227  0.018900000000000004  0.64526  1.0000
  H   H10       1.0  0.4011799999999999  0.20745  0.5762199999999997  1.0000
  H   H11       1.0  0.07432000000000001  0.72727  0.02007  1.0000
  H   H12       1.0  0.07012999999999998  0.5307  0.03162  1.0000
  H   H13       1.0  0.10028  0.44083  0.18071999999999994  1.0000
  H   H14       1.0  0.13706  0.54995  0.31783  1.0000
  H   H15       1.0  0.14015  0.74736  0.30626  1.0000
  H   H16       1.0  0.22719  0.6165099999999999  0.9154399999999998  1.0000
  H   H17       1.0  0.19136  0.68225  0.76019  1.0000
  H   H18       1.0  0.10826  0.54816  0.64565  1.0000
  H   H19       1.0  0.06139000000000001  0.34766  0.68916  1.0000
  H   H20       1.0  0.10075  0.2816  0.84282  1.0000
  H   H21       1.0  0.28504  0.56798  0.42682  1.0000
  H   H22       1.0  0.28914000000000006  0.5485700000000001  0.59627  1.0000
  H   H23       1.0  0.39192  0.7029  0.6846599999999998  1.0000
  H   H24       1.0  0.48356  0.8770100000000001  0.6057199999999998  1.0000
  H   H25       1.0  0.47350000000000003  0.89994  0.43696  1.0000
  H   H26       1.0  0.75991  0.66475  0.4125899999999999  1.0000
  H   H27       1.0  0.89697  0.72323  0.52687  1.0000
  H   H28       1.0  0.038549999999999994  0.89063  0.4940099999999999  1.0000
  H   H29       1.0  0.04040999999999998  0.99891  0.34785  1.0000
  H   H30       1.0  0.90142  0.9417199999999999  0.23435  1.0000
  H   H31       1.0  0.77823  0.91216  0.6686299999999997  1.0000
  H   H32       1.0  0.8438  0.10752  0.61913  1.0000
  H   H33       1.0  0.8114599999999998  0.17183  0.46025999999999995  1.0000
  H   H34       1.0  0.70902  0.03801  0.35379  1.0000
  H   H35       1.0  0.6360599999999997  0.84398  0.40586  1.0000
  H   H36       1.0  0.90387  0.24635000000000007  0.9976099999999998  1.0000
  H   H37       1.0  0.91646  0.44467  0.9916699999999998  1.0000
  H   H38       1.0  0.89148  0.54267  0.84481  1.0000
  H   H39       1.0  0.84808  0.43878  0.70523  1.0000
  H   H40       1.0  0.83642  0.23988  0.71082  1.0000
  H   H41       1.0  0.7164500000000001  0.36259  0.08683  1.0000
  H   H42       1.0  0.75489  0.28934  0.23975  1.0000
  H   H43       1.0  0.85741  0.41577  0.35134  1.0000
  H   H44       1.0  0.92117  0.61557  0.30858  1.0000
  H   H45       1.0  0.88386  0.68833  0.15626999999999994  1.0000
  H   H46       1.0  0.6955099999999999  0.4441  0.59009  1.0000
  H   H47       1.0  0.69691  0.4746  0.4214999999999999  1.0000
  H   H48       1.0  0.62126  0.31937  0.32452  1.0000
  H   H49       1.0  0.55392  0.13052  0.3947  1.0000
  H   H50       1.0  0.55841  0.09909000000000003  0.5625399999999998  1.0000
  C   C1        1.0  0.28775  0.27532000000000006  0.7386999999999998  1.0000
  C   C2        1.0  0.20569999999999997  0.21638  0.68025  1.0000
  C   C3        1.0  0.19112  0.25609  0.59139  1.0000
  C   C4        1.0  0.11241  0.19806  0.53684  1.0000
  C   C5        1.0  0.04617000000000001  0.10061000000000002  0.5709399999999998  1.0000
  C   C6        1.0  0.05868999999999999  0.0618  0.66017  1.0000
  C   C7        1.0  0.13816  0.11883999999999999  0.71446  1.0000
  C   C8        1.0  0.3658699999999999  0.27663  0.4034199999999999  1.0000
  C   C9        1.0  0.32810999999999996  0.1666  0.44626  1.0000
  C   C10       1.0  0.26743  0.08136000000000002  0.39596999999999993  1.0000
  C   C11       1.0  0.23597  0.9744  0.4344399999999999  1.0000
  C   C12       1.0  0.26264999999999994  0.9513399999999999  0.52413  1.0000
  C   C13       1.0  0.32119  0.03599  0.57527  1.0000
  C   C14       1.0  0.35411999999999993  0.14248  0.53648  1.0000
  C   C15       1.0  0.10536  0.86398  0.15689999999999996  1.0000
  C   C16       1.0  0.10548  0.74903  0.16303  1.0000
  C   C17       1.0  0.08624999999999998  0.68761  0.08549  1.0000
  C   C18       1.0  0.08407  0.5771  0.09220999999999997  1.0000
  C   C19       1.0  0.10153  0.52696  0.17582  1.0000
  C   C20       1.0  0.12226  0.58826  0.25279  1.0000
  C   C21       1.0  0.12455  0.69891  0.24669  1.0000
  C   C22       1.0  0.19850000000000004  0.40647  0.97949  1.0000
  C   C23       1.0  0.16817  0.44367999999999996  0.88989  1.0000
  C   C24       1.0  0.1924  0.55719  0.8655399999999998  1.0000
  C   C25       1.0  0.17141  0.59451  0.7781599999999999  1.0000
  C   C26       1.0  0.12444  0.51944  0.71399  1.0000
  C   C27       1.0  0.09815  0.40705  0.7381399999999998  1.0000
  C   C28       1.0  0.11989  0.36933  0.8251299999999998  1.0000
  C   C29       1.0  0.37678999999999996  0.74281  0.3210999999999999  1.0000
  C   C30       1.0  0.37839  0.73534  0.42056  1.0000
  C   C31       1.0  0.32694000000000006  0.6358600000000001  0.4664299999999999  1.0000
  C   C32       1.0  0.33054  0.62468  0.56088  1.0000
  C   C33       1.0  0.38697999999999994  0.71186  0.6107999999999998  1.0000
  C   C34       1.0  0.43826  0.8104299999999999  0.566  1.0000
  C   C35       1.0  0.43314  0.82301  0.4715499999999999  1.0000
  C   C36       1.0  0.73928  0.76536  0.25043  1.0000
  C   C37       1.0  0.82105  0.80005  0.31657  1.0000
  C   C38       1.0  0.82109  0.7384  0.39895999999999987  1.0000
  C   C39       1.0  0.89856  0.77086  0.46281  1.0000
  C   C40       1.0  0.97768  0.8647900000000001  0.44457  1.0000
  C   C41       1.0  0.97868  0.92606  0.36229  1.0000
  C   C42       1.0  0.90095  0.89419  0.29835  1.0000
  C   C43       1.0  0.6583200000000001  0.75157  0.5748899999999998  1.0000
  C   C44       1.0  0.70022  0.8651  0.54144  1.0000
  C   C45       1.0  0.75957  0.9407499999999999  0.60094  1.0000
  C   C46       1.0  0.7983299999999997  0.05079000000000002  0.5718599999999998  1.0000
  C   C47       1.0  0.78072  0.08618000000000002  0.4828999999999999  1.0000
  C   C48       1.0  0.72289  0.011110000000000004  0.4232399999999999  1.0000
  C   C49       1.0  0.68192  0.90159  0.45241  1.0000
  C   C50       1.0  0.86983  0.11474000000000002  0.8582099999999998  1.0000
  C   C51       1.0  0.8722  0.23056  0.8540699999999998  1.0000
  C   C52       1.0  0.8939299999999999  0.28922  0.9331699999999998  1.0000
  C   C53       1.0  0.9009099999999999  0.40091  0.92966  1.0000
  C   C54       1.0  0.88565  0.45535  0.84748  1.0000
  C   C55       1.0  0.8613300000000002  0.39692  0.7690899999999998  1.0000
  C   C56       1.0  0.85452  0.28511  0.77204  1.0000
  C   C57       1.0  0.77253  0.56901  0.02066  1.0000
  C   C58       1.0  0.7985899999999999  0.53019  0.11088999999999999  1.0000
  C   C59       1.0  0.76196  0.41722  0.13561  1.0000
  C   C60       1.0  0.78363  0.37660000000000005  0.22149  1.0000
  C   C61       1.0  0.84116  0.44769  0.28413  1.0000
  C   C62       1.0  0.87671  0.55974  0.26033  1.0000
  C   C63       1.0  0.85591  0.60089  0.17423999999999995  1.0000
  C   C64       1.0  0.6186300000000001  0.25215  0.68514  1.0000
  C   C65       1.0  0.6258400000000002  0.26981  0.58684  1.0000
  C   C66       1.0  0.66595  0.37590000000000007  0.5467599999999998  1.0000
  C   C67       1.0  0.66581  0.39259  0.45269  1.0000
  C   C68       1.0  0.62421  0.30473  0.3978  1.0000
  C   C69       1.0  0.58654  0.19898  0.4373  1.0000
  C   C70       1.0  0.58851  0.18113999999999997  0.5313099999999998  1.0000
  N   N1        1.0  0.36131  0.36667  0.7141  1.0000
  N   N2        1.0  0.41532  0.39543  0.7911099999999998  1.0000
  N   N3        1.0  0.37692000000000003  0.32334000000000007  0.8588299999999998  1.0000
  N   N4        1.0  0.29748  0.24749  0.8277899999999998  1.0000
  N   N5        1.0  0.36301  0.3003  0.31294  1.0000
  N   N6        1.0  0.41194  0.40725  0.30139  1.0000
  N   N7        1.0  0.44297  0.44837  0.38087  1.0000
  N   N8        1.0  0.41421  0.36845  0.44631  1.0000
  N   N9        1.0  0.04816  0.9082800000000001  0.09799  1.0000
  N   N10       1.0  0.07378  0.016620000000000003  0.11346  1.0000
  N   N11       1.0  0.14307  0.03597  0.17956  1.0000
  N   N12       1.0  0.16382  0.94148  0.20839  1.0000
  N   N13       1.0  0.26064  0.47458000000000006  0.036589999999999984  1.0000
  N   N14       1.0  0.27759  0.41291999999999995  0.10924999999999997  1.0000
  N   N15       1.0  0.22728  0.30982  0.09829999999999997  1.0000
  N   N16       1.0  0.17589  0.30294  0.01766  1.0000
  N   N17       1.0  0.39312  0.8356099999999997  0.26616  1.0000
  N   N18       1.0  0.38636  0.8005399999999999  0.18146  1.0000
  N   N19       1.0  0.36641000000000007  0.6922500000000001  0.18510999999999994  1.0000
  N   N20       1.0  0.36056  0.65325  0.27155  1.0000
  N   N21       1.0  0.65015  0.6908599999999999  0.26841  1.0000
  N   N22       1.0  0.5987299999999999  0.67782  0.18925999999999996  1.0000
  N   N23       1.0  0.65485  0.74306  0.12608  1.0000
  N   N24       1.0  0.7427399999999998  0.7992900000000001  0.1619  1.0000
  N   N25       1.0  0.67058  0.71583  0.66168  1.0000
  N   N26       1.0  0.6187  0.60977  0.66703  1.0000
  N   N27       1.0  0.57555  0.5806  0.58771  1.0000
  N   N28       1.0  0.5998  0.66793  0.52799  1.0000
  N   N29       1.0  0.9260199999999998  0.06905000000000001  0.9169799999999998  1.0000
  N   N30       1.0  0.90009  0.96082  0.90086  1.0000
  N   N31       1.0  0.83175  0.94216  0.8344899999999997  1.0000
  N   N32       1.0  0.8117  0.037380000000000004  0.80611  1.0000
  N   N33       1.0  0.71013  0.50059  0.9640599999999998  1.0000
  N   N34       1.0  0.69919  0.56372  0.89068  1.0000
  N   N35       1.0  0.7519599999999999  0.66735  0.89989  1.0000
  N   N36       1.0  0.80002  0.67252  0.9815699999999998  1.0000
  N   N37       1.0  0.614  0.15568  0.7319399999999998  1.0000
  N   N38       1.0  0.60561  0.17489  0.81876  1.0000
  N   N39       1.0  0.60381  0.27729  0.8246699999999998  1.0000
  N   N40       1.0  0.61198  0.32870999999999995  0.7421799999999997  1.0000
