data_image0
_chemical_formula_structural       Cd4H40C88O32
_chemical_formula_sum              "Cd4 H40 C88 O32"
_cell_length_a       8.79897
_cell_length_b       15.46522
_cell_length_c       25.6364
_cell_angle_alpha    81.44472
_cell_angle_beta     80.12089
_cell_angle_gamma    72.71398

_symmetry_space_group_name_H-M    'P 1'
_symmetry_Int_Tables_number       1

loop_
  _symmetry_equiv_pos_as_xyz
  'x,y,z'

loop_
  _atom_site_type_symbol
  _atom_site_label
  _atom_site_symmetry_multiplicity
  _atom_site_fract_x
  _atom_site_fract_y
  _atom_site_fract_z
  _atom_site_occupancy
  Cd  Cd1       1.0  0.14294999999999994  0.3549  0.5017  1.0000
  Cd  Cd2       1.0  0.0008399999999999215  0.14570999999999995  0.9978100000000002  1.0000
  Cd  Cd3       1.0  0.8542499999999998  0.6428  0.4982000000000001  1.0000
  Cd  Cd4       1.0  0.004040000000000038  0.85202  0.00098  1.0000
  H   H1        1.0  0.94294  0.20040000000000002  0.67096  1.0000
  H   H2        1.0  0.6352199999999998  0.7518299999999999  0.76217  1.0000
  H   H3        1.0  0.73262  0.69019  0.8835400000000001  1.0000
  H   H4        1.0  0.48677999999999977  0.99687  0.6968700000000002  1.0000
  H   H5        1.0  0.1168199999999999  0.08126999999999998  0.8294700000000003  1.0000
  H   H6        1.0  0.2668200000000002  0.30988  0.11617  1.0000
  H   H7        1.0  0.8908800000000002  0.9190699999999998  0.17045  1.0000
  H   H8        1.0  0.84395  0.2541  0.26299  1.0000
  H   H9        1.0  0.91302  0.16827  0.18391  1.0000
  H   H10       1.0  0.17792999999999998  0.50496  0.80495  1.0000
  H   H11       1.0  0.30228000000000005  0.81479  0.61448  1.0000
  H   H12       1.0  0.53281  0.23469  0.16613000000000003  1.0000
  H   H13       1.0  0.06380000000000013  0.7355399999999995  0.66557  1.0000
  H   H14       1.0  0.5593700000000001  0.8918499999999999  0.3843100000000001  1.0000
  H   H15       1.0  0.83454  0.60873  0.11453000000000003  1.0000
  H   H16       1.0  0.8285299999999994  0.29817  0.8250600000000002  1.0000
  H   H17       1.0  0.1645  0.39492  0.88657  1.0000
  H   H18       1.0  0.7917699999999999  0.09649999999999999  0.30746  1.0000
  H   H19       1.0  0.19318  0.40005  0.19409  1.0000
  H   H20       1.0  0.8051700000000003  0.5999699999999999  0.8055500000000002  1.0000
  H   H21       1.0  0.4689400000000001  0.7641099999999997  0.83239  1.0000
  H   H22       1.0  0.08455999999999995  0.8326299999999998  0.8148000000000002  1.0000
  H   H23       1.0  0.1835  0.69733  0.17452  1.0000
  H   H24       1.0  0.92914  0.26478  0.33367  1.0000
  H   H25       1.0  0.44581999999999994  0.10495  0.61419  1.0000
  H   H26       1.0  0.81928  0.49860999999999994  0.19591  1.0000
  H   H27       1.0  0.3660799999999998  0.24838999999999997  0.23604  1.0000
  H   H28       1.0  0.02403000000000006  0.90903  0.24532  1.0000
  H   H29       1.0  0.6918199999999997  0.18561  0.38562  1.0000
  H   H30       1.0  0.51799  0.0021400000000000004  0.30261  1.0000
  H   H31       1.0  0.16867999999999986  0.58855  0.25676000000000004  1.0000
  H   H32       1.0  0.035349999999999986  0.41889  0.67042  1.0000
  H   H33       1.0  0.06326999999999997  0.79991  0.32775  1.0000
  H   H34       1.0  0.1518900000000002  0.7469999999999999  0.7356  1.0000
  H   H35       1.0  0.9735699999999998  0.5780399999999998  0.33005000000000007  1.0000
  H   H36       1.0  0.26561000000000007  0.33382  0.31509  1.0000
  H   H37       1.0  0.98148  0.09368999999999994  0.75447  1.0000
  H   H38       1.0  0.7309899999999996  0.6653499999999998  0.6834  1.0000
  H   H39       1.0  0.8417099999999996  0.40651  0.7425200000000001  1.0000
  H   H40       1.0  0.20754999999999998  0.905  0.69231  1.0000
  C   C1        1.0  0.90456  0.34381999999999996  0.8194600000000002  1.0000
  C   C2        1.0  0.06728000000000005  0.53894  0.62153  1.0000
  C   C3        1.0  0.3976799999999997  0.30987  0.40458  1.0000
  C   C4        1.0  0.37486999999999987  0.80317  0.6466900000000001  1.0000
  C   C5        1.0  0.02652000000000001  0.6171799999999998  0.71767  1.0000
  C   C6        1.0  0.8854299999999999  0.81019  0.9036  1.0000
  C   C7        1.0  0.36485999999999996  0.81119  0.9302200000000002  1.0000
  C   C8        1.0  0.10182999999999999  0.68736  0.56833  1.0000
  C   C9        1.0  0.9354200000000003  0.45889  0.3783500000000001  1.0000
  C   C10       1.0  0.6371500000000001  0.18727999999999995  0.06922  1.0000
  C   C11       1.0  0.76834  0.96299  0.26836  1.0000
  C   C12       1.0  0.93715  0.26592  0.23131  1.0000
  C   C13       1.0  0.98971  0.27243999999999996  0.9077200000000002  1.0000
  C   C14       1.0  0.6077299999999998  0.16456999999999994  0.16852  1.0000
  C   C15       1.0  0.9939199999999999  0.53551  0.23187000000000005  1.0000
  C   C16       1.0  0.6153499999999998  0.7166099999999997  0.6866000000000001  1.0000
  C   C17       1.0  0.34585000000000005  0.10093  0.64513  1.0000
  C   C18       1.0  0.58558  0.16469  0.26577  1.0000
  C   C19       1.0  0.05973999999999997  0.73483  0.76758  1.0000
  C   C20       1.0  0.8146199999999999  0.98894  0.17061000000000004  1.0000
  C   C21       1.0  0.9812299999999999  0.4743699999999999  0.28106  1.0000
  C   C22       1.0  0.9449500000000001  0.8443499999999998  0.32119  1.0000
  C   C23       1.0  0.5611899999999999  0.7649  0.7304500000000002  1.0000
  C   C24       1.0  0.10415000000000008  0.6534999999999999  0.18025  1.0000
  C   C25       1.0  0.19242999999999996  0.15855  0.63822  1.0000
  C   C26       1.0  0.13051  0.35024  0.19162  1.0000
  C   C27       1.0  0.09060000000000001  0.23593  0.14482  1.0000
  C   C28       1.0  0.64276  0.11658999999999999  0.21824000000000005  1.0000
  C   C29       1.0  0.07956000000000013  0.4925899999999998  0.57318  1.0000
  C   C30       1.0  0.009790000000000089  0.6589699999999997  0.14006  1.0000
  C   C31       1.0  0.16837  0.22605999999999998  0.59015  1.0000
  C   C32       1.0  0.2602400000000001  0.97637  0.78042  1.0000
  C   C33       1.0  0.009829999999999893  0.46374  0.7682200000000002  1.0000
  C   C34       1.0  0.39495000000000013  0.8344599999999996  0.8305300000000001  1.0000
  C   C35       1.0  0.8653599999999999  0.9927900000000001  0.07298  1.0000
  C   C36       1.0  0.9681800000000002  0.50869  0.32957  1.0000
  C   C37       1.0  0.09491999999999996  0.59338  0.22586  1.0000
  C   C38       1.0  0.74407  0.023949999999999996  0.21904  1.0000
  C   C39       1.0  0.5954099999999999  0.68822  0.5952  1.0000
  C   C40       1.0  0.90735  0.60283  0.14588  1.0000
  C   C41       1.0  0.3596300000000001  0.8833399999999998  0.78098  1.0000
  C   C42       1.0  0.97224  0.38237  0.28187000000000006  1.0000
  C   C43       1.0  0.62069  0.19679  0.35304  1.0000
  C   C44       1.0  0.81326  0.83923  0.36028  1.0000
  C   C45       1.0  0.41467  0.83563  0.7332900000000002  1.0000
  C   C46       1.0  0.9128999999999999  0.40372999999999987  0.7738000000000003  1.0000
  C   C47       1.0  0.9958999999999999  0.34057  0.86008  1.0000
  C   C48       1.0  0.9860499999999996  0.66567  0.7649700000000003  1.0000
  C   C49       1.0  0.6372800000000001  0.9584999999999998  0.30836  1.0000
  C   C50       1.0  0.14230999999999996  0.006549999999999986  0.92636  1.0000
  C   C51       1.0  0.07927000000000005  0.6288999999999998  0.62016  1.0000
  C   C52       1.0  0.19137999999999988  0.011079999999999956  0.8289800000000003  1.0000
  C   C53       1.0  0.78039  0.03879  0.12163  1.0000
  C   C54       1.0  0.36766999999999994  0.04056999999999999  0.69091  1.0000
  C   C55       1.0  0.86772  0.64993  0.8078700000000001  1.0000
  C   C56       1.0  0.43846999999999997  0.23506  0.26824  1.0000
  C   C57       1.0  0.9002099999999996  0.54125  0.19104  1.0000
  C   C58       1.0  0.23646999999999999  0.03743000000000001  0.73109  1.0000
  C   C59       1.0  0.90922  0.76392  0.85456  1.0000
  C   C60       1.0  0.037359999999999935  0.48896000000000006  0.67049  1.0000
  C   C61       1.0  0.3298  0.87024  0.8786200000000001  1.0000
  C   C62       1.0  0.011660000000000023  0.33455  0.23436  1.0000
  C   C63       1.0  0.01666000000000015  0.7270699999999998  0.09233  1.0000
  C   C64       1.0  0.06038999999999995  0.66529  0.66791  1.0000
  C   C65       1.0  0.09407999999999997  0.39903000000000005  0.85483  1.0000
  C   C66       1.0  0.08291000000000008  0.09663999999999995  0.72397  1.0000
  C   C67       1.0  0.06082999999999988  0.15557999999999997  0.6777100000000003  1.0000
  C   C68       1.0  0.97485  0.21804  0.18733  1.0000
  C   C69       1.0  0.4705099999999999  0.26298  0.3556900000000001  1.0000
  C   C70       1.0  0.22527999999999998  0.9603  0.87775  1.0000
  C   C71       1.0  0.8928599999999998  0.31231  0.43139000000000005  1.0000
  C   C72       1.0  0.3815199999999999  0.28273999999999994  0.31231  1.0000
  C   C73       1.0  0.17170000000000002  0.3005299999999999  0.14804000000000003  1.0000
  C   C74       1.0  0.9224699999999999  0.9045599999999999  0.27544  1.0000
  C   C75       1.0  0.92241  0.50523  0.42677000000000004  1.0000
  C   C76       1.0  0.67413  0.12843  0.12063  1.0000
  C   C77       1.0  0.9188799999999999  0.37  0.37943000000000005  1.0000
  C   C78       1.0  0.9359  0.33439  0.33152  1.0000
  C   C79       1.0  0.82743  0.6995499999999998  0.85152  1.0000
  C   C80       1.0  0.5239200000000002  0.7359699999999998  0.64385  1.0000
  C   C81       1.0  0.10021999999999981  0.46052000000000004  0.80957  1.0000
  C   C82       1.0  0.8385300000000001  0.7695999999999997  0.40751  1.0000
  C   C83       1.0  0.11876000000000003  0.18804  0.09617  1.0000
  C   C84       1.0  0.023109999999999974  0.78254  0.81161  1.0000
  C   C85       1.0  0.32259000000000004  0.8532  0.69025  1.0000
  C   C86       1.0  0.021680000000000005  0.5243699999999999  0.7188500000000001  1.0000
  C   C87       1.0  0.67584  0.14747  0.3092500000000001  1.0000
  C   C88       1.0  0.6595100000000002  0.89688  0.35364000000000007  1.0000
  O   O1        1.0  0.9165399999999999  0.33744  0.47384  1.0000
  O   O2        1.0  0.055970000000000034  0.49737999999999993  0.44235  1.0000
  O   O3        1.0  0.5294800000000002  0.6374999999999997  0.57971  1.0000
  O   O4        1.0  0.7289799999999997  0.16495999999999994  0.02624  1.0000
  O   O5        1.0  0.20677000000000004  0.05644999999999999  0.94452  1.0000
  O   O6        1.0  0.04514999999999998  0.29459  0.59257  1.0000
  O   O7        1.0  0.26425000000000015  0.29399  0.42584  1.0000
  O   O8        1.0  0.96331  0.71844  0.0506  1.0000
  O   O9        1.0  0.7277600000000001  0.7052099999999998  0.57364  1.0000
  O   O10       1.0  0.78804  0.55541  0.44487  1.0000
  O   O11       1.0  0.0430499999999999  0.28131000000000006  0.94935  1.0000
  O   O12       1.0  0.25515  0.13825999999999997  0.08190000000000003  1.0000
  O   O13       1.0  0.14514000000000005  0.7575499999999998  0.56906  1.0000
  O   O14       1.0  0.9327699999999999  0.20698  0.9049600000000001  1.0000
  O   O15       1.0  0.9919899999999999  0.2034  0.0739  1.0000
  O   O16       1.0  0.9616099999999999  0.70131  0.40435000000000004  1.0000
  O   O17       1.0  0.07646  0.66262  0.52605  1.0000
  O   O18       1.0  0.51603  0.25552  0.07132  1.0000
  O   O19       1.0  0.8020600000000001  0.9433699999999998  0.05390000000000002  1.0000
  O   O20       1.0  0.27242999999999984  0.21435999999999997  0.5487  1.0000
  O   O21       1.0  0.07399000000000014  0.7922299999999998  0.09506  1.0000
  O   O22       1.0  0.74947  0.85717  0.9207000000000001  1.0000
  O   O23       1.0  0.46511  0.35935  0.42052000000000006  1.0000
  O   O24       1.0  0.8484599999999999  0.24241999999999997  0.43079  1.0000
  O   O25       1.0  0.94555  0.50212  0.55737  1.0000
  O   O26       1.0  0.27347000000000005  0.8351799999999998  0.97311  1.0000
  O   O27       1.0  0.001549999999999887  0.9988399999999998  0.9422300000000002  1.0000
  O   O28       1.0  0.73493  0.77987  0.44931000000000004  1.0000
  O   O29       1.0  0.015719999999999987  0.79648  0.92367  1.0000
  O   O30       1.0  0.48307  0.7413799999999999  0.9285  1.0000
  O   O31       1.0  0.21263000000000007  0.44106  0.55526  1.0000
  O   O32       1.0  0.00595  0.0012099999999999988  0.05788  1.0000
