data_image0
_chemical_formula_structural       Mn8H40C80N24O32
_chemical_formula_sum              "Mn8 H40 C80 N24 O32"
_cell_length_a       12.54482
_cell_length_b       14.81385
_cell_length_c       20.981380000000005
_cell_angle_alpha    89.94492
_cell_angle_beta     90.00728
_cell_angle_gamma    90.0036

_space_group_name_H-M_alt    "P 1"
_space_group_IT_number       1

loop_
  _space_group_symop_operation_xyz
  'x, y, z'

loop_
  _atom_site_type_symbol
  _atom_site_label
  _atom_site_symmetry_multiplicity
  _atom_site_fract_x
  _atom_site_fract_y
  _atom_site_fract_z
  _atom_site_occupancy
  Mn  Mn1       1.0  0.9172700000000003  0.62464  0.30666  1.0000
  Mn  Mn2       1.0  0.5838200000000001  0.87505  0.80642  1.0000
  Mn  Mn3       1.0  0.08252000000000002  0.6244  0.19307000000000005  1.0000
  Mn  Mn4       1.0  0.41634000000000004  0.87521  0.69353  1.0000
  Mn  Mn5       1.0  0.08274  0.3753599999999999  0.69334  1.0000
  Mn  Mn6       1.0  0.41618  0.12495  0.19358000000000003  1.0000
  Mn  Mn7       1.0  0.9174800000000002  0.37559999999999993  0.80693  1.0000
  Mn  Mn8       1.0  0.58367  0.12478999999999997  0.30647  1.0000
  H   H1        1.0  0.59221  0.61334  0.46207000000000004  1.0000
  H   H2        1.0  0.9277900000000002  0.63655  0.46776000000000006  1.0000
  H   H3        1.0  0.8744300000000002  0.52127  0.56641  1.0000
  H   H4        1.0  0.7443  0.62598  0.74084  1.0000
  H   H5        1.0  0.6337900000000001  0.73087  0.56152  1.0000
  H   H6        1.0  0.90817  0.88655  0.9621100000000001  1.0000
  H   H7        1.0  0.5726  0.86309  0.9677200000000002  1.0000
  H   H8        1.0  0.62551  0.9784299999999998  0.06597  1.0000
  H   H9        1.0  0.75477  0.87416  0.24091000000000004  1.0000
  H   H10       1.0  0.86578  0.76859  0.06196  1.0000
  H   H11       1.0  0.4081200000000001  0.6134699999999997  0.038  1.0000
  H   H12       1.0  0.07257000000000001  0.63685  0.03227  1.0000
  H   H13       1.0  0.12574000000000002  0.5216899999999999  0.93398  1.0000
  H   H14       1.0  0.25513  0.62582  0.75909  1.0000
  H   H15       1.0  0.36635  0.7312399999999998  0.93809  1.0000
  H   H16       1.0  0.09226  0.88672  0.53769  1.0000
  H   H17       1.0  0.4278800000000001  0.8634699999999997  0.53235  1.0000
  H   H18       1.0  0.3747700000000001  0.97897  0.4334100000000001  1.0000
  H   H19       1.0  0.24462000000000003  0.8739599999999997  0.25904  1.0000
  H   H20       1.0  0.13457  0.76909  0.43854000000000004  1.0000
  H   H21       1.0  0.40779  0.38665  0.53793  1.0000
  H   H22       1.0  0.07221  0.36345  0.53224  1.0000
  H   H23       1.0  0.12557  0.47872999999999993  0.4335900000000001  1.0000
  H   H24       1.0  0.2557  0.37401  0.25916  1.0000
  H   H25       1.0  0.36622  0.26913  0.43848  1.0000
  H   H26       1.0  0.09184  0.11345  0.03789  1.0000
  H   H27       1.0  0.42740000000000006  0.13689999999999994  0.03227  1.0000
  H   H28       1.0  0.3744900000000001  0.02157  0.93403  1.0000
  H   H29       1.0  0.24523000000000003  0.12584  0.75909  1.0000
  H   H30       1.0  0.13422  0.23141  0.9380400000000001  1.0000
  H   H31       1.0  0.59188  0.38653  0.962  1.0000
  H   H32       1.0  0.92743  0.36314999999999986  0.9677200000000002  1.0000
  H   H33       1.0  0.8742700000000001  0.47831  0.06602000000000001  1.0000
  H   H34       1.0  0.7448700000000001  0.3741699999999999  0.24091000000000004  1.0000
  H   H35       1.0  0.6336500000000002  0.26876  0.06191  1.0000
  H   H36       1.0  0.90774  0.11328  0.4623  1.0000
  H   H37       1.0  0.57213  0.13653  0.46765  1.0000
  H   H38       1.0  0.62524  0.021029999999999993  0.56659  1.0000
  H   H39       1.0  0.7553900000000002  0.12603  0.74096  1.0000
  H   H40       1.0  0.8654300000000003  0.23090999999999995  0.56146  1.0000
  C   C1        1.0  0.6742000000000001  0.61887  0.44649000000000005  1.0000
  C   C2        1.0  0.84706  0.6294599999999999  0.4503  1.0000
  C   C3        1.0  0.7550700000000001  0.62646  0.55659  1.0000
  C   C4        1.0  0.82081  0.56768  0.59056  1.0000
  C   C5        1.0  0.8155000000000002  0.56653  0.65723  1.0000
  C   C6        1.0  0.74706  0.62602  0.68905  1.0000
  C   C7        1.0  0.68231  0.68546  0.6544400000000001  1.0000
  C   C8        1.0  0.6104300000000001  0.75174  0.68755  1.0000
  C   C9        1.0  0.68497  0.6846999999999998  0.58774  1.0000
  C   C10       1.0  0.88274  0.49936999999999987  0.69306  1.0000
  C   C11       1.0  0.82616  0.8810299999999999  0.9465700000000001  1.0000
  C   C12       1.0  0.65334  0.8702399999999998  0.9503100000000001  1.0000
  C   C13       1.0  0.7449300000000002  0.8732199999999998  0.05671  1.0000
  C   C14       1.0  0.67893  0.9321  0.0904  1.0000
  C   C15       1.0  0.68372  0.9333799999999998  0.15704  1.0000
  C   C16       1.0  0.75188  0.87381  0.18912000000000004  1.0000
  C   C17       1.0  0.81652  0.81399  0.15488  1.0000
  C   C18       1.0  0.8877100000000002  0.74763  0.18862  1.0000
  C   C19       1.0  0.81453  0.81472  0.08812000000000002  1.0000
  C   C20       1.0  0.6172500000000001  0.0008699999999999997  0.19302  1.0000
  C   C21       1.0  0.32615  0.6190699999999998  0.05357  1.0000
  C   C22       1.0  0.15333  0.62982  0.04970000000000001  1.0000
  C   C23       1.0  0.24528  0.6268999999999999  0.94342  1.0000
  C   C24       1.0  0.17934  0.56809  0.9097500000000001  1.0000
  C   C25       1.0  0.18419  0.56676  0.84313  1.0000
  C   C26       1.0  0.25245  0.62602  0.8109  1.0000
  C   C27       1.0  0.31741  0.68558  0.84518  1.0000
  C   C28       1.0  0.38908  0.75151  0.81146  1.0000
  C   C29       1.0  0.31515  0.6850899999999999  0.91193  1.0000
  C   C30       1.0  0.11678000000000001  0.4992499999999999  0.8079700000000001  1.0000
  C   C31       1.0  0.17424000000000006  0.88132  0.55329  1.0000
  C   C32       1.0  0.3471000000000001  0.8707199999999998  0.54966  1.0000
  C   C33       1.0  0.25548000000000004  0.8736799999999999  0.44324  1.0000
  C   C34       1.0  0.3212200000000001  0.93251  0.40925000000000006  1.0000
  C   C35       1.0  0.31599  0.9334599999999997  0.34259  1.0000
  C   C36       1.0  0.24766000000000005  0.87374  0.31083  1.0000
  C   C37       1.0  0.18311  0.8140899999999999  0.34541  1.0000
  C   C38       1.0  0.11098000000000002  0.74769  0.31239  1.0000
  C   C39       1.0  0.18572  0.8150899999999998  0.41214000000000006  1.0000
  C   C40       1.0  0.38244  0.0007399999999999999  0.30633  1.0000
  C   C41       1.0  0.32580000000000003  0.3811299999999999  0.5535  1.0000
  C   C42       1.0  0.15294  0.37054  0.54969  1.0000
  C   C43       1.0  0.24494000000000005  0.37353999999999987  0.44340000000000007  1.0000
  C   C44       1.0  0.17919  0.43231999999999987  0.4094400000000001  1.0000
  C   C45       1.0  0.1845  0.4334599999999999  0.34277  1.0000
  C   C46       1.0  0.25294  0.37398  0.31095  1.0000
  C   C47       1.0  0.31769000000000003  0.31454  0.34556000000000003  1.0000
  C   C48       1.0  0.38958  0.24825999999999995  0.31245  1.0000
  C   C49       1.0  0.31503  0.31529  0.41226  1.0000
  C   C50       1.0  0.11726  0.50062  0.30694  1.0000
  C   C51       1.0  0.17384000000000002  0.11896999999999999  0.05343000000000001  1.0000
  C   C52       1.0  0.34667  0.12976  0.04969  1.0000
  C   C53       1.0  0.25508  0.12677999999999998  0.9432900000000001  1.0000
  C   C54       1.0  0.32107  0.0679  0.9096  1.0000
  C   C55       1.0  0.31628000000000006  0.06660999999999997  0.8429600000000002  1.0000
  C   C56       1.0  0.24812  0.12619  0.81088  1.0000
  C   C57       1.0  0.18348  0.18600999999999995  0.8451200000000001  1.0000
  C   C58       1.0  0.11230000000000001  0.25237  0.81138  1.0000
  C   C59       1.0  0.18547000000000005  0.18528  0.91188  1.0000
  C   C60       1.0  0.38275  0.99913  0.8069800000000001  1.0000
  C   C61       1.0  0.6738500000000001  0.3809299999999999  0.94643  1.0000
  C   C62       1.0  0.8466700000000001  0.37018  0.9502900000000001  1.0000
  C   C63       1.0  0.7547300000000002  0.3731  0.056580000000000005  1.0000
  C   C64       1.0  0.8206600000000002  0.43191  0.09025000000000001  1.0000
  C   C65       1.0  0.81582  0.43324  0.15687  1.0000
  C   C66       1.0  0.74756  0.37398  0.1891  1.0000
  C   C67       1.0  0.68259  0.31442  0.15482  1.0000
  C   C68       1.0  0.6109200000000001  0.24848999999999993  0.18854  1.0000
  C   C69       1.0  0.6848500000000002  0.31491  0.08807  1.0000
  C   C70       1.0  0.8832300000000002  0.50075  0.19202  1.0000
  C   C71       1.0  0.82576  0.11868  0.44670000000000004  1.0000
  C   C72       1.0  0.65291  0.12928  0.4503400000000001  1.0000
  C   C73       1.0  0.7445300000000001  0.12631  0.55676  1.0000
  C   C74       1.0  0.67879  0.06749  0.59075  1.0000
  C   C75       1.0  0.68401  0.06654  0.65741  1.0000
  C   C76       1.0  0.75235  0.12626  0.68917  1.0000
  C   C77       1.0  0.81689  0.18591  0.65459  1.0000
  C   C78       1.0  0.88902  0.25231  0.68761  1.0000
  C   C79       1.0  0.8142800000000002  0.18491  0.58786  1.0000
  C   C80       1.0  0.61756  0.99926  0.69367  1.0000
  N   N1        1.0  0.75876  0.62604  0.48827  1.0000
  N   N2        1.0  0.8175100000000002  0.6247  0.38973  1.0000
  N   N3        1.0  0.7076000000000001  0.61785  0.38703000000000004  1.0000
  N   N4        1.0  0.74158  0.87374  0.98833  1.0000
  N   N5        1.0  0.68292  0.87498  0.8897300000000001  1.0000
  N   N6        1.0  0.79283  0.88199  0.88708  1.0000
  N   N7        1.0  0.24167  0.62644  0.011760000000000001  1.0000
  N   N8        1.0  0.18283  0.6250099999999997  0.11029000000000001  1.0000
  N   N9        1.0  0.29273  0.61803  0.11304000000000003  1.0000
  N   N10       1.0  0.25892  0.8742799999999997  0.51158  1.0000
  N   N11       1.0  0.31738000000000005  0.87531  0.6102  1.0000
  N   N12       1.0  0.20746  0.88215  0.6128  1.0000
  N   N13       1.0  0.24124  0.3739599999999999  0.5117300000000001  1.0000
  N   N14       1.0  0.18249000000000004  0.3753  0.61027  1.0000
  N   N15       1.0  0.29241  0.38215  0.61297  1.0000
  N   N16       1.0  0.25842000000000004  0.12626  0.01166  1.0000
  N   N17       1.0  0.31708000000000003  0.12502  0.11026  1.0000
  N   N18       1.0  0.20718  0.11801  0.11292  1.0000
  N   N19       1.0  0.7583300000000002  0.37356  0.9882400000000001  1.0000
  N   N20       1.0  0.81718  0.3749899999999999  0.8897000000000002  1.0000
  N   N21       1.0  0.70727  0.38196999999999987  0.88696  1.0000
  N   N22       1.0  0.7410800000000001  0.12572  0.48842  1.0000
  N   N23       1.0  0.68263  0.12468999999999997  0.3898  1.0000
  N   N24       1.0  0.79254  0.11784999999999997  0.38720000000000004  1.0000
  O   O1        1.0  0.6391000000000001  0.7768699999999998  0.7429900000000002  1.0000
  O   O2        1.0  0.52839  0.77768  0.65692  1.0000
  O   O3        1.0  0.85254  0.47799999999999987  0.7489800000000001  1.0000
  O   O4        1.0  0.9635700000000001  0.4684599999999999  0.6634700000000001  1.0000
  O   O5        1.0  0.85972  0.7237999999999999  0.24449000000000004  1.0000
  O   O6        1.0  0.96904  0.72012  0.15806  1.0000
  O   O7        1.0  0.6499100000000002  0.02267  0.24825  1.0000
  O   O8        1.0  0.53502  0.03146  0.16454  1.0000
  O   O9        1.0  0.36031  0.7762199999999998  0.75589  1.0000
  O   O10       1.0  0.47138  0.7776199999999998  0.84172  1.0000
  O   O11       1.0  0.14664000000000002  0.4776199999999999  0.75212  1.0000
  O   O12       1.0  0.03634  0.4683799999999999  0.83805  1.0000
  O   O13       1.0  0.13748  0.72358  0.25638  1.0000
  O   O14       1.0  0.03026  0.7204  0.34367  1.0000
  O   O15       1.0  0.34995  0.02236  0.25096  1.0000
  O   O16       1.0  0.4646200000000001  0.03138  0.33486  1.0000
  O   O17       1.0  0.36090000000000005  0.22312999999999994  0.25701  1.0000
  O   O18       1.0  0.47161000000000003  0.22232  0.34308  1.0000
  O   O19       1.0  0.14746  0.522  0.25102  1.0000
  O   O20       1.0  0.03644000000000001  0.53153  0.33653  1.0000
  O   O21       1.0  0.14028  0.2762  0.7555  1.0000
  O   O22       1.0  0.030970000000000004  0.27988  0.84194  1.0000
  O   O23       1.0  0.3501  0.97733  0.75175  1.0000
  O   O24       1.0  0.4649800000000001  0.9685399999999997  0.83546  1.0000
  O   O25       1.0  0.63969  0.22376999999999994  0.24410000000000004  1.0000
  O   O26       1.0  0.52862  0.22238  0.15828  1.0000
  O   O27       1.0  0.85336  0.52238  0.24788000000000004  1.0000
  O   O28       1.0  0.96366  0.53162  0.16195  1.0000
  O   O29       1.0  0.86252  0.27642  0.74361  1.0000
  O   O30       1.0  0.9697500000000002  0.2796  0.65633  1.0000
  O   O31       1.0  0.65006  0.97764  0.74904  1.0000
  O   O32       1.0  0.53539  0.9686199999999998  0.66514  1.0000
