data_image0
_chemical_formula_structural       Cd4H60C108O24
_chemical_formula_sum              "Cd4 H60 C108 O24"
_cell_length_a       8.14438
_cell_length_b       15.31783
_cell_length_c       27.79131
_cell_angle_alpha    95.97595
_cell_angle_beta     90.11776
_cell_angle_gamma    89.92384

_space_group_name_H-M_alt    "P 1"
_space_group_IT_number       1

loop_
  _space_group_symop_operation_xyz
  'x, y, z'

loop_
  _atom_site_type_symbol
  _atom_site_label
  _atom_site_symmetry_multiplicity
  _atom_site_fract_x
  _atom_site_fract_y
  _atom_site_fract_z
  _atom_site_occupancy
  Cd  Cd1       1.0  0.76872  0.5399  0.85931  1.0000
  Cd  Cd2       1.0  0.73817  0.038549999999999994  0.35937  1.0000
  Cd  Cd3       1.0  0.26184  0.96146  0.64063  1.0000
  Cd  Cd4       1.0  0.23129  0.4601099999999999  0.14069  1.0000
  H   H1        1.0  0.40885  0.67885  0.98232  1.0000
  H   H2        1.0  0.25534  0.8039599999999998  0.02399  1.0000
  H   H3        1.0  0.46859  0.9747199999999998  0.9263699999999998  1.0000
  H   H4        1.0  0.62066  0.84807  0.88524  1.0000
  H   H5        1.0  0.22606  0.91461  0.07007  1.0000
  H   H6        1.0  0.010209999999999997  0.16952  0.06673  1.0000
  H   H7        1.0  0.27489  0.05298999999999998  0.94323  1.0000
  H   H8        1.0  0.2508  0.96368  0.1485  1.0000
  H   H9        1.0  0.1377  0.9587  0.23134999999999994  1.0000
  H   H10       1.0  0.71639  0.1059  0.1941  1.0000
  H   H11       1.0  0.82736  0.1129  0.11135  1.0000
  H   H12       1.0  0.0969  0.2889  0.04156  1.0000
  H   H13       1.0  0.09065  0.12584999999999993  0.9048799999999998  1.0000
  H   H14       1.0  0.00914  0.41592  0.00025  1.0000
  H   H15       1.0  0.0  0.25415  0.86393  1.0000
  H   H16       1.0  0.09664  0.17897  0.48412  1.0000
  H   H17       1.0  0.24764  0.3056  0.52507  1.0000
  H   H18       1.0  0.032829999999999984  0.47321999999999986  0.42582  1.0000
  H   H19       1.0  0.88197  0.34514  0.38556  1.0000
  H   H20       1.0  0.27452  0.41530000000000006  0.57017  1.0000
  H   H21       1.0  0.48657  0.67089  0.56803  1.0000
  H   H22       1.0  0.2261  0.5537799999999998  0.4433999999999999  1.0000
  H   H23       1.0  0.24935000000000002  0.46393  0.649  1.0000
  H   H24       1.0  0.36494  0.45704000000000006  0.73156  1.0000
  H   H25       1.0  0.78565  0.6040799999999998  0.6943499999999998  1.0000
  H   H26       1.0  0.67204  0.61262  0.6119  1.0000
  H   H27       1.0  0.40558  0.79041  0.54247  1.0000
  H   H28       1.0  0.40984  0.6263899999999998  0.406  1.0000
  H   H29       1.0  0.49671  0.91645  0.50129  1.0000
  H   H30       1.0  0.50475  0.7535799999999998  0.36507  1.0000
  H   H31       1.0  0.90338  0.82104  0.51588  1.0000
  H   H32       1.0  0.75237  0.69441  0.47492  1.0000
  H   H33       1.0  0.96719  0.5267799999999998  0.57418  1.0000
  H   H34       1.0  0.11803999999999998  0.65486  0.6144399999999999  1.0000
  H   H35       1.0  0.7255  0.5847  0.4298299999999999  1.0000
  H   H36       1.0  0.51344  0.32911999999999997  0.4319699999999999  1.0000
  H   H37       1.0  0.77391  0.44623  0.55659  1.0000
  H   H38       1.0  0.75067  0.53607  0.35099  1.0000
  H   H39       1.0  0.63508  0.5429699999999998  0.26843  1.0000
  H   H40       1.0  0.21436  0.39592  0.30564  1.0000
  H   H41       1.0  0.32797  0.38737999999999995  0.3881  1.0000
  H   H42       1.0  0.59444  0.20959  0.45753  1.0000
  H   H43       1.0  0.5901799999999998  0.37361  0.594  1.0000
  H   H44       1.0  0.50331  0.08355999999999997  0.49871  1.0000
  H   H45       1.0  0.49527  0.24643  0.63492  1.0000
  H   H46       1.0  0.59117  0.32115  0.01768  1.0000
  H   H47       1.0  0.74468  0.19605  0.97601  1.0000
  H   H48       1.0  0.53143  0.025289999999999997  0.07362999999999997  1.0000
  H   H49       1.0  0.37935  0.15194  0.11476  1.0000
  H   H50       1.0  0.77395  0.0854  0.92993  1.0000
  H   H51       1.0  0.9898100000000001  0.8304799999999998  0.9332699999999998  1.0000
  H   H52       1.0  0.72513  0.94702  0.05677  1.0000
  H   H53       1.0  0.74921  0.036329999999999994  0.85149  1.0000
  H   H54       1.0  0.86232  0.041310000000000006  0.76865  1.0000
  H   H55       1.0  0.28362  0.89411  0.8059  1.0000
  H   H56       1.0  0.17266  0.8871  0.8886399999999999  1.0000
  H   H57       1.0  0.90312  0.71111  0.95843  1.0000
  H   H58       1.0  0.90936  0.8741499999999998  0.09511999999999998  1.0000
  H   H59       1.0  0.9908799999999999  0.58409  0.99975  1.0000
  H   H60       1.0  2.0000000000000185e-05  0.74586  0.13607  1.0000
  C   C1        1.0  0.52705  0.7564399999999998  0.93232  1.0000
  C   C2        1.0  0.42279  0.74461  0.97141  1.0000
  C   C3        1.0  0.33867  0.81529  0.9947799999999998  1.0000
  C   C4        1.0  0.354  0.9002299999999998  0.97938  1.0000
  C   C5        1.0  0.4556999999999999  0.91044  0.93909  1.0000
  C   C6        1.0  0.5416799999999999  0.8398399999999998  0.91596  1.0000
  C   C7        1.0  0.2622299999999999  0.9745399999999997  0.00363  1.0000
  C   C8        1.0  0.20236  0.9719  0.05112  1.0000
  C   C9        1.0  0.11154  0.04125999999999999  0.07421999999999998  1.0000
  C   C10       1.0  0.08057  0.11502  0.04904  1.0000
  C   C11       1.0  0.13975  0.12052999999999997  0.0019199999999999998  1.0000
  C   C12       1.0  0.23064  0.05011999999999994  0.97987  1.0000
  C   C13       1.0  0.04717  0.03848  0.12363999999999999  1.0000
  C   C14       1.0  0.13295  0.9942299999999997  0.15793  1.0000
  C   C15       1.0  0.0708  0.99117  0.20433  1.0000
  C   C16       1.0  0.9198899999999998  0.031109999999999995  0.21746  1.0000
  C   C17       1.0  0.83289  0.07487  0.18353  1.0000
  C   C18       1.0  0.8965999999999997  0.07916999999999998  0.13738  1.0000
  C   C19       1.0  0.09841  0.19761999999999993  0.9765  1.0000
  C   C20       1.0  0.07482  0.28034  0.00272  1.0000
  C   C21       1.0  0.07453  0.18918999999999994  0.92596  1.0000
  C   C22       1.0  0.02571  0.35224999999999995  0.97955  1.0000
  C   C23       1.0  0.99672  0.34246  0.9295199999999998  1.0000
  C   C24       1.0  0.02289  0.26069  0.90274  1.0000
  C   C25       1.0  0.93101  0.41757  0.9055199999999999  1.0000
  C   C26       1.0  0.85608  0.029109999999999987  0.26771  1.0000
  C   C27       1.0  0.61771  0.67919  0.9084599999999998  1.0000
  C   C28       1.0  0.97725  0.25531  0.43323  1.0000
  C   C29       1.0  0.08172999999999997  0.24425  0.47251  1.0000
  C   C30       1.0  0.16469  0.31579  0.4954899999999999  1.0000
  C   C31       1.0  0.14843  0.40034999999999993  0.47959  1.0000
  C   C32       1.0  0.04687  0.4094299999999999  0.43907  1.0000
  C   C33       1.0  0.9618399999999998  0.33822  0.41635999999999995  1.0000
  C   C34       1.0  0.23837  0.4754299999999999  0.50384  1.0000
  C   C35       1.0  0.29764  0.47286000000000006  0.55147  1.0000
  C   C36       1.0  0.38783  0.54215  0.5749  1.0000
  C   C37       1.0  0.41745  0.6162099999999998  0.55003  1.0000
  C   C38       1.0  0.35931999999999986  0.62165  0.50268  1.0000
  C   C39       1.0  0.26954  0.55098  0.48019999999999996  1.0000
  C   C40       1.0  0.45276  0.5385199999999999  0.6242599999999999  1.0000
  C   C41       1.0  0.36770999999999987  0.49395999999999984  0.6584099999999999  1.0000
  C   C42       1.0  0.43128  0.48983  0.7046699999999998  1.0000
  C   C43       1.0  0.58277  0.5293299999999997  0.71767  1.0000
  C   C44       1.0  0.66877  0.57343  0.68386  1.0000
  C   C45       1.0  0.60378  0.57866  0.6379  1.0000
  C   C46       1.0  0.40225  0.6986199999999999  0.47743999999999986  1.0000
  C   C47       1.0  0.42765  0.7813999999999998  0.50366  1.0000
  C   C48       1.0  0.42664  0.68985  0.42694  1.0000
  C   C49       1.0  0.47847  0.85293  0.48048  1.0000
  C   C50       1.0  0.50797  0.8427299999999998  0.43047999999999986  1.0000
  C   C51       1.0  0.4804499999999999  0.76078  0.4037699999999999  1.0000
  C   C52       1.0  0.57563  0.9165099999999999  0.40582  1.0000
  C   C53       1.0  0.64884  0.52702  0.7677  1.0000
  C   C54       1.0  0.88478  0.17881  0.40932999999999997  1.0000
  C   C55       1.0  0.02277  0.7446999999999998  0.56677  1.0000
  C   C56       1.0  0.91828  0.75575  0.52749  1.0000
  C   C57       1.0  0.83533  0.68422  0.50451  1.0000
  C   C58       1.0  0.85159  0.59966  0.5204  1.0000
  C   C59       1.0  0.9531499999999998  0.59058  0.56093  1.0000
  C   C60       1.0  0.03818  0.6617799999999998  0.58364  1.0000
  C   C61       1.0  0.76164  0.5245699999999998  0.49615999999999993  1.0000
  C   C62       1.0  0.70237  0.52715  0.44852  1.0000
  C   C63       1.0  0.61218  0.45786  0.42509  1.0000
  C   C64       1.0  0.58256  0.38379999999999986  0.44996999999999987  1.0000
  C   C65       1.0  0.6407  0.37834999999999996  0.49730999999999986  1.0000
  C   C66       1.0  0.73048  0.44903000000000004  0.5198  1.0000
  C   C67       1.0  0.54725  0.46149  0.37574  1.0000
  C   C68       1.0  0.6323  0.50605  0.34159  1.0000
  C   C69       1.0  0.56874  0.51017  0.2953299999999999  1.0000
  C   C70       1.0  0.41724  0.4706799999999999  0.28232  1.0000
  C   C71       1.0  0.33124  0.42657999999999996  0.31614  1.0000
  C   C72       1.0  0.39623  0.4213499999999999  0.36209  1.0000
  C   C73       1.0  0.59776  0.30139  0.52256  1.0000
  C   C74       1.0  0.57236  0.21861  0.4963299999999999  1.0000
  C   C75       1.0  0.57337  0.31015  0.57306  1.0000
  C   C76       1.0  0.52154  0.14707  0.51952  1.0000
  C   C77       1.0  0.49204  0.15726999999999994  0.56951  1.0000
  C   C78       1.0  0.51956  0.23922999999999994  0.59623  1.0000
  C   C79       1.0  0.42437999999999987  0.08349  0.59417  1.0000
  C   C80       1.0  0.3511799999999999  0.4729899999999999  0.23229  1.0000
  C   C81       1.0  0.11524  0.8211999999999999  0.59067  1.0000
  C   C82       1.0  0.4729599999999999  0.24355999999999994  0.06768  1.0000
  C   C83       1.0  0.57723  0.25539  0.02859  1.0000
  C   C84       1.0  0.66134  0.18472  0.00522  1.0000
  C   C85       1.0  0.6460099999999998  0.09977  0.02062  1.0000
  C   C86       1.0  0.54432  0.08957  0.06091  1.0000
  C   C87       1.0  0.45833  0.16016  0.08403  1.0000
  C   C88       1.0  0.73778  0.025459999999999986  0.99637  1.0000
  C   C89       1.0  0.79766  0.02811000000000002  0.94888  1.0000
  C   C90       1.0  0.88848  0.95874  0.9257699999999999  1.0000
  C   C91       1.0  0.9194499999999998  0.8849799999999998  0.9509599999999998  1.0000
  C   C92       1.0  0.86026  0.87948  0.9980799999999999  1.0000
  C   C93       1.0  0.76937  0.9498899999999999  0.02013  1.0000
  C   C94       1.0  0.9528499999999998  0.96152  0.87636  1.0000
  C   C95       1.0  0.86706  0.005779999999999994  0.8420599999999999  1.0000
  C   C96       1.0  0.92921  0.008840000000000004  0.79566  1.0000
  C   C97       1.0  0.08012  0.96889  0.78253  1.0000
  C   C98       1.0  0.16712  0.9251399999999996  0.81647  1.0000
  C   C99       1.0  0.10341  0.9208399999999998  0.86262  1.0000
  C   C100      1.0  0.90161  0.80239  0.023499999999999997  1.0000
  C   C101      1.0  0.9252  0.7196699999999999  0.9972699999999998  1.0000
  C   C102      1.0  0.92548  0.81082  0.07404  1.0000
  C   C103      1.0  0.97431  0.64776  0.020449999999999992  1.0000
  C   C104      1.0  0.0033  0.65755  0.07048  1.0000
  C   C105      1.0  0.97713  0.7393199999999998  0.09726  1.0000
  C   C106      1.0  0.069  0.58244  0.09447  1.0000
  C   C107      1.0  0.14393  0.9708999999999998  0.73228  1.0000
  C   C108      1.0  0.38231  0.3208199999999999  0.09154  1.0000
  O   O1        1.0  0.74562  0.6925899999999998  0.88342  1.0000
  O   O2        1.0  0.56401  0.60305  0.914  1.0000
  O   O3        1.0  0.9440999999999998  0.99592  0.29908  1.0000
  O   O4        1.0  0.71413  0.062269999999999985  0.27843  1.0000
  O   O5        1.0  0.87828  0.40321999999999997  0.8618299999999998  1.0000
  O   O6        1.0  0.92144  0.4938499999999999  0.92845  1.0000
  O   O7        1.0  0.75478  0.19276  0.38525  1.0000
  O   O8        1.0  0.93836  0.10201999999999999  0.41371  1.0000
  O   O9        1.0  0.56279  0.4938  0.79932  1.0000
  O   O10       1.0  0.7910699999999998  0.56032  0.7780599999999999  1.0000
  O   O11       1.0  0.64346  0.8978700000000001  0.36434  1.0000
  O   O12       1.0  0.57093  0.99526  0.4258099999999999  1.0000
  O   O13       1.0  0.24522999999999998  0.80724  0.61475  1.0000
  O   O14       1.0  0.06166  0.8979899999999997  0.58628  1.0000
  O   O15       1.0  0.43722999999999995  0.50621  0.20068  1.0000
  O   O16       1.0  0.20895  0.43968  0.22194  1.0000
  O   O17       1.0  0.35656  0.10213  0.63566  1.0000
  O   O18       1.0  0.42908  0.004740000000000005  0.57418  1.0000
  O   O19       1.0  0.2543999999999999  0.30743  0.11658999999999999  1.0000
  O   O20       1.0  0.43601  0.3969599999999999  0.08599999999999998  1.0000
  O   O21       1.0  0.05592  0.004089999999999967  0.7009199999999999  1.0000
  O   O22       1.0  0.28588  0.93773  0.72157  1.0000
  O   O23       1.0  0.12173  0.59679  0.13816  1.0000
  O   O24       1.0  0.07858  0.50616  0.07154  1.0000
