data_image0
_chemical_formula_structural       Cu12H24C72O48
_chemical_formula_sum              "Cu12 H24 C72 O48"
_cell_length_a       18.74879
_cell_length_b       18.75212
_cell_length_c       18.75221
_cell_angle_alpha    60.100930000000005
_cell_angle_beta     60.079179999999994
_cell_angle_gamma    60.07901999999999

_symmetry_space_group_name_H-M    'P 1'
_symmetry_Int_Tables_number       1

loop_
  _symmetry_equiv_pos_as_xyz
  'x,y,z'

loop_
  _atom_site_type_symbol
  _atom_site_label
  _atom_site_symmetry_multiplicity
  _atom_site_fract_x
  _atom_site_fract_y
  _atom_site_fract_z
  _atom_site_occupancy
  Cu  Cu1       1.0  0.5651999999999999  0.9999200000000003  0.43492000000000003  1.0000
  Cu  Cu2       1.0  0.99997  0.43487999999999993  0.9998600000000001  1.0000
  Cu  Cu3       1.0  0.4348000000000001  7.000000000000635e-05  0.56508  1.0000
  Cu  Cu4       1.0  2.999999999998306e-05  0.56512  0.00013  1.0000
  Cu  Cu5       1.0  0.0  0.4348599999999999  0.5651400000000002  1.0000
  Cu  Cu6       1.0  0.43479000000000007  0.9999899999999998  0.99999  1.0000
  Cu  Cu7       1.0  0.0  0.56514  0.43486  1.0000
  Cu  Cu8       1.0  0.56521  1.0000000000000003e-05  1e-05  1.0000
  Cu  Cu9       1.0  0.4348000000000001  0.56508  7.000000000000002e-05  1.0000
  Cu  Cu10      1.0  0.9999700000000002  0.9998599999999999  0.4348800000000001  1.0000
  Cu  Cu11      1.0  0.5652000000000001  0.4349199999999999  0.9999300000000001  1.0000
  Cu  Cu12      1.0  2.9999999999907396e-05  0.00012999999999992981  0.5651200000000002  1.0000
  H   H1        1.0  0.73392  0.73374  0.50439  1.0000
  H   H2        1.0  0.027819999999999828  0.50421  0.7333600000000002  1.0000
  H   H3        1.0  0.50412  0.02781000000000001  0.73357  1.0000
  H   H4        1.0  0.7338299999999999  0.73395  0.02794  1.0000
  H   H5        1.0  0.73393  0.50439  0.73374  1.0000
  H   H6        1.0  0.5041200000000001  0.73358  0.02781  1.0000
  H   H7        1.0  0.02781999999999997  0.73336  0.50421  1.0000
  H   H8        1.0  0.7338299999999999  0.027939999999999993  0.73394  1.0000
  H   H9        1.0  0.5042099999999998  0.73391  0.73391  1.0000
  H   H10       1.0  0.73349  0.02779999999999998  0.50427  1.0000
  H   H11       1.0  0.73349  0.50427  0.02781  1.0000
  H   H12       1.0  0.02795999999999994  0.7338600000000001  0.73386  1.0000
  H   H13       1.0  0.9721799999999999  0.26664  0.49579  1.0000
  H   H14       1.0  0.26607000000000003  0.49561  0.2662600000000001  1.0000
  H   H15       1.0  0.26616999999999985  0.97206  0.26606  1.0000
  H   H16       1.0  0.4958799999999999  0.26642000000000005  0.97219  1.0000
  H   H17       1.0  0.9721800000000002  0.49579  0.26664  1.0000
  H   H18       1.0  0.26617  0.26605  0.9720500000000002  1.0000
  H   H19       1.0  0.2660799999999998  0.26626  0.4956100000000001  1.0000
  H   H20       1.0  0.4958799999999999  0.9721899999999999  0.2664200000000001  1.0000
  H   H21       1.0  0.97204  0.26613  0.26613  1.0000
  H   H22       1.0  0.26651000000000014  0.9721899999999999  0.49573  1.0000
  H   H23       1.0  0.2665099999999999  0.4957300000000001  0.97219  1.0000
  H   H24       1.0  0.49579  0.26608999999999994  0.2660900000000001  1.0000
  C   C1        1.0  0.61371  0.74295  0.61381  1.0000
  C   C2        1.0  0.5696199999999999  0.8364799999999998  0.5696900000000003  1.0000
  C   C3        1.0  0.029489999999999975  0.6136700000000002  0.74291  1.0000
  C   C4        1.0  0.02409999999999994  0.5695899999999999  0.8365300000000002  1.0000
  C   C5        1.0  0.61362  0.029379999999999986  0.61374  1.0000
  C   C6        1.0  0.5694899999999999  0.02399999999999999  0.56961  1.0000
  C   C7        1.0  0.7429  0.61374  0.02949  1.0000
  C   C8        1.0  0.83655  0.56977  0.02409  1.0000
  C   C9        1.0  0.7429099999999998  0.61376  0.61376  1.0000
  C   C10       1.0  0.8364899999999998  0.56964  0.56965  1.0000
  C   C11       1.0  0.6135999999999999  0.74299  0.029530000000000004  1.0000
  C   C12       1.0  0.5696300000000001  0.83662  0.024080000000000008  1.0000
  C   C13       1.0  0.029459999999999945  0.61363  0.6136300000000001  1.0000
  C   C14       1.0  0.024070000000000005  0.56949  0.56949  1.0000
  C   C15       1.0  0.6135999999999999  0.029519999999999946  0.7429900000000003  1.0000
  C   C16       1.0  0.56963  0.024079999999999997  0.83662  1.0000
  C   C17       1.0  0.61371  0.6138099999999999  0.7429500000000002  1.0000
  C   C18       1.0  0.5696199999999997  0.56968  0.8364800000000002  1.0000
  C   C19       1.0  0.7429000000000001  0.02949  0.61374  1.0000
  C   C20       1.0  0.8365499999999999  0.02409  0.56977  1.0000
  C   C21       1.0  0.61362  0.61374  0.029380000000000007  1.0000
  C   C22       1.0  0.5694899999999999  0.56961  0.024000000000000007  1.0000
  C   C23       1.0  0.029489999999999926  0.74291  0.61367  1.0000
  C   C24       1.0  0.02409999999999994  0.83653  0.56959  1.0000
  C   C25       1.0  0.97051  0.25709  0.38633  1.0000
  C   C26       1.0  0.9759  0.16347000000000003  0.43041  1.0000
  C   C27       1.0  0.38628999999999997  0.38619  0.25705  1.0000
  C   C28       1.0  0.4303799999999997  0.43031  0.16352000000000005  1.0000
  C   C29       1.0  0.2570999999999999  0.9705100000000001  0.38626  1.0000
  C   C30       1.0  0.16345000000000007  0.9759099999999999  0.43023  1.0000
  C   C31       1.0  0.3863799999999997  0.38626000000000005  0.97061  1.0000
  C   C32       1.0  0.4305099999999999  0.4303799999999999  0.9760000000000002  1.0000
  C   C33       1.0  0.9705499999999999  0.38637000000000005  0.38637  1.0000
  C   C34       1.0  0.97593  0.43050999999999995  0.43051  1.0000
  C   C35       1.0  0.3863999999999999  0.2570099999999999  0.9704700000000003  1.0000
  C   C36       1.0  0.43038  0.1633699999999999  0.9759200000000002  1.0000
  C   C37       1.0  0.25709  0.38623999999999997  0.38624000000000014  1.0000
  C   C38       1.0  0.16351000000000004  0.43035  0.43036  1.0000
  C   C39       1.0  0.3864  0.97048  0.25701  1.0000
  C   C40       1.0  0.43037  0.97592  0.16338000000000005  1.0000
  C   C41       1.0  0.97051  0.38633  0.25709  1.0000
  C   C42       1.0  0.9759  0.43041  0.16347  1.0000
  C   C43       1.0  0.3863800000000002  0.9706200000000001  0.38626  1.0000
  C   C44       1.0  0.4305099999999999  0.9759999999999999  0.4303900000000001  1.0000
  C   C45       1.0  0.2571  0.38626  0.97051  1.0000
  C   C46       1.0  0.16344999999999998  0.43023  0.97591  1.0000
  C   C47       1.0  0.38629999999999975  0.25705  0.3861900000000001  1.0000
  C   C48       1.0  0.43038  0.16352  0.43031  1.0000
  C   C49       1.0  0.6998600000000003  0.69986  0.57065  1.0000
  C   C50       1.0  0.029540000000000042  0.57047  0.69973  1.0000
  C   C51       1.0  0.5704199999999998  0.02953000000000003  0.69987  1.0000
  C   C52       1.0  0.69978  0.69992  0.029630000000000007  1.0000
  C   C53       1.0  0.6998600000000003  0.5706499999999999  0.6998600000000003  1.0000
  C   C54       1.0  0.57041  0.69987  0.029530000000000004  1.0000
  C   C55       1.0  0.02954000000000009  0.69973  0.57048  1.0000
  C   C56       1.0  0.69979  0.029629999999999955  0.6999100000000003  1.0000
  C   C57       1.0  0.57053  0.69993  0.69993  1.0000
  C   C58       1.0  0.69976  0.029499999999999915  0.5705900000000003  1.0000
  C   C59       1.0  0.6997599999999999  0.57059  0.0295  1.0000
  C   C60       1.0  0.029609999999999956  0.69982  0.6998200000000001  1.0000
  C   C61       1.0  0.97046  0.30027  0.42952  1.0000
  C   C62       1.0  0.3001400000000001  0.42934999999999995  0.30014  1.0000
  C   C63       1.0  0.30022  0.9703699999999998  0.30008  1.0000
  C   C64       1.0  0.42958999999999986  0.30011999999999994  0.9704700000000003  1.0000
  C   C65       1.0  0.97046  0.42951999999999996  0.3002700000000001  1.0000
  C   C66       1.0  0.30022  0.3000799999999999  0.9703700000000002  1.0000
  C   C67       1.0  0.30015  0.30014  0.42935  1.0000
  C   C68       1.0  0.4295900000000001  0.97047  0.30013  1.0000
  C   C69       1.0  0.9703900000000001  0.30018  0.30018  1.0000
  C   C70       1.0  0.30023999999999995  0.9705  0.42941  1.0000
  C   C71       1.0  0.30023999999999995  0.4294099999999999  0.9705000000000003  1.0000
  C   C72       1.0  0.42947  0.30006999999999995  0.30007  1.0000
  O   O1        1.0  0.6137500000000001  0.87304  0.4921600000000001  1.0000
  O   O2        1.0  0.02125999999999998  0.49189  0.87301  1.0000
  O   O3        1.0  0.49186  0.021019999999999938  0.6135500000000003  1.0000
  O   O4        1.0  0.8732600000000001  0.61392  0.020840000000000008  1.0000
  O   O5        1.0  0.87309  0.49208999999999997  0.61364  1.0000
  O   O6        1.0  0.4918799999999998  0.87321  0.02131  1.0000
  O   O7        1.0  0.021050000000000003  0.61349  0.49191  1.0000
  O   O8        1.0  0.61388  0.020709999999999913  0.8733100000000003  1.0000
  O   O9        1.0  0.49196  0.61358  0.8731200000000002  1.0000
  O   O10       1.0  0.87314  0.021259999999999963  0.4920500000000001  1.0000
  O   O11       1.0  0.61357  0.49202  0.02095  1.0000
  O   O12       1.0  0.020879999999999864  0.8733199999999999  0.6136500000000003  1.0000
  O   O13       1.0  0.97874  0.12698  0.5081  1.0000
  O   O14       1.0  0.3862499999999999  0.50784  0.12696  1.0000
  O   O15       1.0  0.12673999999999988  0.97916  0.3860800000000001  1.0000
  O   O16       1.0  0.5081399999999999  0.38645  0.97898  1.0000
  O   O17       1.0  0.97895  0.50809  0.38651  1.0000
  O   O18       1.0  0.38612999999999986  0.1266899999999999  0.9792800000000003  1.0000
  O   O19       1.0  0.12692  0.3863500000000001  0.50791  1.0000
  O   O20       1.0  0.5081200000000001  0.9786899999999998  0.12679  1.0000
  O   O21       1.0  0.9791199999999999  0.38635  0.12668000000000001  1.0000
  O   O22       1.0  0.3864299999999999  0.97905  0.50798  1.0000
  O   O23       1.0  0.12685999999999986  0.50795  0.9787400000000003  1.0000
  O   O24       1.0  0.5080399999999999  0.12687999999999997  0.3864200000000001  1.0000
  O   O25       1.0  0.38625  0.12696000000000002  0.50784  1.0000
  O   O26       1.0  0.97874  0.50811  0.12698  1.0000
  O   O27       1.0  0.5081399999999999  0.9789800000000001  0.38645  1.0000
  O   O28       1.0  0.12673999999999988  0.3860799999999999  0.9791600000000003  1.0000
  O   O29       1.0  0.12690999999999986  0.50791  0.3863600000000001  1.0000
  O   O30       1.0  0.5081299999999999  0.12677999999999992  0.9786900000000002  1.0000
  O   O31       1.0  0.9789600000000002  0.38651  0.50808  1.0000
  O   O32       1.0  0.38611999999999996  0.9792900000000001  0.12669  1.0000
  O   O33       1.0  0.5080399999999996  0.38642  0.12688  1.0000
  O   O34       1.0  0.12686  0.9787399999999999  0.50795  1.0000
  O   O35       1.0  0.38642999999999994  0.50798  0.97905  1.0000
  O   O36       1.0  0.97912  0.12666999999999998  0.38635000000000014  1.0000
  O   O37       1.0  0.02125999999999993  0.8730200000000001  0.4918900000000001  1.0000
  O   O38       1.0  0.61375  0.4921499999999999  0.87303  1.0000
  O   O39       1.0  0.8732600000000001  0.020839999999999925  0.6139200000000002  1.0000
  O   O40       1.0  0.49186  0.61355  0.021020000000000007  1.0000
  O   O41       1.0  0.021049999999999958  0.49192  0.61349  1.0000
  O   O42       1.0  0.6138699999999999  0.87331  0.02072  1.0000
  O   O43       1.0  0.87309  0.61364  0.49209  1.0000
  O   O44       1.0  0.4918799999999998  0.02129999999999991  0.8732100000000003  1.0000
  O   O45       1.0  0.020879999999999958  0.61365  0.87332  1.0000
  O   O46       1.0  0.61357  0.020950000000000014  0.49202  1.0000
  O   O47       1.0  0.87314  0.49204999999999993  0.02126  1.0000
  O   O48       1.0  0.49196  0.87312  0.6135800000000002  1.0000
