data_image0
_chemical_formula_structural       Eu4H44C84O24
_chemical_formula_sum              "Eu4 H44 C84 O24"
_cell_length_a       13.97903
_cell_length_b       14.21388
_cell_length_c       17.95662
_cell_angle_alpha    99.66324000000002
_cell_angle_beta     112.59629
_cell_angle_gamma    90.1317

_symmetry_space_group_name_H-M    'P 1'
_symmetry_Int_Tables_number       1

loop_
  _symmetry_equiv_pos_as_xyz
  'x,y,z'

loop_
  _atom_site_type_symbol
  _atom_site_label
  _atom_site_symmetry_multiplicity
  _atom_site_fract_x
  _atom_site_fract_y
  _atom_site_fract_z
  _atom_site_occupancy
  Eu  Eu1       1.0  0.9024099999999998  0.46386  0.3894499999999999  1.0000
  Eu  Eu2       1.0  0.51149  0.03472999999999999  0.611  1.0000
  Eu  Eu3       1.0  0.0977  0.53554  0.61025  1.0000
  Eu  Eu4       1.0  0.4888  0.9656399999999998  0.38884  1.0000
  H   H1        1.0  0.01854999999999999  0.5605199999999999  0.18704  1.0000
  H   H2        1.0  0.99657  0.62022  0.05978999999999999  1.0000
  H   H3        1.0  0.66308  0.5829499999999999  0.98214  1.0000
  H   H4        1.0  0.6876799999999997  0.5284799999999998  0.11225  1.0000
  H   H5        1.0  0.96454  0.59321  0.93401  1.0000
  H   H6        1.0  0.93706  0.62753  0.7989099999999998  1.0000
  H   H7        1.0  0.6268599999999999  0.7064999999999998  0.76768  1.0000
  H   H8        1.0  0.65717  0.6770799999999998  0.9048999999999998  1.0000
  H   H9        1.0  0.8638599999999999  0.5789699999999998  0.6672799999999998  1.0000
  H   H10       1.0  0.6848  0.70293  0.4581199999999999  1.0000
  H   H11       1.0  0.65052  0.7938899999999998  0.6857699999999998  1.0000
  H   H12       1.0  0.83203  0.9403299999999997  0.8128699999999998  1.0000
  H   H13       1.0  0.93736  0.88046  0.9396999999999998  1.0000
  H   H14       1.0  0.68301  0.91603  0.01979  1.0000
  H   H15       1.0  0.57684  0.9704199999999997  0.88971  1.0000
  H   H16       1.0  0.029539999999999993  0.90782  0.06419  1.0000
  H   H17       1.0  0.13847  0.87519  0.19967  1.0000
  H   H18       1.0  0.8617799999999999  0.79556  0.23461  1.0000
  H   H19       1.0  0.7536599999999998  0.8237599999999998  0.09747999999999997  1.0000
  H   H20       1.0  0.19745  0.92297  0.33182  1.0000
  H   H21       1.0  0.22625000000000003  0.7987499999999998  0.54106  1.0000
  H   H22       1.0  0.9646099999999997  0.7087599999999997  0.31398  1.0000
  H   H23       1.0  0.9809299999999997  0.44003  0.81344  1.0000
  H   H24       1.0  0.0033300000000000243  0.37976  0.94052  1.0000
  H   H25       1.0  0.33673  0.4168  0.01763  1.0000
  H   H26       1.0  0.31165999999999994  0.4708099999999999  0.88723  1.0000
  H   H27       1.0  0.03541  0.40666999999999986  0.06596  1.0000
  H   H28       1.0  0.06287999999999998  0.3724799999999999  0.20109  1.0000
  H   H29       1.0  0.3731399999999999  0.29366  0.23247999999999994  1.0000
  H   H30       1.0  0.3428599999999999  0.32299999999999984  0.09524999999999997  1.0000
  H   H31       1.0  0.13596999999999992  0.42088999999999993  0.3328099999999999  1.0000
  H   H32       1.0  0.31606  0.29771  0.54218  1.0000
  H   H33       1.0  0.34965999999999997  0.20643999999999996  0.3142699999999999  1.0000
  H   H34       1.0  0.16822999999999996  0.06037  0.18723  1.0000
  H   H35       1.0  0.06258  0.11969999999999997  0.06019  1.0000
  H   H36       1.0  0.3167  0.08408  0.97985  1.0000
  H   H37       1.0  0.4228299999999999  0.029069999999999985  0.10963999999999997  1.0000
  H   H38       1.0  0.97041  0.09210999999999997  0.93572  1.0000
  H   H39       1.0  0.8615099999999998  0.12447999999999997  0.80011  1.0000
  H   H40       1.0  0.13828000000000004  0.20448999999999995  0.76534  1.0000
  H   H41       1.0  0.24636000000000005  0.17636  0.90257  1.0000
  H   H42       1.0  0.8028299999999998  0.07680000000000001  0.6683  1.0000
  H   H43       1.0  0.77305  0.20197  0.45961999999999986  1.0000
  H   H44       1.0  0.03542999999999998  0.2916499999999999  0.68634  1.0000
  C   C1        1.0  0.8659  0.49316  0.22802  1.0000
  C   C2        1.0  0.8540699999999998  0.53801  0.15575  1.0000
  C   C3        1.0  0.94124  0.5658999999999997  0.14147999999999994  1.0000
  C   C4        1.0  0.92836  0.5986799999999999  0.06976  1.0000
  C   C5        1.0  0.82798  0.6046399999999998  0.009849999999999996  1.0000
  C   C6        1.0  0.7412699999999998  0.5805199999999998  0.027249999999999993  1.0000
  C   C7        1.0  0.7540000000000001  0.5484599999999998  0.09911  1.0000
  C   C8        1.0  0.8129799999999999  0.6313099999999998  0.9307599999999998  1.0000
  C   C9        1.0  0.89115  0.6199799999999998  0.8988  1.0000
  C   C10       1.0  0.8750799999999999  0.6384  0.82157  1.0000
  C   C11       1.0  0.77914  0.6694899999999998  0.77204  1.0000
  C   C12       1.0  0.7017499999999999  0.68344  0.80456  1.0000
  C   C13       1.0  0.71846  0.66528  0.8819199999999998  1.0000
  C   C14       1.0  0.7582899999999997  0.68312  0.6879099999999998  1.0000
  C   C15       1.0  0.8067199999999995  0.6286399999999999  0.6408399999999997  1.0000
  C   C16       1.0  0.7788899999999997  0.63486  0.5584  1.0000
  C   C17       1.0  0.70564  0.6979299999999999  0.52212  1.0000
  C   C18       1.0  0.66089  0.75587  0.56905  1.0000
  C   C19       1.0  0.6862699999999999  0.7474599999999998  0.6508299999999998  1.0000
  C   C20       1.0  0.82327  0.57234  0.5062999999999998  1.0000
  C   C21       1.0  0.58624  0.82718  0.53252  1.0000
  C   C22       1.0  0.63708  0.0049999999999999975  0.77238  1.0000
  C   C23       1.0  0.69889  0.9613699999999997  0.84497  1.0000
  C   C24       1.0  0.80029  0.9345300000000001  0.85871  1.0000
  C   C25       1.0  0.85936  0.9017799999999996  0.93022  1.0000
  C   C26       1.0  0.8190599999999998  0.8952399999999997  0.9905299999999999  1.0000
  C   C27       1.0  0.7154599999999999  0.9189599999999999  0.97404  1.0000
  C   C28       1.0  0.6560999999999997  0.9507999999999999  0.9023799999999997  1.0000
  C   C29       1.0  0.88283  0.8689099999999998  0.06955999999999997  1.0000
  C   C30       1.0  0.99244  0.8809699999999998  0.10044  1.0000
  C   C31       1.0  0.05417  0.8635999999999998  0.17766  1.0000
  C   C32       1.0  0.008389999999999979  0.83245  0.22797999999999993  1.0000
  C   C33       1.0  0.8989599999999999  0.8181499999999998  0.19665  1.0000
  C   C34       1.0  0.8376699999999999  0.8354899999999997  0.11938999999999997  1.0000
  C   C35       1.0  0.07142999999999997  0.81868  0.31182999999999994  1.0000
  C   C36       1.0  0.1668  0.8729299999999998  0.35838  1.0000
  C   C37       1.0  0.22064999999999993  0.8662099999999998  0.4406299999999999  1.0000
  C   C38       1.0  0.18313999999999991  0.8031299999999998  0.4770399999999999  1.0000
  C   C39       1.0  0.09139999999999998  0.7454799999999998  0.43039999999999995  1.0000
  C   C40       1.0  0.035699999999999975  0.7544399999999999  0.34885  1.0000
  C   C41       1.0  0.31689  0.92817  0.4930999999999999  1.0000
  C   C42       1.0  0.05206999999999996  0.6735899999999998  0.4663599999999999  1.0000
  C   C43       1.0  0.13455999999999993  0.50689  0.77194  1.0000
  C   C44       1.0  0.14540000000000003  0.46196  0.84416  1.0000
  C   C45       1.0  0.05836000000000001  0.43445  0.85875  1.0000
  C   C46       1.0  0.07146000000000001  0.4014299999999999  0.93046  1.0000
  C   C47       1.0  0.17189999999999997  0.39529  0.99019  1.0000
  C   C48       1.0  0.25845999999999986  0.41930999999999985  0.9726399999999997  1.0000
  C   C49       1.0  0.24542999999999981  0.4511299999999998  0.9006199999999998  1.0000
  C   C50       1.0  0.187  0.36862  0.06933  1.0000
  C   C51       1.0  0.10883  0.37999  0.10125999999999998  1.0000
  C   C52       1.0  0.12487999999999996  0.3616  0.17848  1.0000
  C   C53       1.0  0.22078999999999993  0.3304899999999999  0.22801  1.0000
  C   C54       1.0  0.2982  0.31662  0.19554  1.0000
  C   C55       1.0  0.28151  0.3347199999999999  0.11817  1.0000
  C   C56       1.0  0.24167999999999995  0.31683  0.31215  1.0000
  C   C57       1.0  0.19319999999999998  0.3712399999999999  0.35915  1.0000
  C   C58       1.0  0.22131999999999993  0.36515  0.4416499999999999  1.0000
  C   C59       1.0  0.2948099999999999  0.30239  0.47807  1.0000
  C   C60       1.0  0.33941999999999994  0.24442999999999995  0.43112  1.0000
  C   C61       1.0  0.31380999999999987  0.2526699999999999  0.3492399999999999  1.0000
  C   C62       1.0  0.17726999999999998  0.42769999999999997  0.49379  1.0000
  C   C63       1.0  0.41421  0.17286  0.46755  1.0000
  C   C64       1.0  0.3628399999999999  0.9948599999999997  0.22708999999999993  1.0000
  C   C65       1.0  0.30116  0.03858  0.15476  1.0000
  C   C66       1.0  0.19984  0.06584  0.14126  1.0000
  C   C67       1.0  0.14061  0.09841  0.0697  1.0000
  C   C68       1.0  0.18084  0.10496999999999998  0.00934  1.0000
  C   C69       1.0  0.28439  0.08111999999999997  0.02566  1.0000
  C   C70       1.0  0.3437  0.04896  0.09714  1.0000
  C   C71       1.0  0.11708999999999996  0.13122  0.93036  1.0000
  C   C72       1.0  0.007480000000000024  0.11898999999999997  0.89947  1.0000
  C   C73       1.0  0.9458199999999999  0.13624999999999993  0.8222399999999997  1.0000
  C   C74       1.0  0.9917599999999999  0.16746999999999992  0.7720899999999998  1.0000
  C   C75       1.0  0.10115999999999988  0.1818599999999999  0.8033399999999998  1.0000
  C   C76       1.0  0.16236000000000006  0.16462  0.8806  1.0000
  C   C77       1.0  0.92874  0.18136  0.68837  1.0000
  C   C78       1.0  0.83337  0.12719  0.64193  1.0000
  C   C79       1.0  0.77926  0.13448  0.55989  1.0000
  C   C80       1.0  0.81661  0.19750999999999994  0.5235  1.0000
  C   C81       1.0  0.9085599999999998  0.2546699999999999  0.5699599999999998  1.0000
  C   C82       1.0  0.9644399999999996  0.24577999999999994  0.65144  1.0000
  C   C83       1.0  0.6825899999999999  0.07356  0.50712  1.0000
  C   C84       1.0  0.94734  0.32559  0.53313  1.0000
  O   O1        1.0  0.9522499999999996  0.45878999999999986  0.266  1.0000
  O   O2        1.0  0.7895799999999997  0.4906299999999999  0.25028  1.0000
  O   O3        1.0  0.54745  0.8751599999999998  0.57923  1.0000
  O   O4        1.0  0.56751  0.83662  0.45897999999999994  1.0000
  O   O5        1.0  0.76982  0.5476799999999998  0.4302299999999999  1.0000
  O   O6        1.0  0.9151899999999998  0.5443499999999999  0.54019  1.0000
  O   O7        1.0  0.6846399999999999  0.03875000000000003  0.73309  1.0000
  O   O8        1.0  0.53893  0.006609999999999977  0.75182  1.0000
  O   O9        1.0  0.96794  0.62468  0.41915  1.0000
  O   O10       1.0  0.10556999999999998  0.6654499999999998  0.54054  1.0000
  O   O11       1.0  0.3376999999999998  0.95293  0.5689899999999998  1.0000
  O   O12       1.0  0.37700999999999996  0.9546700000000001  0.45974  1.0000
  O   O13       1.0  0.04989999999999987  0.54434  0.7352499999999997  1.0000
  O   O14       1.0  0.21030000000000004  0.50547  0.74875  1.0000
  O   O15       1.0  0.45255999999999996  0.12524999999999994  0.4206399999999999  1.0000
  O   O16       1.0  0.43296  0.16334  0.54119  1.0000
  O   O17       1.0  0.23096  0.45252  0.56983  1.0000
  O   O18       1.0  0.08522000000000003  0.45561000000000007  0.45989  1.0000
  O   O19       1.0  0.31578999999999996  0.9608699999999999  0.2665099999999999  1.0000
  O   O20       1.0  0.46118000000000003  0.99342  0.24796  1.0000
  O   O21       1.0  0.031269999999999944  0.3753699999999999  0.57983  1.0000
  O   O22       1.0  0.89419  0.33289999999999986  0.4588799999999999  1.0000
  O   O23       1.0  0.66109  0.0515  0.43078  1.0000
  O   O24       1.0  0.6231699999999999  0.044969999999999975  0.53992  1.0000
