data_image0
_chemical_formula_structural       Cd6H58C96N4O32
_chemical_formula_sum              "Cd6 H58 C96 N4 O32"
_cell_length_a       15.11496
_cell_length_b       16.07406
_cell_length_c       15.66133
_cell_angle_alpha    92.90028
_cell_angle_beta     117.22353
_cell_angle_gamma    107.13355000000001

_space_group_name_H-M_alt    "P 1"
_space_group_IT_number       1

loop_
  _space_group_symop_operation_xyz
  'x, y, z'

loop_
  _atom_site_type_symbol
  _atom_site_label
  _atom_site_symmetry_multiplicity
  _atom_site_fract_x
  _atom_site_fract_y
  _atom_site_fract_z
  _atom_site_occupancy
  Cd  Cd1       1.0  0.62295  0.77586  0.7812799999999998  1.0000
  Cd  Cd2       1.0  0.79081  0.75579  0.07465999999999999  1.0000
  Cd  Cd3       1.0  0.7238699999999998  0.59261  0.8373799999999998  1.0000
  Cd  Cd4       1.0  0.3770399999999999  0.22414  0.21872  1.0000
  Cd  Cd5       1.0  0.20918000000000003  0.24420999999999995  0.92533  1.0000
  Cd  Cd6       1.0  0.27612  0.40739  0.16261999999999996  1.0000
  H   H1        1.0  0.09562999999999987  0.8465899999999997  0.40545  1.0000
  H   H2        1.0  0.18978000000000003  0.9009600000000001  0.58793  1.0000
  H   H3        1.0  0.9006099999999998  0.9143499999999999  0.5673199999999999  1.0000
  H   H4        1.0  0.80912  0.86593  0.3844599999999999  1.0000
  H   H5        1.0  0.18823999999999994  0.93921  0.7326199999999999  1.0000
  H   H6        1.0  0.10564999999999992  0.0008199999999999531  0.7234499999999998  1.0000
  H   H7        1.0  0.95586  0.75687  0.6196599999999998  1.0000
  H   H8        1.0  0.9828899999999996  0.7334099999999999  0.7362399999999998  1.0000
  H   H9        1.0  0.04225999999999983  0.7059699999999998  0.5517899999999999  1.0000
  H   H10       1.0  0.20821999999999988  0.6904499999999999  0.5637399999999998  1.0000
  H   H11       1.0  0.37618000000000007  0.7973400000000002  0.87389  1.0000
  H   H12       1.0  0.20942000000000002  0.8054  0.86475  1.0000
  H   H13       1.0  0.91547  0.7769100000000001  0.79977  1.0000
  H   H14       1.0  0.07398999999999989  0.95787  0.07875  1.0000
  H   H15       1.0  0.18041999999999994  0.02437999999999999  0.87137  1.0000
  H   H16       1.0  0.59646  0.50819  0.58954  1.0000
  H   H17       1.0  0.6393399999999998  0.4290499999999999  0.48126999999999986  1.0000
  H   H18       1.0  0.7956500000000001  0.68121  0.43726  1.0000
  H   H19       1.0  0.74372  0.7586799999999998  0.53973  1.0000
  H   H20       1.0  0.84468  0.49636  0.48182  1.0000
  H   H21       1.0  0.7179999999999999  0.4269799999999998  0.3890699999999999  1.0000
  H   H22       1.0  0.9555699999999998  0.5832999999999998  0.45529999999999987  1.0000
  H   H23       1.0  0.8481899999999998  0.4141199999999999  0.23124  1.0000
  H   H24       1.0  0.96778  0.3818  0.17718  1.0000
  H   H25       1.0  0.2173299999999999  0.6297799999999999  0.35772999999999994  1.0000
  H   H26       1.0  0.09965999999999993  0.66456  0.4148599999999999  1.0000
  H   H27       1.0  0.82859  0.59112  0.19725  1.0000
  H   H28       1.0  0.5266599999999998  0.41357  0.9619199999999998  1.0000
  H   H29       1.0  0.5936899999999999  0.41844  0.25949999999999995  1.0000
  H   H30       1.0  0.9043599999999997  0.15342  0.59454  1.0000
  H   H31       1.0  0.81021  0.09903999999999999  0.41206999999999994  1.0000
  H   H32       1.0  0.09938  0.08564999999999998  0.43268  1.0000
  H   H33       1.0  0.19086999999999985  0.13406999999999988  0.6155299999999998  1.0000
  H   H34       1.0  0.81175  0.06078999999999999  0.26737999999999995  1.0000
  H   H35       1.0  0.8943399999999999  0.9991899999999999  0.27655  1.0000
  H   H36       1.0  0.04413  0.24313  0.38034  1.0000
  H   H37       1.0  0.017099999999999924  0.2665899999999999  0.26376  1.0000
  H   H38       1.0  0.9577299999999999  0.29403  0.44821  1.0000
  H   H39       1.0  0.79177  0.30955  0.43625999999999987  1.0000
  H   H40       1.0  0.62381  0.20266  0.12611  1.0000
  H   H41       1.0  0.7905699999999998  0.1946  0.13525  1.0000
  H   H42       1.0  0.08451999999999993  0.22309  0.20022999999999994  1.0000
  H   H43       1.0  0.9259999999999999  0.042129999999999945  0.9212499999999998  1.0000
  H   H44       1.0  0.8195699999999998  0.97562  0.12862  1.0000
  H   H45       1.0  0.40353  0.4918099999999999  0.41045  1.0000
  H   H46       1.0  0.36065  0.57095  0.51873  1.0000
  H   H47       1.0  0.20433999999999983  0.31879  0.5627399999999998  1.0000
  H   H48       1.0  0.2562699999999999  0.24131999999999992  0.4602599999999999  1.0000
  H   H49       1.0  0.15530999999999995  0.50364  0.5181799999999999  1.0000
  H   H50       1.0  0.2819999999999998  0.5730199999999998  0.61093  1.0000
  H   H51       1.0  0.04443000000000002  0.4167  0.5447  1.0000
  H   H52       1.0  0.15179999999999985  0.5858799999999998  0.7687599999999998  1.0000
  H   H53       1.0  0.03221999999999987  0.6181999999999997  0.82282  1.0000
  H   H54       1.0  0.7826599999999998  0.37022  0.64227  1.0000
  H   H55       1.0  0.90033  0.33544  0.58514  1.0000
  H   H56       1.0  0.17139999999999989  0.40888  0.80275  1.0000
  H   H57       1.0  0.47333000000000003  0.58644  0.03807999999999999  1.0000
  H   H58       1.0  0.4062999999999999  0.58156  0.7404999999999998  1.0000
  C   C1        1.0  0.8900199999999997  0.8165699999999998  0.27555999999999997  1.0000
  C   C2        1.0  0.94632  0.85127  0.38442  1.0000
  C   C3        1.0  0.054139999999999876  0.8625299999999998  0.4415999999999999  1.0000
  C   C4        1.0  0.10626  0.89279  0.54331  1.0000
  C   C5        1.0  0.050699999999999974  0.90935  0.5893799999999999  1.0000
  C   C6        1.0  0.9434399999999997  0.89995  0.5318  1.0000
  C   C7        1.0  0.89192  0.87239  0.42981  1.0000
  C   C8        1.0  0.10474999999999998  0.93477  0.69985  1.0000
  C   C9        1.0  0.017589999999999884  0.7735899999999999  0.6972599999999998  1.0000
  C   C10       1.0  0.11444999999999984  0.7556799999999999  0.7070499999999997  1.0000
  C   C11       1.0  0.11402999999999984  0.7216999999999998  0.6227899999999997  1.0000
  C   C12       1.0  0.2062899999999999  0.7146799999999998  0.6286999999999999  1.0000
  C   C13       1.0  0.3017999999999998  0.7446099999999997  0.7185699999999998  1.0000
  C   C14       1.0  0.30177  0.7753699999999998  0.80414  1.0000
  C   C15       1.0  0.20837000000000003  0.77984  0.79837  1.0000
  C   C16       1.0  0.4032499999999999  0.74754  0.7204399999999997  1.0000
  C   C17       1.0  0.05096999999999991  0.89494  0.8239499999999997  1.0000
  C   C18       1.0  0.97857  0.83851  0.84945  1.0000
  C   C19       1.0  0.984  0.8632599999999999  0.9379299999999998  1.0000
  C   C20       1.0  0.06359999999999999  0.9427  0.005639999999999998  1.0000
  C   C21       1.0  0.1343099999999999  0.9997799999999999  0.9798799999999998  1.0000
  C   C22       1.0  0.12552999999999992  0.9783899999999998  0.8889899999999998  1.0000
  C   C23       1.0  0.9035199999999995  0.8040699999999998  0.9607199999999998  1.0000
  C   C24       1.0  0.22475  0.08086999999999996  0.05418999999999999  1.0000
  C   C25       1.0  0.67032  0.63875  0.57362  1.0000
  C   C26       1.0  0.6388399999999999  0.54554  0.55524  1.0000
  C   C27       1.0  0.66414  0.50151  0.49566  1.0000
  C   C28       1.0  0.7248100000000001  0.5501  0.4563199999999999  1.0000
  C   C29       1.0  0.7517399999999997  0.64291  0.47011  1.0000
  C   C30       1.0  0.72315  0.6866599999999999  0.52749  1.0000
  C   C31       1.0  0.6503699999999996  0.6859099999999999  0.6440499999999998  1.0000
  C   C32       1.0  0.7721099999999997  0.49757  0.41843999999999987  1.0000
  C   C33       1.0  0.9081899999999997  0.55341  0.3767399999999999  1.0000
  C   C34       1.0  0.96646  0.54144  0.32846  1.0000
  C   C35       1.0  0.9280499999999999  0.46211999999999986  0.2586  1.0000
  C   C36       1.0  0.99475  0.44335  0.22892999999999994  1.0000
  C   C37       1.0  0.09951999999999997  0.50286  0.26546999999999993  1.0000
  C   C38       1.0  0.13673999999999994  0.5834899999999997  0.3316  1.0000
  C   C39       1.0  0.07135999999999997  0.60209  0.3637899999999999  1.0000
  C   C40       1.0  0.17086  0.47789  0.23472999999999994  1.0000
  C   C41       1.0  0.7249599999999999  0.50118  0.24119  1.0000
  C   C42       1.0  0.75285  0.53789  0.17337  1.0000
  C   C43       1.0  0.6822  0.50487  0.07286  1.0000
  C   C44       1.0  0.58136  0.4402099999999999  0.04022  1.0000
  C   C45       1.0  0.54927  0.4129599999999999  0.10806  1.0000
  C   C46       1.0  0.6210899999999998  0.44271  0.20912999999999995  1.0000
  C   C47       1.0  0.4364099999999999  0.35299999999999987  0.07197  1.0000
  C   C48       1.0  0.7120299999999997  0.5391299999999999  0.9986499999999999  1.0000
  C   C49       1.0  0.10996999999999983  0.18342999999999998  0.7244399999999998  1.0000
  C   C50       1.0  0.05366999999999996  0.14873  0.61558  1.0000
  C   C51       1.0  0.9458499999999999  0.13747  0.5584  1.0000
  C   C52       1.0  0.8937299999999997  0.10720999999999997  0.45667999999999986  1.0000
  C   C53       1.0  0.9492899999999999  0.09064999999999994  0.4106199999999999  1.0000
  C   C54       1.0  0.056549999999999934  0.10004999999999997  0.4681999999999999  1.0000
  C   C55       1.0  0.10807000000000001  0.12761  0.57018  1.0000
  C   C56       1.0  0.89525  0.06523  0.30015  1.0000
  C   C57       1.0  0.9824  0.22641  0.30273  1.0000
  C   C58       1.0  0.88554  0.24432  0.29294  1.0000
  C   C59       1.0  0.88596  0.2782999999999999  0.37721  1.0000
  C   C60       1.0  0.7936999999999997  0.28532  0.3712999999999999  1.0000
  C   C61       1.0  0.69819  0.25539000000000006  0.28143  1.0000
  C   C62       1.0  0.69822  0.2246299999999999  0.19584999999999994  1.0000
  C   C63       1.0  0.7916199999999999  0.22017  0.20163  1.0000
  C   C64       1.0  0.59674  0.25245999999999996  0.27956  1.0000
  C   C65       1.0  0.9490199999999998  0.10506  0.17604999999999998  1.0000
  C   C66       1.0  0.021419999999999988  0.16149999999999995  0.15055  1.0000
  C   C67       1.0  0.01598999999999998  0.13673999999999994  0.06205999999999998  1.0000
  C   C68       1.0  0.9363899999999996  0.05729999999999995  0.9943599999999998  1.0000
  C   C69       1.0  0.86568  0.0002299999999999993  0.020119999999999996  1.0000
  C   C70       1.0  0.87446  0.021609999999999994  0.11100999999999997  1.0000
  C   C71       1.0  0.09647  0.19594  0.03928  1.0000
  C   C72       1.0  0.7752399999999997  0.9191299999999999  0.9458099999999998  1.0000
  C   C73       1.0  0.3296699999999999  0.3612499999999998  0.42637  1.0000
  C   C74       1.0  0.36115  0.45446  0.44476  1.0000
  C   C75       1.0  0.33584999999999976  0.49849999999999983  0.5043399999999999  1.0000
  C   C76       1.0  0.27518  0.44989999999999997  0.54368  1.0000
  C   C77       1.0  0.24825999999999998  0.35709  0.52989  1.0000
  C   C78       1.0  0.2768399999999999  0.31334  0.4725099999999999  1.0000
  C   C79       1.0  0.34962  0.31409999999999993  0.3559499999999999  1.0000
  C   C80       1.0  0.22787999999999994  0.50243  0.58156  1.0000
  C   C81       1.0  0.0918  0.4465899999999999  0.62326  1.0000
  C   C82       1.0  0.033530000000000115  0.45856  0.67154  1.0000
  C   C83       1.0  0.07193999999999992  0.5378799999999998  0.7414  1.0000
  C   C84       1.0  0.005239999999999904  0.55666  0.7710699999999999  1.0000
  C   C85       1.0  0.90047  0.4971399999999999  0.73452  1.0000
  C   C86       1.0  0.8632499999999999  0.4165099999999998  0.6683899999999999  1.0000
  C   C87       1.0  0.9286299999999998  0.39790999999999993  0.6362099999999998  1.0000
  C   C88       1.0  0.82913  0.52211  0.7652699999999998  1.0000
  C   C89       1.0  0.27503  0.49882  0.75881  1.0000
  C   C90       1.0  0.2471399999999999  0.46211  0.8266299999999998  1.0000
  C   C91       1.0  0.3177899999999998  0.49513  0.9271399999999997  1.0000
  C   C92       1.0  0.41862999999999995  0.55979  0.9597799999999997  1.0000
  C   C93       1.0  0.45071999999999973  0.5870399999999998  0.8919399999999997  1.0000
  C   C94       1.0  0.37889999999999996  0.5573  0.79086  1.0000
  C   C95       1.0  0.5635799999999997  0.647  0.9280199999999997  1.0000
  C   C96       1.0  0.28796  0.46087  0.00135  1.0000
  N   N1        1.0  0.049499999999999975  0.8690399999999998  0.73855  1.0000
  N   N2        1.0  0.8038499999999997  0.52392  0.34361999999999987  1.0000
  N   N3        1.0  0.95049  0.13096  0.26145  1.0000
  N   N4        1.0  0.19614000000000006  0.47608  0.65638  1.0000
  O   O1        1.0  0.90458  0.75033  0.24341  1.0000
  O   O2        1.0  0.8297399999999997  0.8548399999999998  0.21954999999999994  1.0000
  O   O3        1.0  0.4897799999999999  0.80366  0.79177  1.0000
  O   O4        1.0  0.39774  0.69602  0.6529  1.0000
  O   O5        1.0  0.8179699999999999  0.74972  0.8889799999999998  1.0000
  O   O6        1.0  0.92874  0.81707  0.051109999999999996  1.0000
  O   O7        1.0  0.27403  0.14108  0.025869999999999994  1.0000
  O   O8        1.0  0.24687999999999993  0.08338999999999996  0.14345999999999998  1.0000
  O   O9        1.0  0.6602  0.76714  0.6483199999999998  1.0000
  O   O10       1.0  0.6228499999999999  0.64147  0.7003199999999999  1.0000
  O   O11       1.0  0.2585299999999999  0.53549  0.2541399999999999  1.0000
  O   O12       1.0  0.13672  0.39617  0.18996  1.0000
  O   O13       1.0  0.38031999999999994  0.3210099999999999  0.97942  1.0000
  O   O14       1.0  0.40421  0.3418  0.13406  1.0000
  O   O15       1.0  0.6516699999999996  0.4960599999999999  0.9093899999999998  1.0000
  O   O16       1.0  0.7937399999999998  0.60934  0.02601  1.0000
  O   O17       1.0  0.09541  0.24966999999999995  0.75659  1.0000
  O   O18       1.0  0.1702499999999999  0.14515999999999996  0.7804399999999998  1.0000
  O   O19       1.0  0.5102099999999999  0.19633999999999993  0.20821999999999993  1.0000
  O   O20       1.0  0.60225  0.30398  0.3471  1.0000
  O   O21       1.0  0.18201999999999993  0.25028  0.11102  1.0000
  O   O22       1.0  0.07124999999999998  0.18294  0.94888  1.0000
  O   O23       1.0  0.7259699999999998  0.8589199999999997  0.9741299999999998  1.0000
  O   O24       1.0  0.75311  0.9166099999999999  0.8565399999999997  1.0000
  O   O25       1.0  0.33978999999999987  0.23286  0.35167  1.0000
  O   O26       1.0  0.3771399999999998  0.35852999999999996  0.2996799999999999  1.0000
  O   O27       1.0  0.7414699999999999  0.4645099999999998  0.7458599999999997  1.0000
  O   O28       1.0  0.8632699999999998  0.60383  0.81004  1.0000
  O   O29       1.0  0.6196699999999998  0.67899  0.02058  1.0000
  O   O30       1.0  0.5957799999999998  0.6581999999999998  0.8659399999999998  1.0000
  O   O31       1.0  0.34832  0.50394  0.09061  1.0000
  O   O32       1.0  0.20624999999999985  0.39066  0.9739799999999997  1.0000
