data_image0
_chemical_formula_structural       Co8H76C92N4O40
_chemical_formula_sum              "Co8 H76 C92 N4 O40"
_cell_length_a       7.41804
_cell_length_b       18.40266
_cell_length_c       19.00348
_cell_angle_alpha    90.1542
_cell_angle_beta     95.03337
_cell_angle_gamma    89.92887

_space_group_name_H-M_alt    "P 1"
_space_group_IT_number       1

loop_
  _space_group_symop_operation_xyz
  'x, y, z'

loop_
  _atom_site_type_symbol
  _atom_site_label
  _atom_site_symmetry_multiplicity
  _atom_site_fract_x
  _atom_site_fract_y
  _atom_site_fract_z
  _atom_site_occupancy
  Co  Co1       1.0  0.23811000000000002  0.05282  0.01648  1.0000
  Co  Co2       1.0  0.73789  0.44612000000000007  0.5167  1.0000
  Co  Co3       1.0  0.26148  0.55425  0.48334999999999995  1.0000
  Co  Co4       1.0  0.24213  0.9442199999999998  0.52338  1.0000
  Co  Co5       1.0  0.2517  0.44602  0.97809  1.0000
  Co  Co6       1.0  0.7626400000000001  0.94735  0.98353  1.0000
  Co  Co7       1.0  0.7469  0.5544  0.02198  1.0000
  Co  Co8       1.0  0.75051  0.055619999999999996  0.48057  1.0000
  H   H1        1.0  0.67231  0.51271  0.25281  1.0000
  H   H2        1.0  0.71879  0.80396  0.74156  1.0000
  H   H3        1.0  0.28795  0.36529  0.6182  1.0000
  H   H4        1.0  0.56894  0.68852  0.70428  1.0000
  H   H5        1.0  0.37142000000000003  0.81134  0.28188  1.0000
  H   H6        1.0  0.55651  0.861  0.37582  1.0000
  H   H7        1.0  0.4683899999999999  0.6823  0.78532  1.0000
  H   H8        1.0  0.1243  0.31221  0.2167  1.0000
  H   H9        1.0  0.021199999999999993  0.04216  0.205  1.0000
  H   H10       1.0  0.06091  0.63895  0.87629  1.0000
  H   H11       1.0  0.5491100000000001  0.13929  0.88483  1.0000
  H   H12       1.0  0.80992  0.86618  0.62511  1.0000
  H   H13       1.0  0.43729  0.71428  0.51849  1.0000
  H   H14       1.0  0.003169999999999998  0.9496500000000001  0.23281  1.0000
  H   H15       1.0  0.04744000000000002  0.36195  0.38549  1.0000
  H   H16       1.0  0.8760800000000002  0.68751  0.78358  1.0000
  H   H17       1.0  0.99623  0.05058  0.7667  1.0000
  H   H18       1.0  0.39194  0.19327  0.18023  1.0000
  H   H19       1.0  0.75784  0.29821  0.37318  1.0000
  H   H20       1.0  0.58768  0.70409  0.9688899999999999  1.0000
  H   H21       1.0  0.78703  0.13497  0.11653999999999999  1.0000
  H   H22       1.0  0.17223  0.98696  0.75171  1.0000
  H   H23       1.0  0.65764  0.81944  0.20973  1.0000
  H   H24       1.0  0.09946999999999998  0.31001  0.82  1.0000
  H   H25       1.0  0.51857  0.45664999999999994  0.70353  1.0000
  H   H26       1.0  0.18873  0.13455  0.37454  1.0000
  H   H27       1.0  0.25865999999999995  0.20287  0.8727999999999999  1.0000
  H   H28       1.0  0.60754  0.80625  0.81961  1.0000
  H   H29       1.0  0.53143  0.31715  0.21439  1.0000
  H   H30       1.0  0.29844  0.79675  0.75959  1.0000
  H   H31       1.0  0.97753  0.95781  0.79357  1.0000
  H   H32       1.0  0.68615  0.36705  0.87587  1.0000
  H   H33       1.0  0.50714  0.54906  0.73284  1.0000
  H   H34       1.0  0.5618100000000003  0.28636  0.48111000000000004  1.0000
  H   H35       1.0  0.43088  0.31113  0.29543  1.0000
  H   H36       1.0  0.20219  0.29849  0.74077  1.0000
  H   H37       1.0  0.03212  0.18435  0.71446  1.0000
  H   H38       1.0  0.49276  0.45077  0.26716  1.0000
  H   H39       1.0  0.43809  0.13832  0.62642  1.0000
  H   H40       1.0  0.91174  0.20384  0.53309  1.0000
  H   H41       1.0  0.93639  0.78469  0.0196  1.0000
  H   H42       1.0  0.27376  0.80094  0.36426  1.0000
  H   H43       1.0  0.8912200000000001  0.30798  0.68091  1.0000
  H   H44       1.0  0.45114999999999994  0.8604  0.11472999999999998  1.0000
  H   H45       1.0  0.9669400000000001  0.81554  0.28543  1.0000
  H   H46       1.0  0.15724  0.67913  0.70944  1.0000
  H   H47       1.0  0.82688  0.01336  0.2473  1.0000
  H   H48       1.0  0.9511500000000002  0.6386  0.61442  1.0000
  H   H49       1.0  0.481  0.54327  0.29618  1.0000
  H   H50       1.0  0.24098000000000008  0.70182  0.6266  1.0000
  H   H51       1.0  0.70176  0.20291  0.24041  1.0000
  H   H52       1.0  0.72458  0.19888  0.63565  1.0000
  H   H53       1.0  0.34251  0.18054  0.78974  1.0000
  H   H54       1.0  0.78195  0.30595  0.75938  1.0000
  H   H55       1.0  0.93813  0.36171  0.12396  1.0000
  H   H56       1.0  0.21189  0.86556  0.8825800000000001  1.0000
  H   H57       1.0  0.74092  0.79649  0.12671  1.0000
  H   H58       1.0  0.8412  0.32099  0.2903  1.0000
  H   H59       1.0  0.06670000000000002  0.80956  0.20418  1.0000
  H   H60       1.0  0.93248  0.19038  0.79572  1.0000
  H   H61       1.0  0.41236  0.29653  0.03021  1.0000
  H   H62       1.0  0.32764  0.48708000000000007  0.74719  1.0000
  H   H63       1.0  0.79727  0.70141  0.25912  1.0000
  H   H64       1.0  0.40164  0.80825  0.68057  1.0000
  H   H65       1.0  0.10750000000000004  0.69179  0.31881  1.0000
  H   H66       1.0  0.28097  0.1956  0.25834  1.0000
  H   H67       1.0  0.08471999999999999  0.7964  0.46853  1.0000
  H   H68       1.0  0.22543  0.30273  0.13489  1.0000
  H   H69       1.0  0.59843  0.19148  0.31942  1.0000
  H   H70       1.0  0.21698  0.69397  0.24039  1.0000
  H   H71       1.0  0.90036  0.68973  0.18001  1.0000
  H   H72       1.0  0.62776  0.1884  0.71813  1.0000
  H   H73       1.0  0.7126000000000002  0.63475  0.3808  1.0000
  H   H74       1.0  0.31238000000000005  0.63286  0.12422  1.0000
  H   H75       1.0  0.06317000000000005  0.2153  0.9802300000000002  1.0000
  H   H76       1.0  0.77496  0.69736  0.86534  1.0000
  C   C1        1.0  0.47728  0.85515  0.55585  1.0000
  C   C2        1.0  0.68116  0.22818000000000002  0.68207  1.0000
  C   C3        1.0  0.82763  0.83749  0.42116  1.0000
  C   C4        1.0  0.12215  0.08592  0.56402  1.0000
  C   C5        1.0  0.25354  0.30856  0.6085  1.0000
  C   C6        1.0  0.6563  0.8186  0.38783  1.0000
  C   C7        1.0  0.45313  0.15335  0.04797  1.0000
  C   C8        1.0  0.11070000000000003  0.70293  0.07155  1.0000
  C   C9        1.0  0.4272  0.50285  0.71046  1.0000
  C   C10       1.0  0.95503  0.78356  0.44036  1.0000
  C   C11       1.0  0.16836000000000004  0.16285  0.58114  1.0000
  C   C12       1.0  0.8995899999999999  0.75436  0.6253  1.0000
  C   C13       1.0  0.66437  0.76948  0.7817  1.0000
  C   C14       1.0  0.24651999999999996  0.80893  0.89264  1.0000
  C   C15       1.0  0.41394  0.79031  0.92695  1.0000
  C   C16       1.0  0.8892700000000001  0.2972  0.92827  1.0000
  C   C17       1.0  0.16314  0.72852  0.28081  1.0000
  C   C18       1.0  0.33104  0.6635  0.92108  1.0000
  C   C19       1.0  0.35301  0.40557  0.4626799999999999  1.0000
  C   C20       1.0  0.013030000000000003  0.77721  0.24623000000000003  1.0000
  C   C21       1.0  0.09928  0.24626  0.37448  1.0000
  C   C22       1.0  0.11753999999999999  0.75474  0.8740399999999999  1.0000
  C   C23       1.0  0.35434  0.76706  0.7163  1.0000
  C   C24       1.0  0.20196  0.72408  0.67699  1.0000
  C   C25       1.0  0.34043  0.18135  0.61379  1.0000
  C   C26       1.0  0.33823000000000003  0.52272  0.64249  1.0000
  C   C27       1.0  0.79702  0.27597  0.3228  1.0000
  C   C28       1.0  0.2776  0.68818  0.10829  1.0000
  C   C29       1.0  0.04614  0.65399  0.45004  1.0000
  C   C30       1.0  0.9121400000000002  0.71055  0.4258  1.0000
  C   C31       1.0  0.8564600000000001  0.68314  0.60383  1.0000
  C   C32       1.0  0.40023  0.7447  0.12539  1.0000
  C   C33       1.0  0.85413  0.09596  0.96225  1.0000
  C   C34       1.0  0.14614  0.26883  0.78387  1.0000
  C   C35       1.0  0.30904  0.33124  0.43515999999999994  1.0000
  C   C36       1.0  0.16033  0.02087  0.85709  1.0000
  C   C37       1.0  0.37382000000000004  0.58657  0.93904  1.0000
  C   C38       1.0  0.07233000000000003  0.0030900000000000003  0.78829  1.0000
  C   C39       1.0  0.18069000000000002  0.27296  0.18064  1.0000
  C   C40       1.0  0.87066  0.9145500000000001  0.44012  1.0000
  C   C41       1.0  0.33527  0.23008  0.21816  1.0000
  C   C42       1.0  0.61638  0.7455  0.37264  1.0000
  C   C43       1.0  0.14613000000000004  0.90418  0.03768  1.0000
  C   C44       1.0  0.31759  0.77165  0.3179  1.0000
  C   C45       1.0  0.93446  0.22635999999999998  0.9503599999999999  1.0000
  C   C46       1.0  0.06521000000000003  0.77378  0.0495  1.0000
  C   C47       1.0  0.29788  0.22537999999999997  0.82266  1.0000
  C   C48       1.0  0.35647  0.8159  0.10427  1.0000
  C   C49       1.0  0.18952  0.82978  0.06529  1.0000
  C   C50       1.0  0.95313  0.34627  0.54983  1.0000
  C   C51       1.0  0.04202000000000001  0.21675  0.5608  1.0000
  C   C52       1.0  0.81926  0.72691  0.81939  1.0000
  C   C53       1.0  0.2228  0.18983  0.39105  1.0000
  C   C54       1.0  0.83811  0.9785600000000001  0.14235  1.0000
  C   C55       1.0  0.7759200000000004  0.81086  0.60864  1.0000
  C   C56       1.0  0.56556  0.72521  0.54871  1.0000
  C   C57       1.0  0.15927  0.68182  0.88829  1.0000
  C   C58       1.0  0.43359000000000003  0.27536  0.45087  1.0000
  C   C59       1.0  0.62359  0.41375  0.06085  1.0000
  C   C60       1.0  0.45799999999999996  0.71734  0.9408599999999999  1.0000
  C   C61       1.0  0.85335  0.73099  0.21598000000000003  1.0000
  C   C62       1.0  0.64346  0.18392  0.8954499999999999  1.0000
  C   C63       1.0  0.60916  0.79603  0.5715  1.0000
  C   C64       1.0  0.98612  0.2227  0.75364  1.0000
  C   C65       1.0  0.5470200000000001  0.84704  0.95207  1.0000
  C   C66       1.0  0.5417  0.28317  0.05841999999999999  1.0000
  C   C67       1.0  0.08654  0.2897  0.57432  1.0000
  C   C68       1.0  0.6612500000000001  0.4775  0.35755  1.0000
  C   C69       1.0  0.84014  0.31879  0.11146  1.0000
  C   C70       1.0  0.58595  0.21031  0.0724  1.0000
  C   C71       1.0  0.70183  0.77435  0.17702  1.0000
  C   C72       1.0  0.6900300000000001  0.66929  0.56455  1.0000
  C   C73       1.0  0.64533  0.23265  0.28357  1.0000
  C   C74       1.0  0.01931000000000003  0.35669  0.94423  1.0000
  C   C75       1.0  0.64656  0.59478  0.53723  1.0000
  C   C76       1.0  0.59947  0.25518  0.8745600000000001  1.0000
  C   C77       1.0  0.75316  0.1917  0.10677  1.0000
  C   C78       1.0  0.83582  0.27132  0.71903  1.0000
  C   C79       1.0  0.6682500000000002  0.337  0.07854  1.0000
  C   C80       1.0  0.74568  0.69151  0.39125  1.0000
  C   C81       1.0  0.48508  0.2788  0.25328  1.0000
  C   C82       1.0  0.72194  0.3118  0.89172  1.0000
  C   C83       1.0  0.98133  0.64319  0.05564  1.0000
  C   C84       1.0  0.8821400000000003  0.24582  0.12558  1.0000
  C   C85       1.0  0.14233  0.31747  0.396  1.0000
  C   C86       1.0  0.38207  0.2545  0.62777  1.0000
  C   C87       1.0  0.51462  0.72074  0.74648  1.0000
  C   C88       1.0  0.51891  0.14505  0.44428  1.0000
  C   C89       1.0  0.38935  0.20464  0.42813  1.0000
  C   C90       1.0  0.8103900000000003  0.1703  0.93456  1.0000
  C   C91       1.0  0.57251  0.49706  0.28948  1.0000
  C   C92       1.0  0.92673  0.9968900000000002  0.21086  1.0000
  N   N1        1.0  0.27293  0.53787  0.58644  1.0000
  N   N2        1.0  0.22505  0.03468  0.9136  1.0000
  N   N3        1.0  0.7728  0.96462  0.08603  1.0000
  N   N4        1.0  0.7267  0.46265  0.41371  1.0000
  O   O1        1.0  0.48191  0.41419  0.51114  1.0000
  O   O2        1.0  0.18039  0.34186  0.97267  1.0000
  O   O3        1.0  0.53647  0.9118299999999999  0.92588  1.0000
  O   O4        1.0  0.75481  0.04334  0.93707  1.0000
  O   O5        1.0  0.05537999999999997  0.7753  0.66312  1.0000
  O   O6        1.0  0.50959  0.92139  0.5728  1.0000
  O   O7        1.0  0.5554  0.72339  0.16314  1.0000
  O   O8        1.0  0.94391  0.22500999999999996  0.33672  1.0000
  O   O9        1.0  0.25425  0.45818  0.43727  1.0000
  O   O10       1.0  0.173  0.66892  0.49708  1.0000
  O   O11       1.0  0.67703  0.15942  0.47587  1.0000
  O   O12       1.0  0.0431  0.22112  0.15668  1.0000
  O   O13       1.0  0.01872  0.57659  0.06897  1.0000
  O   O14       1.0  0.9828100000000002  0.08748  0.01081  1.0000
  O   O15       1.0  0.74551  0.54225  0.56279  1.0000
  O   O16       1.0  0.44404  0.27648  0.83693  1.0000
  O   O17       1.0  0.03586  0.58917  0.42376  1.0000
  O   O18       1.0  0.54151  0.27974  0.6597  1.0000
  O   O19       1.0  0.25325  0.04  0.56588  1.0000
  O   O20       1.0  0.53792  0.56692  0.9548  1.0000
  O   O21       1.0  0.9819400000000001  0.42335  0.931  1.0000
  O   O22       1.0  0.9562700000000002  0.77914  0.84302  1.0000
  O   O23       1.0  0.96382  0.41106  0.57611  1.0000
  O   O24       1.0  0.48301  0.07886  0.42851  1.0000
  O   O25       1.0  0.67283  0.83247  0.99958  1.0000
  O   O26       1.0  0.017350000000000004  0.9125899999999999  0.98917  1.0000
  O   O27       1.0  0.5178  0.58587  0.48879  1.0000
  O   O28       1.0  0.4572  0.72018  0.34042  1.0000
  O   O29       1.0  0.24542  0.95679  0.06291  1.0000
  O   O30       1.0  0.0352  0.9346599999999999  0.45480000000000004  1.0000
  O   O31       1.0  0.9564200000000003  0.0679  0.54895  1.0000
  O   O32       1.0  0.75618  0.45869  0.06282  1.0000
  O   O33       1.0  0.24024000000000006  0.54198  0.9371200000000001  1.0000
  O   O34       1.0  0.73707  0.9590900000000001  0.44023  1.0000
  O   O35       1.0  0.4591000000000001  0.43302  0.04531  1.0000
  O   O36       1.0  0.46305  0.08933  0.07579  1.0000
  O   O37       1.0  0.81999  0.658  0.027330000000000004  1.0000
  O   O38       1.0  0.82636  0.3313  0.5028  1.0000
  O   O39       1.0  0.31947  0.84046  0.52412  1.0000
  O   O40       1.0  0.32791  0.16706  0.99991  1.0000
