data_image0
_chemical_formula_structural       Ni4H48C76N8O24
_chemical_formula_sum              "Ni4 H48 C76 N8 O24"
_cell_length_a       11.2747
_cell_length_b       15.1189
_cell_length_c       17.03901
_cell_angle_alpha    89.95196
_cell_angle_beta     90.01525
_cell_angle_gamma    103.52896000000001

_symmetry_space_group_name_H-M    'P 1'
_symmetry_Int_Tables_number       1

loop_
  _symmetry_equiv_pos_as_xyz
  'x,y,z'

loop_
  _atom_site_type_symbol
  _atom_site_label
  _atom_site_symmetry_multiplicity
  _atom_site_fract_x
  _atom_site_fract_y
  _atom_site_fract_z
  _atom_site_occupancy
  Ni  Ni1       1.0  0.015120000000000007  0.8691100000000002  0.03756  1.0000
  Ni  Ni2       1.0  0.98461  0.63093  0.53775  1.0000
  Ni  Ni3       1.0  0.9848699999999998  0.13089  0.96244  1.0000
  Ni  Ni4       1.0  0.015380000000000013  0.36907000000000006  0.46225  1.0000
  H   H1        1.0  0.99096  0.34299  0.02488  1.0000
  H   H2        1.0  0.8405699999999998  0.9261000000000003  0.14914  1.0000
  H   H3        1.0  0.79779  0.78687  0.93826  1.0000
  H   H4        1.0  0.62692  0.93903  0.14951  1.0000
  H   H5        1.0  0.5801399999999999  0.79095  0.92981  1.0000
  H   H6        1.0  0.4510299999999999  0.9416300000000002  0.14845  1.0000
  H   H7        1.0  0.40768  0.80538  0.92311  1.0000
  H   H8        1.0  0.23192  0.94281  0.14137  1.0000
  H   H9        1.0  0.19026999999999997  0.8125  0.92697  1.0000
  H   H10       1.0  0.0030599999999999954  0.55924  0.06452  1.0000
  H   H11       1.0  0.00729  0.70702  0.28163  1.0000
  H   H12       1.0  0.047409999999999994  0.42957000000000006  0.28279  1.0000
  H   H13       1.0  0.010060000000000001  0.15741  0.52462  1.0000
  H   H14       1.0  0.15919  0.5736  0.64944  1.0000
  H   H15       1.0  0.20134  0.71291  0.43839  1.0000
  H   H16       1.0  0.37281000000000003  0.5608200000000002  0.64967  1.0000
  H   H17       1.0  0.41894  0.70889  0.42972  1.0000
  H   H18       1.0  0.54869  0.55829  0.64861  1.0000
  H   H19       1.0  0.59209  0.69467  0.42311  1.0000
  H   H20       1.0  0.7675999999999998  0.55679  0.64151  1.0000
  H   H21       1.0  0.80935  0.6871700000000002  0.42694  1.0000
  H   H22       1.0  0.99616  0.94049  0.5646  1.0000
  H   H23       1.0  0.9913099999999998  0.79315  0.78222  1.0000
  H   H24       1.0  0.95324  0.07119  0.78237  1.0000
  H   H25       1.0  0.009030000000000067  0.6570100000000002  0.9751200000000001  1.0000
  H   H26       1.0  0.15943  0.0739  0.85086  1.0000
  H   H27       1.0  0.20219999999999994  0.21313  0.06174000000000001  1.0000
  H   H28       1.0  0.37307  0.06097  0.85049  1.0000
  H   H29       1.0  0.41986  0.20905  0.07019  1.0000
  H   H30       1.0  0.54896  0.05837000000000001  0.85155  1.0000
  H   H31       1.0  0.5923099999999999  0.19462  0.07689  1.0000
  H   H32       1.0  0.7680799999999999  0.05719  0.85863  1.0000
  H   H33       1.0  0.8097199999999999  0.18750000000000006  0.07303  1.0000
  H   H34       1.0  0.9969299999999999  0.44076  0.93548  1.0000
  H   H35       1.0  0.9927  0.29297  0.71838  1.0000
  H   H36       1.0  0.95258  0.57043  0.71721  1.0000
  H   H37       1.0  0.9899299999999999  0.8426000000000001  0.47539  1.0000
  H   H38       1.0  0.8408  0.4264  0.35056  1.0000
  H   H39       1.0  0.79865  0.28709  0.56161  1.0000
  H   H40       1.0  0.62718  0.4391800000000001  0.35033  1.0000
  H   H41       1.0  0.5810499999999998  0.29111  0.57028  1.0000
  H   H42       1.0  0.4512999999999999  0.4417100000000001  0.35139  1.0000
  H   H43       1.0  0.40790000000000004  0.3053300000000001  0.57689  1.0000
  H   H44       1.0  0.2324  0.44321  0.35849  1.0000
  H   H45       1.0  0.19064000000000003  0.3128300000000001  0.57307  1.0000
  H   H46       1.0  0.003830000000000005  0.059510000000000014  0.4354  1.0000
  H   H47       1.0  0.008679999999999997  0.20685  0.21778  1.0000
  H   H48       1.0  0.04674999999999993  0.92881  0.21763  1.0000
  C   C1        1.0  0.78004  0.89869  0.10087  1.0000
  C   C2        1.0  0.75573  0.8204700000000003  0.98339  1.0000
  C   C3        1.0  0.6589700000000001  0.9048400000000002  0.10063  1.0000
  C   C4        1.0  0.63348  0.8234200000000002  0.97944  1.0000
  C   C5        1.0  0.58168  0.8674500000000003  0.0384  1.0000
  C   C6        1.0  0.45169  0.87258  0.03615  1.0000
  C   C7        1.0  0.39863  0.91214  0.09746  1.0000
  C   C8        1.0  0.3746  0.83686  0.9732700000000001  1.0000
  C   C9        1.0  0.27563  0.9131  0.09465  1.0000
  C   C10       1.0  0.25231  0.84005  0.9745699999999999  1.0000
  C   C11       1.0  0.02346000000000001  0.56382  0.3804  1.0000
  C   C12       1.0  0.005749999999999995  0.6426  0.16807  1.0000
  C   C13       1.0  0.009410000000000059  0.5623900000000002  0.12803  1.0000
  C   C14       1.0  0.010750000000000022  0.64476  0.25048  1.0000
  C   C15       1.0  0.025570000000000013  0.4862  0.16946  1.0000
  C   C16       1.0  0.023450000000000033  0.56731  0.29212  1.0000
  C   C17       1.0  0.035039999999999995  0.48931  0.2512  1.0000
  C   C18       1.0  0.036530000000000035  0.4023100000000001  0.12677  1.0000
  C   C19       1.0  0.0  0.72611  0.12305999999999999  1.0000
  C   C20       1.0  0.21961999999999998  0.60121  0.60115  1.0000
  C   C21       1.0  0.24360999999999994  0.67944  0.48356999999999994  1.0000
  C   C22       1.0  0.3407  0.59508  0.6008  1.0000
  C   C23       1.0  0.36586999999999986  0.6765  0.47951  1.0000
  C   C24       1.0  0.41790999999999995  0.63252  0.5385  1.0000
  C   C25       1.0  0.5479299999999999  0.6273600000000003  0.53621  1.0000
  C   C26       1.0  0.60101  0.58772  0.59754  1.0000
  C   C27       1.0  0.6250600000000001  0.6630500000000003  0.47329000000000004  1.0000
  C   C28       1.0  0.7239699999999999  0.5866  0.59473  1.0000
  C   C29       1.0  0.74731  0.6597  0.47457999999999995  1.0000
  C   C30       1.0  0.9760299999999998  0.9364  0.88041  1.0000
  C   C31       1.0  0.9930099999999997  0.85725  0.66828  1.0000
  C   C32       1.0  0.98968  0.93756  0.62811  1.0000
  C   C33       1.0  0.98818  0.8553100000000002  0.75072  1.0000
  C   C34       1.0  0.9742999999999999  0.01405  0.66936  1.0000
  C   C35       1.0  0.9760099999999999  0.93299  0.79217  1.0000
  C   C36       1.0  0.9650999999999998  0.011140000000000004  0.7511  1.0000
  C   C37       1.0  0.9644999999999999  0.09838000000000002  0.62673  1.0000
  C   C38       1.0  0.9988099999999999  0.77376  0.62315  1.0000
  C   C39       1.0  0.21996  0.10131  0.89913  1.0000
  C   C40       1.0  0.24426  0.17953  0.01661  1.0000
  C   C41       1.0  0.34102  0.09516  0.89937  1.0000
  C   C42       1.0  0.36652  0.17658000000000004  0.02056  1.0000
  C   C43       1.0  0.41831  0.13255  0.9616000000000001  1.0000
  C   C44       1.0  0.5483  0.12742  0.96385  1.0000
  C   C45       1.0  0.60136  0.08786  0.90254  1.0000
  C   C46       1.0  0.6253999999999998  0.16314  0.02674  1.0000
  C   C47       1.0  0.72436  0.0869  0.90535  1.0000
  C   C48       1.0  0.7476799999999999  0.15995  0.02543  1.0000
  C   C49       1.0  0.97654  0.43618  0.6196  1.0000
  C   C50       1.0  0.99425  0.3574  0.83193  1.0000
  C   C51       1.0  0.9905800000000001  0.4376100000000001  0.87197  1.0000
  C   C52       1.0  0.98924  0.35524  0.74952  1.0000
  C   C53       1.0  0.9744199999999998  0.5138  0.83054  1.0000
  C   C54       1.0  0.97654  0.43269  0.70788  1.0000
  C   C55       1.0  0.96495  0.51069  0.7488  1.0000
  C   C56       1.0  0.9634599999999998  0.59769  0.87323  1.0000
  C   C57       1.0  0.99999  0.27389  0.87694  1.0000
  C   C58       1.0  0.7803799999999997  0.39879  0.39886  1.0000
  C   C59       1.0  0.7563799999999999  0.32056  0.51643  1.0000
  C   C60       1.0  0.65929  0.4049200000000001  0.3992  1.0000
  C   C61       1.0  0.63412  0.3235  0.52049  1.0000
  C   C62       1.0  0.5820799999999999  0.36748000000000003  0.4615  1.0000
  C   C63       1.0  0.45205999999999996  0.37264000000000014  0.46379  1.0000
  C   C64       1.0  0.39898  0.41228  0.40246  1.0000
  C   C65       1.0  0.37493  0.33695000000000014  0.52671  1.0000
  C   C66       1.0  0.27601999999999993  0.4134  0.40527  1.0000
  C   C67       1.0  0.25268  0.3403000000000001  0.52542  1.0000
  C   C68       1.0  0.02396  0.0636  0.11959  1.0000
  C   C69       1.0  0.0069799999999999975  0.14275  0.33172  1.0000
  C   C70       1.0  0.010309999999999998  0.06244  0.37189  1.0000
  C   C71       1.0  0.011809999999999998  0.14469  0.24928  1.0000
  C   C72       1.0  0.02569  0.98595  0.33064  1.0000
  C   C73       1.0  0.023979999999999998  0.06701  0.20783  1.0000
  C   C74       1.0  0.03489000000000008  0.9888600000000002  0.24889999999999998  1.0000
  C   C75       1.0  0.03549000000000003  0.90162  0.37328  1.0000
  C   C76       1.0  0.0011800000000000163  0.22624000000000005  0.37686  1.0000
  N   N1        1.0  0.82918  0.8589  0.04264  1.0000
  N   N2        1.0  0.20288999999999996  0.87724  0.03442  1.0000
  N   N3        1.0  0.17031  0.64106  0.54293  1.0000
  N   N4        1.0  0.79674  0.6224200000000002  0.53447  1.0000
  N   N5        1.0  0.17081999999999997  0.1411  0.95737  1.0000
  N   N6        1.0  0.7970999999999998  0.12276  0.9655800000000001  1.0000
  N   N7        1.0  0.82968  0.35894  0.45707  1.0000
  N   N8        1.0  0.20325  0.37757  0.46553  1.0000
  O   O1        1.0  0.005889999999999995  0.80073  0.1583  1.0000
  O   O2        1.0  0.9922399999999999  0.72326  0.04709  1.0000
  O   O3        1.0  0.98212  0.6242800000000002  0.41692  1.0000
  O   O4        1.0  0.06509000000000001  0.50163  0.41269  1.0000
  O   O5        1.0  0.09764  0.3502500000000001  0.15009  1.0000
  O   O6        1.0  0.9712300000000003  0.39197  0.05958  1.0000
  O   O7        1.0  0.9934299999999999  0.69901  0.65819  1.0000
  O   O8        1.0  0.006620000000000088  0.7768200000000002  0.54716  1.0000
  O   O9        1.0  0.01726  0.87577  0.91687  1.0000
  O   O10       1.0  0.93471  0.9987000000000001  0.91266  1.0000
  O   O11       1.0  0.90503  0.15145  0.65035  1.0000
  O   O12       1.0  0.029020000000000008  0.10803000000000003  0.55933  1.0000
  O   O13       1.0  0.9940999999999999  0.19927  0.8417  1.0000
  O   O14       1.0  0.00775  0.27674  0.95291  1.0000
  O   O15       1.0  0.01787000000000001  0.37572000000000005  0.58308  1.0000
  O   O16       1.0  0.9348999999999994  0.49837  0.58731  1.0000
  O   O17       1.0  0.90235  0.6497500000000003  0.84991  1.0000
  O   O18       1.0  0.028760000000000032  0.60803  0.94042  1.0000
  O   O19       1.0  0.006550000000000038  0.3009900000000001  0.34181  1.0000
  O   O20       1.0  0.99337  0.22318  0.45284  1.0000
  O   O21       1.0  0.98273  0.12423  0.08313  1.0000
  O   O22       1.0  0.06528  0.0013000000000000004  0.08734  1.0000
  O   O23       1.0  0.09497000000000005  0.8485500000000002  0.34965  1.0000
  O   O24       1.0  0.9709699999999998  0.8919700000000002  0.44067  1.0000
