data_image0
_chemical_formula_structural       Cu6H42C84O24
_chemical_formula_sum              "Cu6 H42 C84 O24"
_cell_length_a       17.73918
_cell_length_b       17.73926
_cell_length_c       17.739199999999997
_cell_angle_alpha    96.72033999999998
_cell_angle_beta     96.70924999999998
_cell_angle_gamma    96.70923

_symmetry_space_group_name_H-M    'P 1'
_symmetry_Int_Tables_number       1

loop_
  _symmetry_equiv_pos_as_xyz
  'x,y,z'

loop_
  _atom_site_type_symbol
  _atom_site_label
  _atom_site_symmetry_multiplicity
  _atom_site_fract_x
  _atom_site_fract_y
  _atom_site_fract_z
  _atom_site_occupancy
  Cu  Cu1       1.0  0.09646  0.69595  0.09645  1.0000
  Cu  Cu2       1.0  0.69595  0.09645  0.09645999999999998  1.0000
  Cu  Cu3       1.0  0.09646  0.09645  0.69595  1.0000
  Cu  Cu4       1.0  0.82932  0.14518  0.14518  1.0000
  Cu  Cu5       1.0  0.14518  0.14518  0.82932  1.0000
  Cu  Cu6       1.0  0.14518  0.82932  0.14518  1.0000
  H   H1        1.0  0.52238  0.79453  0.16794  1.0000
  H   H2        1.0  0.39003  0.82553  0.17013  1.0000
  H   H3        1.0  0.43292  0.56463  0.06388999999999999  1.0000
  H   H4        1.0  0.30089  0.59591  0.06924999999999999  1.0000
  H   H5        1.0  0.61292  0.77511  0.10509  1.0000
  H   H6        1.0  0.69469  0.85796  0.10889  1.0000
  H   H7        1.0  0.79453  0.16794  0.52238  1.0000
  H   H8        1.0  0.82552  0.17012  0.39003  1.0000
  H   H9        1.0  0.56464  0.06389  0.43291  1.0000
  H   H10       1.0  0.59591  0.06925  0.30088  1.0000
  H   H11       1.0  0.77511  0.10509  0.61291  1.0000
  H   H12       1.0  0.85797  0.10889  0.69469  1.0000
  H   H13       1.0  0.16794  0.52239  0.79453  1.0000
  H   H14       1.0  0.17013000000000003  0.39003999999999994  0.82552  1.0000
  H   H15       1.0  0.06389  0.4328999999999999  0.56464  1.0000
  H   H16       1.0  0.06925  0.30087  0.59591  1.0000
  H   H17       1.0  0.1051  0.61292  0.77511  1.0000
  H   H18       1.0  0.1089  0.69469  0.85795  1.0000
  H   H19       1.0  0.79453  0.52238  0.16794  1.0000
  H   H20       1.0  0.82552  0.39003  0.17012  1.0000
  H   H21       1.0  0.56464  0.43291  0.06388999999999999  1.0000
  H   H22       1.0  0.59591  0.3008799999999999  0.06924999999999999  1.0000
  H   H23       1.0  0.7751099999999999  0.61291  0.1051  1.0000
  H   H24       1.0  0.85797  0.69469  0.10889  1.0000
  H   H25       1.0  0.16794  0.79453  0.52239  1.0000
  H   H26       1.0  0.17013  0.8255199999999998  0.39004  1.0000
  H   H27       1.0  0.06388999999999999  0.5646399999999999  0.4329  1.0000
  H   H28       1.0  0.06924999999999999  0.5958999999999999  0.30087  1.0000
  H   H29       1.0  0.1051  0.7751  0.61293  1.0000
  H   H30       1.0  0.1089  0.85795  0.6947  1.0000
  H   H31       1.0  0.52238  0.16794  0.79453  1.0000
  H   H32       1.0  0.39003  0.17013  0.82553  1.0000
  H   H33       1.0  0.43292  0.06389  0.56463  1.0000
  H   H34       1.0  0.30089  0.06925  0.59591  1.0000
  H   H35       1.0  0.61292  0.10509  0.77511  1.0000
  H   H36       1.0  0.6946899999999999  0.10888999999999996  0.8579599999999997  1.0000
  H   H37       1.0  0.5394  0.5394  0.12139  1.0000
  H   H38       1.0  0.93489  0.9348900000000001  0.12696  1.0000
  H   H39       1.0  0.5394  0.12137999999999999  0.5394  1.0000
  H   H40       1.0  0.93489  0.12695  0.9348899999999999  1.0000
  H   H41       1.0  0.12139  0.53938  0.53939  1.0000
  H   H42       1.0  0.12696  0.9348999999999998  0.93491  1.0000
  C   C1        1.0  0.33727  0.71278  0.11952999999999998  1.0000
  C   C2        1.0  0.4743299999999999  0.75097  0.14486  1.0000
  C   C3        1.0  0.40021  0.76869  0.14688  1.0000
  C   C4        1.0  0.48801999999999995  0.67735  0.11500000000000002  1.0000
  C   C5        1.0  0.42422000000000004  0.6217  0.08805  1.0000
  C   C6        1.0  0.34994  0.63892  0.0904  1.0000
  C   C7        1.0  0.25786  0.73146  0.12088000000000002  1.0000
  C   C8        1.0  0.79376  0.9834699999999998  0.11895  1.0000
  C   C9        1.0  0.56714  0.65933  0.11218  1.0000
  C   C10       1.0  0.62689  0.71753  0.10837  1.0000
  C   C11       1.0  0.81221  0.90316  0.11724999999999998  1.0000
  C   C12       1.0  0.75241  0.84289  0.11128  1.0000
  C   C13       1.0  0.71278  0.11951999999999996  0.33725999999999995  1.0000
  C   C14       1.0  0.75097  0.14485  0.47433999999999993  1.0000
  C   C15       1.0  0.76869  0.14688  0.40021  1.0000
  C   C16       1.0  0.67736  0.115  0.48802  1.0000
  C   C17       1.0  0.62171  0.08806  0.42422  1.0000
  C   C18       1.0  0.63893  0.0904  0.34994  1.0000
  C   C19       1.0  0.73146  0.12088  0.25785  1.0000
  C   C20       1.0  0.9834700000000001  0.11895999999999997  0.7937599999999998  1.0000
  C   C21       1.0  0.65933  0.11217999999999999  0.56714  1.0000
  C   C22       1.0  0.71754  0.10836999999999997  0.62689  1.0000
  C   C23       1.0  0.90317  0.11724999999999992  0.8122099999999998  1.0000
  C   C24       1.0  0.8429  0.11128  0.75241  1.0000
  C   C25       1.0  0.11952999999999998  0.33725999999999995  0.71278  1.0000
  C   C26       1.0  0.14486  0.47434  0.75097  1.0000
  C   C27       1.0  0.14688  0.40021  0.76868  1.0000
  C   C28       1.0  0.11501000000000001  0.48802  0.67736  1.0000
  C   C29       1.0  0.08806  0.42421  0.6217  1.0000
  C   C30       1.0  0.09039999999999998  0.34992999999999996  0.63892  1.0000
  C   C31       1.0  0.12087  0.25785  0.73145  1.0000
  C   C32       1.0  0.11895999999999997  0.79376  0.9834699999999998  1.0000
  C   C33       1.0  0.11218  0.56713  0.6593199999999999  1.0000
  C   C34       1.0  0.10838  0.62689  0.71753  1.0000
  C   C35       1.0  0.11724999999999998  0.81221  0.90317  1.0000
  C   C36       1.0  0.11128  0.75241  0.84289  1.0000
  C   C37       1.0  0.7127799999999999  0.33725999999999995  0.11952999999999998  1.0000
  C   C38       1.0  0.75097  0.4743299999999999  0.14486  1.0000
  C   C39       1.0  0.76869  0.40021  0.14688  1.0000
  C   C40       1.0  0.67736  0.48802  0.11500000000000002  1.0000
  C   C41       1.0  0.62171  0.42422  0.08806  1.0000
  C   C42       1.0  0.63893  0.34994  0.0904  1.0000
  C   C43       1.0  0.73146  0.25785  0.12088000000000002  1.0000
  C   C44       1.0  0.9834700000000001  0.79375  0.11896000000000001  1.0000
  C   C45       1.0  0.65933  0.56714  0.11218  1.0000
  C   C46       1.0  0.71754  0.62689  0.10837  1.0000
  C   C47       1.0  0.90316  0.8122  0.11724999999999998  1.0000
  C   C48       1.0  0.8429  0.75241  0.11128  1.0000
  C   C49       1.0  0.11953  0.71277  0.33725999999999995  1.0000
  C   C50       1.0  0.14486  0.75096  0.47433999999999993  1.0000
  C   C51       1.0  0.14688  0.76868  0.40022  1.0000
  C   C52       1.0  0.11501000000000001  0.67735  0.48802  1.0000
  C   C53       1.0  0.08805999999999999  0.6216999999999999  0.4242099999999999  1.0000
  C   C54       1.0  0.0904  0.63892  0.34993  1.0000
  C   C55       1.0  0.12087  0.73145  0.25785  1.0000
  C   C56       1.0  0.11895999999999997  0.9834699999999998  0.7937599999999998  1.0000
  C   C57       1.0  0.11218  0.65932  0.56713  1.0000
  C   C58       1.0  0.10838  0.71752  0.62689  1.0000
  C   C59       1.0  0.11724999999999998  0.90316  0.81222  1.0000
  C   C60       1.0  0.11128  0.84289  0.75241  1.0000
  C   C61       1.0  0.33727  0.11953  0.71278  1.0000
  C   C62       1.0  0.4743299999999999  0.14486  0.75097  1.0000
  C   C63       1.0  0.40021  0.14688  0.76869  1.0000
  C   C64       1.0  0.48801999999999995  0.115  0.67736  1.0000
  C   C65       1.0  0.42422  0.08805  0.6217  1.0000
  C   C66       1.0  0.34994  0.0904  0.63892  1.0000
  C   C67       1.0  0.25786  0.12087000000000002  0.73146  1.0000
  C   C68       1.0  0.79376  0.11894999999999999  0.9834699999999998  1.0000
  C   C69       1.0  0.56714  0.11217  0.65933  1.0000
  C   C70       1.0  0.62689  0.10836999999999997  0.71753  1.0000
  C   C71       1.0  0.81221  0.11724999999999998  0.90316  1.0000
  C   C72       1.0  0.75241  0.11128  0.84289  1.0000
  C   C73       1.0  0.58434  0.58433  0.11466  1.0000
  C   C74       1.0  0.70302  0.70301  0.10815  1.0000
  C   C75       1.0  0.76634  0.76634  0.10947  1.0000
  C   C76       1.0  0.88828  0.88828  0.12151  1.0000
  C   C77       1.0  0.58434  0.11465999999999996  0.5843399999999999  1.0000
  C   C78       1.0  0.70302  0.10815  0.70302  1.0000
  C   C79       1.0  0.76634  0.10946  0.76634  1.0000
  C   C80       1.0  0.88828  0.12151  0.88828  1.0000
  C   C81       1.0  0.11466999999999998  0.58432  0.58432  1.0000
  C   C82       1.0  0.10816  0.70301  0.70302  1.0000
  C   C83       1.0  0.10947  0.76634  0.76634  1.0000
  C   C84       1.0  0.12151  0.88828  0.88829  1.0000
  O   O1        1.0  0.20344999999999996  0.67634  0.09835  1.0000
  O   O2        1.0  0.8491  0.0375  0.14087  1.0000
  O   O3        1.0  0.7238899999999999  0.9919999999999999  0.09829999999999998  1.0000
  O   O4        1.0  0.24963  0.80097  0.14389  1.0000
  O   O5        1.0  0.67634  0.09835  0.20345  1.0000
  O   O6        1.0  0.0375  0.14087  0.8491  1.0000
  O   O7        1.0  0.992  0.0983  0.72388  1.0000
  O   O8        1.0  0.80096  0.14389  0.24961999999999998  1.0000
  O   O9        1.0  0.09834999999999999  0.20343999999999998  0.6763299999999999  1.0000
  O   O10       1.0  0.14088  0.84911  0.0375  1.0000
  O   O11       1.0  0.09830999999999998  0.7238899999999999  0.992  1.0000
  O   O12       1.0  0.14388999999999996  0.24962999999999994  0.8009599999999999  1.0000
  O   O13       1.0  0.67634  0.20345000000000002  0.09835  1.0000
  O   O14       1.0  0.037499999999999985  0.8490999999999999  0.14088  1.0000
  O   O15       1.0  0.992  0.72388  0.09831  1.0000
  O   O16       1.0  0.80096  0.24962  0.1439  1.0000
  O   O17       1.0  0.09835  0.6763299999999999  0.20343999999999998  1.0000
  O   O18       1.0  0.14088  0.037500000000000006  0.84911  1.0000
  O   O19       1.0  0.09831000000000001  0.9919900000000001  0.72389  1.0000
  O   O20       1.0  0.14389  0.80096  0.24962999999999996  1.0000
  O   O21       1.0  0.20345  0.09835  0.67635  1.0000
  O   O22       1.0  0.8491  0.14087  0.0375  1.0000
  O   O23       1.0  0.72389  0.09830000000000003  0.992  1.0000
  O   O24       1.0  0.24963  0.14389  0.80098  1.0000
