data_image0
_chemical_formula_structural       Cd3H84C66S6N30
_chemical_formula_sum              "Cd3 H84 C66 S6 N30"
_cell_length_a       11.15413
_cell_length_b       15.35156
_cell_length_c       15.351730000000002
_cell_angle_alpha    114.32051999999999
_cell_angle_beta     104.02765
_cell_angle_gamma    104.01511

_symmetry_space_group_name_H-M    'P 1'
_symmetry_Int_Tables_number       1

loop_
  _symmetry_equiv_pos_as_xyz
  'x,y,z'

loop_
  _atom_site_type_symbol
  _atom_site_label
  _atom_site_symmetry_multiplicity
  _atom_site_fract_x
  _atom_site_fract_y
  _atom_site_fract_z
  _atom_site_occupancy
  Cd  Cd1       1.0  0.5  0.0  0.5  1.0000
  Cd  Cd2       1.0  0.0  0.5  0.5  1.0000
  Cd  Cd3       1.0  0.5  0.5  0.0  1.0000
  H   H1        1.0  0.6150100000000001  0.7692  0.13742  1.0000
  H   H2        1.0  0.2659700000000001  0.8869700000000003  0.55357  1.0000
  H   H3        1.0  0.88526  0.97204  0.2308  1.0000
  H   H4        1.0  0.92887  0.9905100000000002  0.35825  1.0000
  H   H5        1.0  0.7611300000000001  0.9632100000000003  0.28325  1.0000
  H   H6        1.0  0.78732  0.5442  0.23019  1.0000
  H   H7        1.0  0.95304  0.6111200000000002  0.24919000000000002  1.0000
  H   H8        1.0  0.82689  0.52939  0.12153  1.0000
  H   H9        1.0  0.17323999999999995  0.01996999999999998  0.31345  1.0000
  H   H10       1.0  0.08195000000000001  0.89142  0.20698  1.0000
  H   H11       1.0  0.26032  0.9403  0.26762  1.0000
  H   H12       1.0  0.01350000000000008  0.6847000000000001  0.44998  1.0000
  H   H13       1.0  0.8886100000000002  0.7340200000000003  0.42674000000000006  1.0000
  H   H14       1.0  0.02277  0.80065  0.55054  1.0000
  H   H15       1.0  0.38498999999999994  0.23080000000000006  0.86258  1.0000
  H   H16       1.0  0.7340399999999999  0.11303999999999997  0.44643  1.0000
  H   H17       1.0  0.11474  0.027960000000000026  0.7692  1.0000
  H   H18       1.0  0.07112999999999997  0.009500000000000022  0.64175  1.0000
  H   H19       1.0  0.23887  0.03679000000000002  0.71675  1.0000
  H   H20       1.0  0.21268  0.4558000000000002  0.7698  1.0000
  H   H21       1.0  0.04696000000000004  0.3888800000000001  0.75081  1.0000
  H   H22       1.0  0.17311000000000012  0.4706200000000001  0.87847  1.0000
  H   H23       1.0  0.8267700000000001  0.9800400000000002  0.68655  1.0000
  H   H24       1.0  0.91806  0.10859000000000009  0.7930200000000001  1.0000
  H   H25       1.0  0.73968  0.05971000000000005  0.7323800000000001  1.0000
  H   H26       1.0  0.9865100000000001  0.31530000000000025  0.55002  1.0000
  H   H27       1.0  0.11140000000000004  0.2659800000000001  0.57326  1.0000
  H   H28       1.0  0.97723  0.19936000000000006  0.44946  1.0000
  H   H29       1.0  0.47758999999999996  0.8630500000000002  0.63179  1.0000
  H   H30       1.0  0.71261  0.44659  0.33362  1.0000
  H   H31       1.0  0.6547200000000001  0.7697500000000003  0.7415  1.0000
  H   H32       1.0  0.57088  0.6422  0.63271  1.0000
  H   H33       1.0  0.47812  0.71716  0.6804  1.0000
  H   H34       1.0  0.5571900000000001  0.7700400000000002  0.31416000000000005  1.0000
  H   H35       1.0  0.70357  0.75067  0.36194  1.0000
  H   H36       1.0  0.7055900000000002  0.8784000000000002  0.40781000000000006  1.0000
  H   H37       1.0  0.86014  0.6868200000000002  0.70666  1.0000
  H   H38       1.0  0.87497  0.79312  0.68424  1.0000
  H   H39       1.0  0.9929500000000001  0.7326900000000003  0.6727500000000001  1.0000
  H   H40       1.0  0.5636300000000001  0.55005  0.23496  1.0000
  H   H41       1.0  0.46193  0.5734200000000003  0.30742  1.0000
  H   H42       1.0  0.47215  0.4496200000000001  0.25043  1.0000
  H   H43       1.0  0.52241  0.13696000000000005  0.36821  1.0000
  H   H44       1.0  0.28739000000000003  0.5534200000000002  0.66638  1.0000
  H   H45       1.0  0.34529000000000004  0.23026000000000005  0.25849  1.0000
  H   H46       1.0  0.42912000000000006  0.3578000000000001  0.36729  1.0000
  H   H47       1.0  0.52188  0.2828500000000001  0.3196  1.0000
  H   H48       1.0  0.44281999999999994  0.2299600000000001  0.68584  1.0000
  H   H49       1.0  0.29643  0.24934000000000012  0.63806  1.0000
  H   H50       1.0  0.29441  0.12160000000000001  0.59219  1.0000
  H   H51       1.0  0.13987  0.31318000000000007  0.29334  1.0000
  H   H52       1.0  0.12503  0.20688  0.31576  1.0000
  H   H53       1.0  0.007049999999999998  0.26731  0.32725  1.0000
  H   H54       1.0  0.43638  0.4499500000000001  0.76504  1.0000
  H   H55       1.0  0.5380800000000002  0.42658000000000007  0.6925800000000001  1.0000
  H   H56       1.0  0.52786  0.55038  0.74957  1.0000
  H   H57       1.0  0.8457700000000001  0.36814000000000013  0.231  1.0000
  H   H58       1.0  0.37905000000000016  0.6666800000000005  0.11314  1.0000
  H   H59       1.0  0.9133  0.2587  0.028070000000000008  1.0000
  H   H60       1.0  0.93845  0.36768  0.00961  1.0000
  H   H61       1.0  0.79795  0.31997  0.0369  1.0000
  H   H62       1.0  0.24281  0.68571  0.45578  1.0000
  H   H63       1.0  0.34162  0.63808  0.38879  1.0000
  H   H64       1.0  0.29776  0.5921900000000001  0.47066  1.0000
  H   H65       1.0  0.15332  0.29347  0.97987  1.0000
  H   H66       1.0  0.19049000000000002  0.3156100000000001  0.10844000000000001  1.0000
  H   H67       1.0  0.3201  0.3272800000000001  0.05956  1.0000
  H   H68       1.0  0.3288400000000001  0.7651600000000002  0.31536  1.0000
  H   H69       1.0  0.15465  0.69258  0.26621  1.0000
  H   H70       1.0  0.22185000000000007  0.7497300000000002  0.19948  1.0000
  H   H71       1.0  0.15423000000000003  0.63187  0.769  1.0000
  H   H72       1.0  0.62095  0.3333300000000001  0.88686  1.0000
  H   H73       1.0  0.08670000000000008  0.74131  0.9719300000000002  1.0000
  H   H74       1.0  0.06155000000000001  0.63233  0.99039  1.0000
  H   H75       1.0  0.20206000000000002  0.6800400000000002  0.9631  1.0000
  H   H76       1.0  0.75719  0.31429000000000007  0.54422  1.0000
  H   H77       1.0  0.65838  0.3619300000000001  0.61121  1.0000
  H   H78       1.0  0.70224  0.4078100000000001  0.52934  1.0000
  H   H79       1.0  0.84668  0.7065300000000002  0.020130000000000002  1.0000
  H   H80       1.0  0.8095100000000001  0.6843900000000002  0.89156  1.0000
  H   H81       1.0  0.67991  0.67272  0.94044  1.0000
  H   H82       1.0  0.6711600000000001  0.23484  0.68464  1.0000
  H   H83       1.0  0.8453499999999999  0.3074200000000001  0.7337900000000002  1.0000
  H   H84       1.0  0.77815  0.2502800000000001  0.80052  1.0000
  C   C1        1.0  0.51717  0.09579000000000004  0.74929  1.0000
  C   C2        1.0  0.81405  0.6751400000000002  0.20648  1.0000
  C   C3        1.0  0.89843  0.7824800000000001  0.2667  1.0000
  C   C4        1.0  0.8196100000000001  0.8330500000000002  0.23995000000000002  1.0000
  C   C5        1.0  0.84996  0.9454800000000002  0.27993  1.0000
  C   C6        1.0  0.8473100000000001  0.5854100000000002  0.20173  1.0000
  C   C7        1.0  0.07418000000000011  0.8173600000000002  0.4312500000000001  1.0000
  C   C8        1.0  0.03458000000000002  0.83111  0.34557  1.0000
  C   C9        1.0  0.1534200000000001  0.8995000000000002  0.35306  1.0000
  C   C10       1.0  0.16827000000000006  0.9399200000000002  0.28132  1.0000
  C   C11       1.0  0.99582  0.75621  0.46668  1.0000
  C   C12       1.0  0.48283999999999994  0.90422  0.25071  1.0000
  C   C13       1.0  0.18594999999999998  0.32487000000000005  0.79352  1.0000
  C   C14       1.0  0.10157000000000005  0.21752000000000005  0.7333000000000001  1.0000
  C   C15       1.0  0.18040000000000003  0.16695000000000013  0.7600500000000001  1.0000
  C   C16       1.0  0.15004  0.05452999999999999  0.72007  1.0000
  C   C17       1.0  0.15269000000000002  0.4146  0.79827  1.0000
  C   C18       1.0  0.92582  0.18264000000000008  0.56874  1.0000
  C   C19       1.0  0.96542  0.16889000000000007  0.65443  1.0000
  C   C20       1.0  0.84658  0.1005  0.64694  1.0000
  C   C21       1.0  0.8317299999999999  0.06007999999999999  0.71868  1.0000
  C   C22       1.0  0.004180000000000002  0.24379000000000006  0.53331  1.0000
  C   C23       1.0  0.60771  0.79366  0.46875  1.0000
  C   C24       1.0  0.63168  0.73339  0.51588  1.0000
  C   C25       1.0  0.57964  0.7603  0.59323  1.0000
  C   C26       1.0  0.5701900000000001  0.7204800000000003  0.6658600000000001  1.0000
  C   C27       1.0  0.6456100000000001  0.7983100000000001  0.38373  1.0000
  C   C28       1.0  0.6428500000000001  0.5687500000000002  0.38633  1.0000
  C   C29       1.0  0.68901  0.65449  0.4857000000000001  1.0000
  C   C30       1.0  0.80043  0.6469900000000002  0.54659  1.0000
  C   C31       1.0  0.88717  0.7188800000000002  0.65866  1.0000
  C   C32       1.0  0.5291500000000001  0.5334200000000002  0.28976  1.0000
  C   C33       1.0  0.76786  0.2506000000000001  0.34648  1.0000
  C   C34       1.0  0.3923  0.20634  0.53125  1.0000
  C   C35       1.0  0.36832  0.26661000000000007  0.48412000000000005  1.0000
  C   C36       1.0  0.42037000000000013  0.2397000000000001  0.40677  1.0000
  C   C37       1.0  0.42981  0.2795200000000001  0.33414000000000005  1.0000
  C   C38       1.0  0.3543900000000001  0.20169000000000012  0.61627  1.0000
  C   C39       1.0  0.35716  0.43125  0.61367  1.0000
  C   C40       1.0  0.311  0.34551  0.5143  1.0000
  C   C41       1.0  0.19958000000000004  0.35301  0.45341  1.0000
  C   C42       1.0  0.11283  0.28112  0.34134  1.0000
  C   C43       1.0  0.47086000000000006  0.46658  0.71024  1.0000
  C   C44       1.0  0.23214000000000024  0.7494100000000002  0.6535200000000001  1.0000
  C   C45       1.0  0.13904000000000005  0.5313200000000002  0.32491  1.0000
  C   C46       1.0  0.11601999999999997  0.48406  0.2176  1.0000
  C   C47       1.0  0.9864900000000001  0.40688000000000024  0.16705  1.0000
  C   C48       1.0  0.9045100000000001  0.33438  0.05461  1.0000
  C   C49       1.0  0.2619  0.61627  0.41463  1.0000
  C   C50       1.0  0.25674  0.61376  0.18260000000000004  1.0000
  C   C51       1.0  0.20346999999999998  0.51436  0.16892000000000001  1.0000
  C   C52       1.0  0.25376  0.45351  0.10032  1.0000
  C   C53       1.0  0.22840000000000005  0.3414100000000001  0.05994000000000001  1.0000
  C   C54       1.0  0.23956000000000005  0.7103100000000002  0.24389  1.0000
  C   C55       1.0  0.42129000000000005  0.6534900000000001  0.9040000000000001  1.0000
  C   C56       1.0  0.8609700000000001  0.46868000000000015  0.6750800000000001  1.0000
  C   C57       1.0  0.88398  0.5159500000000001  0.7824  1.0000
  C   C58       1.0  0.013509999999999993  0.59312  0.83295  1.0000
  C   C59       1.0  0.09550000000000015  0.6656200000000003  0.9453900000000002  1.0000
  C   C60       1.0  0.7381099999999999  0.38373000000000007  0.58537  1.0000
  C   C61       1.0  0.74327  0.3862400000000001  0.8174  1.0000
  C   C62       1.0  0.79654  0.48564  0.83108  1.0000
  C   C63       1.0  0.74625  0.5464900000000003  0.89968  1.0000
  C   C64       1.0  0.7716000000000001  0.6585900000000002  0.94006  1.0000
  C   C65       1.0  0.76044  0.28969  0.75611  1.0000
  C   C66       1.0  0.57871  0.3465100000000001  0.09599  1.0000
  S   S1        1.0  0.55054  0.1630000000000001  0.8724800000000001  1.0000
  S   S2        1.0  0.4494700000000001  0.8370100000000003  0.12752  1.0000
  S   S3        1.0  0.67833  0.12733  0.2903  1.0000
  S   S4        1.0  0.3216700000000001  0.8726700000000002  0.7097  1.0000
  S   S5        1.0  0.3874800000000001  0.7094800000000002  0.83677  1.0000
  S   S6        1.0  0.61252  0.29052  0.16323000000000001  1.0000
  N   N1        1.0  0.49094000000000004  0.04372000000000001  0.65919  1.0000
  N   N2        1.0  0.6918400000000001  0.6611800000000002  0.14764  1.0000
  N   N3        1.0  0.6987900000000002  0.7579000000000002  0.16849  1.0000
  N   N4        1.0  0.25843  0.9248600000000001  0.43714  1.0000
  N   N5        1.0  0.20778000000000005  0.8736900000000002  0.48267  1.0000
  N   N6        1.0  0.50906  0.9562800000000002  0.34081  1.0000
  N   N7        1.0  0.30816  0.33883  0.85236  1.0000
  N   N8        1.0  0.30122  0.24210000000000007  0.83151  1.0000
  N   N9        1.0  0.7415799999999998  0.07514000000000005  0.56286  1.0000
  N   N10       1.0  0.79223  0.12631  0.51733  1.0000
  N   N11       1.0  0.5443699999999999  0.8525399999999999  0.51354  1.0000
  N   N12       1.0  0.53033  0.83181  0.58949  1.0000
  N   N13       1.0  0.82145  0.56301  0.48786  1.0000
  N   N14       1.0  0.7251199999999999  0.51741  0.39122000000000007  1.0000
  N   N15       1.0  0.83154  0.3408  0.38469  1.0000
  N   N16       1.0  0.45563000000000003  0.14747000000000005  0.48646000000000006  1.0000
  N   N17       1.0  0.46967  0.16820000000000004  0.41051  1.0000
  N   N18       1.0  0.17855  0.4370000000000001  0.51214  1.0000
  N   N19       1.0  0.2748800000000001  0.48259000000000013  0.60878  1.0000
  N   N20       1.0  0.16846  0.6592  0.61531  1.0000
  N   N21       1.0  0.030890000000000046  0.48642000000000013  0.33891  1.0000
  N   N22       1.0  0.94091  0.4105  0.24223  1.0000
  N   N23       1.0  0.33357  0.5122700000000002  0.07509  1.0000
  N   N24       1.0  0.33403  0.60895  0.12628  1.0000
  N   N25       1.0  0.4470700000000001  0.6154300000000003  0.95606  1.0000
  N   N26       1.0  0.96911  0.51358  0.66109  1.0000
  N   N27       1.0  0.059090000000000115  0.5895000000000004  0.7577700000000002  1.0000
  N   N28       1.0  0.66643  0.4877300000000001  0.92491  1.0000
  N   N29       1.0  0.66597  0.39106  0.87372  1.0000
  N   N30       1.0  0.5529300000000003  0.3845700000000001  0.04393  1.0000
