data_image0
_chemical_formula_structural       Co4H56C104N8O18F24
_chemical_formula_sum              "Co4 H56 C104 N8 O18 F24"
_cell_length_a       7.32991
_cell_length_b       16.37944
_cell_length_c       22.312270000000005
_cell_angle_alpha    104.13760999999998
_cell_angle_beta     90.0
_cell_angle_gamma    90.0

_symmetry_space_group_name_H-M    'P 1'
_symmetry_Int_Tables_number       1

loop_
  _symmetry_equiv_pos_as_xyz
  'x,y,z'

loop_
  _atom_site_type_symbol
  _atom_site_label
  _atom_site_symmetry_multiplicity
  _atom_site_fract_x
  _atom_site_fract_y
  _atom_site_fract_z
  _atom_site_occupancy
  Co  Co1       1.0  0.15825  0.4596  0.01707  1.0000
  Co  Co2       1.0  0.15825  0.04041  0.48293  1.0000
  Co  Co3       1.0  0.84176  0.54041  0.98293  1.0000
  Co  Co4       1.0  0.8417500000000001  0.9596  0.51707  1.0000
  H   H1        1.0  0.13634  0.28885  0.13859  1.0000
  H   H2        1.0  0.892  0.31332  0.06632  1.0000
  H   H3        1.0  0.47235  0.2715900000000001  0.19109  1.0000
  H   H4        1.0  0.53255  0.43948  0.09319999999999999  1.0000
  H   H5        1.0  0.18036  0.2515699999999999  0.9922999999999998  1.0000
  H   H6        1.0  0.44354000000000005  0.17588000000000006  0.05115  1.0000
  H   H7        1.0  0.54085  0.66692  0.09993  1.0000
  H   H8        1.0  0.67317  0.80696  0.14767999999999998  1.0000
  H   H9        1.0  0.20551  0.92532  0.08675  1.0000
  H   H10       1.0  0.07085000000000002  0.78621  0.044629999999999996  1.0000
  H   H11       1.0  0.02263  0.02768  0.29389  1.0000
  H   H12       1.0  0.89101  0.02159  0.19175999999999999  1.0000
  H   H13       1.0  0.40309  0.90892  0.24422  1.0000
  H   H14       1.0  0.53498  0.91895  0.34765  1.0000
  H   H15       1.0  0.13634  0.21115  0.36141  1.0000
  H   H16       1.0  0.892  0.18668000000000004  0.43367999999999995  1.0000
  H   H17       1.0  0.47235  0.22841000000000003  0.30892  1.0000
  H   H18       1.0  0.53255  0.060529999999999994  0.4068  1.0000
  H   H19       1.0  0.18036  0.24843  0.50771  1.0000
  H   H20       1.0  0.44354000000000005  0.32412  0.44885  1.0000
  H   H21       1.0  0.54085  0.83308  0.40007  1.0000
  H   H22       1.0  0.67317  0.69304  0.35231999999999997  1.0000
  H   H23       1.0  0.20551  0.57468  0.41325  1.0000
  H   H24       1.0  0.07085000000000002  0.71379  0.45537  1.0000
  H   H25       1.0  0.02263  0.47233  0.20611  1.0000
  H   H26       1.0  0.89101  0.47842  0.30824  1.0000
  H   H27       1.0  0.40309  0.59108  0.25578  1.0000
  H   H28       1.0  0.53498  0.58105  0.15235  1.0000
  H   H29       1.0  0.86367  0.71115  0.8614199999999999  1.0000
  H   H30       1.0  0.108  0.68669  0.9336799999999998  1.0000
  H   H31       1.0  0.52765  0.72841  0.8089199999999999  1.0000
  H   H32       1.0  0.46745  0.56053  0.9068  1.0000
  H   H33       1.0  0.81964  0.74843  0.0076999999999999985  1.0000
  H   H34       1.0  0.55646  0.8241200000000001  0.94885  1.0000
  H   H35       1.0  0.45915  0.33307999999999993  0.9000799999999999  1.0000
  H   H36       1.0  0.32683  0.19304000000000004  0.85232  1.0000
  H   H37       1.0  0.79449  0.07467999999999991  0.9132499999999999  1.0000
  H   H38       1.0  0.92915  0.21378999999999998  0.95537  1.0000
  H   H39       1.0  0.97737  0.9723300000000002  0.70611  1.0000
  H   H40       1.0  0.109  0.97842  0.80824  1.0000
  H   H41       1.0  0.59691  0.09108000000000004  0.75578  1.0000
  H   H42       1.0  0.46502  0.08105000000000001  0.65235  1.0000
  H   H43       1.0  0.86367  0.78885  0.63859  1.0000
  H   H44       1.0  0.108  0.81332  0.56632  1.0000
  H   H45       1.0  0.52765  0.77159  0.69109  1.0000
  H   H46       1.0  0.46745  0.93948  0.59321  1.0000
  H   H47       1.0  0.81964  0.7515700000000002  0.49229999999999996  1.0000
  H   H48       1.0  0.55646  0.67589  0.55116  1.0000
  H   H49       1.0  0.45915  0.16693  0.59993  1.0000
  H   H50       1.0  0.32683  0.30696  0.6476799999999999  1.0000
  H   H51       1.0  0.79449  0.42533  0.58675  1.0000
  H   H52       1.0  0.92915  0.28622  0.54463  1.0000
  H   H53       1.0  0.97737  0.52768  0.7939  1.0000
  H   H54       1.0  0.109  0.52159  0.69177  1.0000
  H   H55       1.0  0.59691  0.40892  0.74422  1.0000
  H   H56       1.0  0.46502  0.41896  0.84765  1.0000
  C   C1        1.0  0.75191  0.26026  0.22034  1.0000
  C   C2        1.0  0.937  0.26565  0.2043  1.0000
  C   C3        1.0  0.99287  0.28477  0.14992  1.0000
  C   C4        1.0  0.85614  0.29819  0.10966999999999998  1.0000
  C   C5        1.0  0.67128  0.29339  0.1253  1.0000
  C   C6        1.0  0.6164900000000001  0.27469  0.18025  1.0000
  C   C7        1.0  0.46851  0.37934  0.07359999999999998  1.0000
  C   C8        1.0  0.2904  0.27951  0.02252  1.0000
  C   C9        1.0  0.41806  0.24101  0.051199999999999996  1.0000
  C   C10       1.0  0.20535  0.63402  0.04416  1.0000
  C   C11       1.0  0.29415  0.7174600000000004  0.07052  1.0000
  C   C12       1.0  0.46575  0.72385  0.09896999999999997  1.0000
  C   C13       1.0  0.54131  0.80276  0.12481999999999999  1.0000
  C   C14       1.0  0.44944  0.87662  0.12129  1.0000
  C   C15       1.0  0.28028  0.87  0.09119  1.0000
  C   C16       1.0  0.20346000000000003  0.79126  0.06684  1.0000
  C   C17       1.0  0.54143  0.96192  0.14827  1.0000
  C   C18       1.0  0.6367  0.96446  0.2102  1.0000
  C   C19       1.0  0.8666000000000001  0.98065  0.39057  1.0000
  C   C20       1.0  0.78899  0.9729400000000002  0.32748  1.0000
  C   C21       1.0  0.88717  0.0015899999999999803  0.28278999999999993  1.0000
  C   C22       1.0  0.81173  0.9979000000000001  0.22488  1.0000
  C   C23       1.0  0.53868  0.93523  0.25486  1.0000
  C   C24       1.0  0.6136000000000003  0.93988  0.31289999999999996  1.0000
  C   C25       1.0  0.67705  0.97627  0.09818  1.0000
  C   C26       1.0  0.40015  0.035579999999999994  0.16189999999999996  1.0000
  C   C27       1.0  0.75191  0.23975000000000005  0.27966  1.0000
  C   C28       1.0  0.937  0.23435  0.29571  1.0000
  C   C29       1.0  0.99287  0.21523000000000006  0.35009  1.0000
  C   C30       1.0  0.85614  0.20180999999999996  0.39033999999999996  1.0000
  C   C31       1.0  0.67128  0.20660999999999996  0.3746999999999999  1.0000
  C   C32       1.0  0.6164900000000001  0.22531  0.3197499999999999  1.0000
  C   C33       1.0  0.46851  0.12065999999999996  0.42639999999999995  1.0000
  C   C34       1.0  0.2904  0.22050000000000003  0.47748  1.0000
  C   C35       1.0  0.41806  0.25899  0.4488  1.0000
  C   C36       1.0  0.20535  0.86598  0.45583999999999997  1.0000
  C   C37       1.0  0.29415  0.78254  0.42948  1.0000
  C   C38       1.0  0.46575  0.77615  0.40103  1.0000
  C   C39       1.0  0.54131  0.69724  0.37518999999999997  1.0000
  C   C40       1.0  0.44944  0.62338  0.37871  1.0000
  C   C41       1.0  0.28028  0.63  0.40881  1.0000
  C   C42       1.0  0.20346000000000003  0.70874  0.43315999999999993  1.0000
  C   C43       1.0  0.54143  0.53808  0.35173  1.0000
  C   C44       1.0  0.6367  0.5355400000000002  0.2898  1.0000
  C   C45       1.0  0.8666000000000001  0.51935  0.10942999999999997  1.0000
  C   C46       1.0  0.78899  0.52706  0.17252  1.0000
  C   C47       1.0  0.88717  0.49840999999999996  0.21721  1.0000
  C   C48       1.0  0.81173  0.5021  0.27513  1.0000
  C   C49       1.0  0.53868  0.56477  0.24513999999999997  1.0000
  C   C50       1.0  0.6136000000000003  0.5601200000000001  0.18711  1.0000
  C   C51       1.0  0.67705  0.52373  0.40181999999999995  1.0000
  C   C52       1.0  0.40015  0.46442  0.3381  1.0000
  C   C53       1.0  0.2481  0.73975  0.7796599999999999  1.0000
  C   C54       1.0  0.063  0.73436  0.79571  1.0000
  C   C55       1.0  0.007130000000000001  0.7152299999999999  0.8500899999999998  1.0000
  C   C56       1.0  0.14386  0.70181  0.89034  1.0000
  C   C57       1.0  0.32872  0.7066099999999998  0.8746999999999999  1.0000
  C   C58       1.0  0.38351  0.72531  0.81976  1.0000
  C   C59       1.0  0.5315  0.62066  0.9264  1.0000
  C   C60       1.0  0.7096  0.7205  0.97748  1.0000
  C   C61       1.0  0.58194  0.7589899999999999  0.9487999999999999  1.0000
  C   C62       1.0  0.7946600000000001  0.36599  0.95584  1.0000
  C   C63       1.0  0.7058500000000002  0.28254  0.92949  1.0000
  C   C64       1.0  0.53425  0.27616  0.90103  1.0000
  C   C65       1.0  0.45869000000000004  0.19725000000000006  0.87519  1.0000
  C   C66       1.0  0.5505600000000003  0.12339000000000004  0.87871  1.0000
  C   C67       1.0  0.71973  0.12999999999999995  0.90882  1.0000
  C   C68       1.0  0.79654  0.20875  0.93316  1.0000
  C   C69       1.0  0.45857  0.03808  0.85173  1.0000
  C   C70       1.0  0.3633  0.03553999999999996  0.7898  1.0000
  C   C71       1.0  0.1334  0.019349999999999992  0.60944  1.0000
  C   C72       1.0  0.21101  0.027060000000000004  0.67253  1.0000
  C   C73       1.0  0.11283  0.9984100000000001  0.71721  1.0000
  C   C74       1.0  0.18827  0.0021099999999999743  0.77513  1.0000
  C   C75       1.0  0.46132  0.06476999999999997  0.7451399999999999  1.0000
  C   C76       1.0  0.3864  0.06012  0.68711  1.0000
  C   C77       1.0  0.32295  0.023739999999999976  0.90182  1.0000
  C   C78       1.0  0.59985  0.96442  0.8381  1.0000
  C   C79       1.0  0.2481  0.76026  0.72034  1.0000
  C   C80       1.0  0.063  0.76565  0.7043  1.0000
  C   C81       1.0  0.007130000000000001  0.78477  0.64992  1.0000
  C   C82       1.0  0.14386  0.79819  0.60967  1.0000
  C   C83       1.0  0.32872  0.7934  0.6253  1.0000
  C   C84       1.0  0.38351  0.7747  0.68025  1.0000
  C   C85       1.0  0.5315  0.87934  0.57361  1.0000
  C   C86       1.0  0.7096  0.77951  0.52252  1.0000
  C   C87       1.0  0.58194  0.74101  0.5512  1.0000
  C   C88       1.0  0.7946600000000001  0.13402  0.54416  1.0000
  C   C89       1.0  0.7058500000000002  0.21746  0.57052  1.0000
  C   C90       1.0  0.53425  0.22385  0.59897  1.0000
  C   C91       1.0  0.45869000000000004  0.30276  0.62482  1.0000
  C   C92       1.0  0.5505600000000003  0.37662  0.6213  1.0000
  C   C93       1.0  0.71973  0.37001  0.59119  1.0000
  C   C94       1.0  0.79654  0.29126000000000013  0.56684  1.0000
  C   C95       1.0  0.45857  0.4619300000000001  0.64828  1.0000
  C   C96       1.0  0.3633  0.4644700000000001  0.71021  1.0000
  C   C97       1.0  0.1334  0.48066000000000003  0.89057  1.0000
  C   C98       1.0  0.21101  0.47295000000000015  0.8274799999999999  1.0000
  C   C99       1.0  0.11283  0.50159  0.78279  1.0000
  C   C100      1.0  0.18827  0.4979  0.72488  1.0000
  C   C101      1.0  0.46132  0.43524  0.75486  1.0000
  C   C102      1.0  0.3864  0.43989  0.8129  1.0000
  C   C103      1.0  0.32295  0.47627  0.59818  1.0000
  C   C104      1.0  0.59985  0.5355800000000002  0.6619  1.0000
  N   N1        1.0  0.32161  0.36562  0.03696  1.0000
  N   N2        1.0  0.53088  0.30504  0.08342  1.0000
  N   N3        1.0  0.32161  0.13438  0.46304  1.0000
  N   N4        1.0  0.53088  0.19496  0.41659  1.0000
  N   N5        1.0  0.67839  0.63438  0.96304  1.0000
  N   N6        1.0  0.46912000000000004  0.69496  0.91659  1.0000
  N   N7        1.0  0.67839  0.86562  0.53696  1.0000
  N   N8        1.0  0.46912000000000004  0.8050400000000001  0.5834199999999999  1.0000
  O   O1        1.0  0.2926  0.56798  0.048819999999999995  1.0000
  O   O2        1.0  0.7731  0.95028  0.42846  1.0000
  O   O3        1.0  0.01836  0.01901000000000003  0.40289  1.0000
  O   O4        1.0  0.04965  0.63514  0.01888  1.0000
  O   O5        1.0  0.2926  0.93202  0.45118  1.0000
  O   O6        1.0  0.7731  0.54972  0.07154  1.0000
  O   O7        1.0  0.01836  0.4809900000000001  0.09711  1.0000
  O   O8        1.0  0.04965  0.86486  0.48112  1.0000
  O   O9        1.0  0.7074  0.43202  0.95118  1.0000
  O   O10       1.0  0.22691  0.049719999999999986  0.57154  1.0000
  O   O11       1.0  0.9816400000000002  0.9809900000000001  0.59711  1.0000
  O   O12       1.0  0.95036  0.36487  0.98112  1.0000
  O   O13       1.0  0.7074  0.06799000000000002  0.54883  1.0000
  O   O14       1.0  0.22691  0.45029  0.92846  1.0000
  O   O15       1.0  0.9816400000000002  0.51901  0.90289  1.0000
  O   O16       1.0  0.95036  0.13514  0.51888  1.0000
  O   O17       1.0  0.05169  0.25  0.25  1.0000
  O   O18       1.0  0.94831  0.75  0.7499999999999999  1.0000
  F   F1        1.0  0.33574  0.05546  0.10949  1.0000
  F   F2        1.0  0.47283  0.10746  0.19717  1.0000
  F   F3        1.0  0.25401  0.01602  0.19372  1.0000
  F   F4        1.0  0.747  0.05582  0.1121  1.0000
  F   F5        1.0  0.599  0.96438  0.0416  1.0000
  F   F6        1.0  0.81898  0.9206900000000002  0.09109  1.0000
  F   F7        1.0  0.33574  0.44453999999999994  0.39051  1.0000
  F   F8        1.0  0.47283  0.39254  0.30283  1.0000
  F   F9        1.0  0.25401  0.48397999999999997  0.30627999999999994  1.0000
  F   F10       1.0  0.747  0.44418  0.3879099999999999  1.0000
  F   F11       1.0  0.599  0.53562  0.4584  1.0000
  F   F12       1.0  0.81898  0.57931  0.40892  1.0000
  F   F13       1.0  0.66426  0.9445499999999999  0.89051  1.0000
  F   F14       1.0  0.52717  0.89254  0.80283  1.0000
  F   F15       1.0  0.74599  0.9839800000000001  0.80628  1.0000
  F   F16       1.0  0.253  0.9441800000000002  0.8879099999999999  1.0000
  F   F17       1.0  0.401  0.03563000000000001  0.9584  1.0000
  F   F18       1.0  0.18102  0.07931999999999992  0.9089199999999998  1.0000
  F   F19       1.0  0.66426  0.55546  0.6095  1.0000
  F   F20       1.0  0.52717  0.60747  0.69718  1.0000
  F   F21       1.0  0.74599  0.51603  0.69373  1.0000
  F   F22       1.0  0.253  0.55583  0.6121  1.0000
  F   F23       1.0  0.401  0.46438  0.5416  1.0000
  F   F24       1.0  0.18102  0.42069  0.59109  1.0000
