data_image0
_chemical_formula_structural       Cu4H48C72N24O16
_chemical_formula_sum              "Cu4 H48 C72 N24 O16"
_cell_length_a       10.08956
_cell_length_b       12.54142
_cell_length_c       17.88073
_cell_angle_alpha    90.0
_cell_angle_beta     90.11281
_cell_angle_gamma    90.0

_symmetry_space_group_name_H-M    'P 1'
_symmetry_Int_Tables_number       1

loop_
  _symmetry_equiv_pos_as_xyz
  'x,y,z'

loop_
  _atom_site_type_symbol
  _atom_site_label
  _atom_site_symmetry_multiplicity
  _atom_site_fract_x
  _atom_site_fract_y
  _atom_site_fract_z
  _atom_site_occupancy
  Cu  Cu1       1.0  0.50072  0.74974  0.16324  1.0000
  Cu  Cu2       1.0  0.0007200000000000002  0.25026  0.66324  1.0000
  Cu  Cu3       1.0  0.99928  0.74974  0.33676  1.0000
  Cu  Cu4       1.0  0.49929  0.25026  0.8367600000000001  1.0000
  H   H1        1.0  0.59555  0.49351  0.99008  1.0000
  H   H2        1.0  0.71357  0.41231000000000007  0.88482  1.0000
  H   H3        1.0  0.04287  0.6271  0.91975  1.0000
  H   H4        1.0  0.9200800000000001  0.7079200000000001  0.02822  1.0000
  H   H5        1.0  0.14586  0.4814900000000001  0.6952  1.0000
  H   H6        1.0  0.86266  0.3133  0.8227200000000002  1.0000
  H   H7        1.0  0.40523000000000003  0.006210000000000002  0.9898200000000003  1.0000
  H   H8        1.0  0.28644  0.08783000000000003  0.88483  1.0000
  H   H9        1.0  0.95702  0.8730600000000002  0.9196500000000001  1.0000
  H   H10       1.0  0.08052  0.7923  0.02809  1.0000
  H   H11       1.0  0.85395  0.0185  0.69444  1.0000
  H   H12       1.0  0.1375  0.18648  0.82242  1.0000
  H   H13       1.0  0.90523  0.99379  0.48982  1.0000
  H   H14       1.0  0.78643  0.9121700000000003  0.3848300000000001  1.0000
  H   H15       1.0  0.45702000000000004  0.12694  0.41965  1.0000
  H   H16       1.0  0.58052  0.20770000000000002  0.5280900000000001  1.0000
  H   H17       1.0  0.35395  0.9815000000000003  0.19444000000000006  1.0000
  H   H18       1.0  0.6375  0.8135200000000001  0.32242000000000004  1.0000
  H   H19       1.0  0.09554  0.5065000000000001  0.49008000000000007  1.0000
  H   H20       1.0  0.21357  0.58769  0.38482  1.0000
  H   H21       1.0  0.54287  0.37290000000000006  0.41975  1.0000
  H   H22       1.0  0.42007999999999995  0.29208000000000006  0.52822  1.0000
  H   H23       1.0  0.64585  0.51851  0.19520000000000007  1.0000
  H   H24       1.0  0.36266  0.6867000000000002  0.32272  1.0000
  H   H25       1.0  0.09478  0.006210000000000002  0.51018  1.0000
  H   H26       1.0  0.21357  0.08783000000000003  0.6151700000000002  1.0000
  H   H27       1.0  0.54298  0.8730600000000002  0.58035  1.0000
  H   H28       1.0  0.41948  0.7923  0.47191000000000005  1.0000
  H   H29       1.0  0.64605  0.0185  0.8055500000000002  1.0000
  H   H30       1.0  0.36251  0.18648  0.67758  1.0000
  H   H31       1.0  0.90446  0.49351  0.5099200000000002  1.0000
  H   H32       1.0  0.78643  0.41231000000000007  0.6151700000000002  1.0000
  H   H33       1.0  0.45713  0.6271  0.5802500000000003  1.0000
  H   H34       1.0  0.57992  0.7079200000000001  0.47178  1.0000
  H   H35       1.0  0.35415  0.4814900000000001  0.8048000000000001  1.0000
  H   H36       1.0  0.63734  0.3133  0.67728  1.0000
  H   H37       1.0  0.40446000000000004  0.5065000000000001  0.009920000000000002  1.0000
  H   H38       1.0  0.28643  0.58769  0.11518000000000003  1.0000
  H   H39       1.0  0.9571300000000001  0.37290000000000006  0.08025  1.0000
  H   H40       1.0  0.07993  0.29208000000000006  0.9717700000000001  1.0000
  H   H41       1.0  0.85415  0.51851  0.30480000000000007  1.0000
  H   H42       1.0  0.13734  0.6867000000000002  0.17728  1.0000
  H   H43       1.0  0.59477  0.99379  0.01018  1.0000
  H   H44       1.0  0.71356  0.9121700000000003  0.11517000000000001  1.0000
  H   H45       1.0  0.04298  0.12694  0.08035  1.0000
  H   H46       1.0  0.9194800000000001  0.20770000000000002  0.97191  1.0000
  H   H47       1.0  0.14605  0.9815000000000003  0.30555  1.0000
  H   H48       1.0  0.8624999999999999  0.8135200000000001  0.17758  1.0000
  C   C1        1.0  0.67814  0.6625000000000002  0.07765000000000001  1.0000
  C   C2        1.0  0.75039  0.6076400000000001  0.01564  1.0000
  C   C3        1.0  0.69307  0.52339  0.9755  1.0000
  C   C4        1.0  0.75981  0.47712000000000004  0.91566  1.0000
  C   C5        1.0  0.88513  0.51561  0.8959800000000001  1.0000
  C   C6        1.0  0.94525  0.59867  0.9358000000000001  1.0000
  C   C7        1.0  0.8770600000000001  0.6434600000000001  0.9956800000000001  1.0000
  C   C8        1.0  0.07473  0.4613600000000001  0.7381600000000001  1.0000
  C   C9        1.0  0.92946  0.37402000000000013  0.8009700000000001  1.0000
  C   C10       1.0  0.32241  0.8370000000000001  0.07723  1.0000
  C   C11       1.0  0.25037  0.8921100000000002  0.015160000000000003  1.0000
  C   C12       1.0  0.30754  0.97644  0.9752100000000001  1.0000
  C   C13       1.0  0.24026  0.02298  0.91555  1.0000
  C   C14       1.0  0.11478  0.98452  0.8958300000000002  1.0000
  C   C15       1.0  0.05474  0.90152  0.9356400000000001  1.0000
  C   C16       1.0  0.12335  0.8566100000000001  0.99542  1.0000
  C   C17       1.0  0.9251900000000001  0.03856  0.73753  1.0000
  C   C18       1.0  0.07069  0.12575000000000003  0.80057  1.0000
  C   C19       1.0  0.82241  0.16300000000000003  0.57723  1.0000
  C   C20       1.0  0.75037  0.10789  0.5151600000000002  1.0000
  C   C21       1.0  0.80754  0.023560000000000008  0.47521  1.0000
  C   C22       1.0  0.74026  0.97703  0.41555  1.0000
  C   C23       1.0  0.61478  0.015480000000000004  0.3958300000000001  1.0000
  C   C24       1.0  0.55474  0.09848  0.43564000000000014  1.0000
  C   C25       1.0  0.62335  0.14339  0.4954200000000001  1.0000
  C   C26       1.0  0.42519  0.9614400000000002  0.23753000000000002  1.0000
  C   C27       1.0  0.57069  0.87425  0.30057  1.0000
  C   C28       1.0  0.17814  0.3375  0.5776500000000001  1.0000
  C   C29       1.0  0.25039  0.39236000000000004  0.51564  1.0000
  C   C30       1.0  0.19307  0.47661000000000003  0.47550000000000003  1.0000
  C   C31       1.0  0.25981  0.52288  0.41567  1.0000
  C   C32       1.0  0.38512  0.48439  0.3959800000000001  1.0000
  C   C33       1.0  0.44525  0.40133000000000013  0.4358  1.0000
  C   C34       1.0  0.37706  0.35655000000000003  0.49568000000000006  1.0000
  C   C35       1.0  0.57473  0.53864  0.23816  1.0000
  C   C36       1.0  0.42946000000000006  0.6259900000000002  0.30097000000000007  1.0000
  C   C37       1.0  0.17759  0.8370000000000001  0.42277  1.0000
  C   C38       1.0  0.24963000000000002  0.8921100000000002  0.48484000000000005  1.0000
  C   C39       1.0  0.19247  0.97644  0.5247800000000002  1.0000
  C   C40       1.0  0.25974  0.02298  0.58445  1.0000
  C   C41       1.0  0.38522  0.98452  0.60417  1.0000
  C   C42       1.0  0.44527  0.90152  0.56436  1.0000
  C   C43       1.0  0.37665  0.8566100000000001  0.50458  1.0000
  C   C44       1.0  0.57481  0.03856  0.76247  1.0000
  C   C45       1.0  0.42932000000000003  0.12575000000000003  0.6994300000000001  1.0000
  C   C46       1.0  0.8218600000000001  0.6625000000000002  0.42234  1.0000
  C   C47       1.0  0.74961  0.6076400000000001  0.48436  1.0000
  C   C48       1.0  0.8069299999999999  0.52339  0.5245  1.0000
  C   C49       1.0  0.74019  0.47712000000000004  0.5843300000000001  1.0000
  C   C50       1.0  0.61488  0.51561  0.6040200000000001  1.0000
  C   C51       1.0  0.55475  0.59867  0.5642  1.0000
  C   C52       1.0  0.62294  0.6434600000000001  0.50432  1.0000
  C   C53       1.0  0.42527  0.4613600000000001  0.76183  1.0000
  C   C54       1.0  0.57054  0.37402000000000013  0.69903  1.0000
  C   C55       1.0  0.32187  0.3375  0.9223400000000002  1.0000
  C   C56       1.0  0.24962  0.39236000000000004  0.98436  1.0000
  C   C57       1.0  0.30693  0.47661000000000003  0.024500000000000008  1.0000
  C   C58       1.0  0.24019  0.52288  0.08433  1.0000
  C   C59       1.0  0.11488  0.48439  0.10402  1.0000
  C   C60       1.0  0.05475  0.40133000000000013  0.0642  1.0000
  C   C61       1.0  0.12294  0.35655000000000003  0.00432  1.0000
  C   C62       1.0  0.9252699999999999  0.53864  0.26183  1.0000
  C   C63       1.0  0.07054  0.6259900000000002  0.19903000000000007  1.0000
  C   C64       1.0  0.67759  0.16300000000000003  0.92277  1.0000
  C   C65       1.0  0.74963  0.10789  0.98484  1.0000
  C   C66       1.0  0.69246  0.023560000000000008  0.024790000000000006  1.0000
  C   C67       1.0  0.75974  0.97703  0.08445  1.0000
  C   C68       1.0  0.88522  0.015480000000000004  0.10417000000000001  1.0000
  C   C69       1.0  0.9452599999999999  0.09848  0.06436  1.0000
  C   C70       1.0  0.87665  0.14339  0.00458  1.0000
  C   C71       1.0  0.07481  0.9614400000000002  0.26247  1.0000
  C   C72       1.0  0.92931  0.87425  0.19943  1.0000
  N   N1        1.0  0.9513100000000001  0.47006  0.83329  1.0000
  N   N2        1.0  0.04489  0.5263500000000001  0.7939700000000001  1.0000
  N   N3        1.0  0.006360000000000001  0.36677  0.7402200000000002  1.0000
  N   N4        1.0  0.04844  0.029930000000000005  0.8330200000000002  1.0000
  N   N5        1.0  0.9547100000000001  0.9736900000000003  0.79354  1.0000
  N   N6        1.0  0.9939700000000001  0.13297  0.7396  1.0000
  N   N7        1.0  0.54843  0.97007  0.3330200000000001  1.0000
  N   N8        1.0  0.45471  0.026310000000000004  0.29355  1.0000
  N   N9        1.0  0.49397  0.8670400000000003  0.2396  1.0000
  N   N10       1.0  0.45130999999999993  0.5299400000000001  0.33329  1.0000
  N   N11       1.0  0.54488  0.47365  0.29397000000000006  1.0000
  N   N12       1.0  0.50636  0.63323  0.24022  1.0000
  N   N13       1.0  0.45156999999999997  0.029930000000000005  0.66698  1.0000
  N   N14       1.0  0.54529  0.9736900000000003  0.70645  1.0000
  N   N15       1.0  0.50603  0.13297  0.76039  1.0000
  N   N16       1.0  0.54869  0.47006  0.6667100000000001  1.0000
  N   N17       1.0  0.45512  0.5263500000000001  0.70603  1.0000
  N   N18       1.0  0.49364  0.36677  0.75977  1.0000
  N   N19       1.0  0.04869  0.5299400000000001  0.16671  1.0000
  N   N20       1.0  0.95512  0.47365  0.20603  1.0000
  N   N21       1.0  0.9936400000000001  0.63323  0.2597700000000001  1.0000
  N   N22       1.0  0.9515700000000001  0.97007  0.16698000000000002  1.0000
  N   N23       1.0  0.04529  0.026310000000000004  0.20645000000000005  1.0000
  N   N24       1.0  0.00603  0.8670400000000003  0.2604  1.0000
  O   O1        1.0  0.55229  0.64491  0.08320000000000002  1.0000
  O   O2        1.0  0.73954  0.7241700000000001  0.12168  1.0000
  O   O3        1.0  0.44869000000000003  0.85299  0.08253000000000003  1.0000
  O   O4        1.0  0.26002  0.77704  0.1217  1.0000
  O   O5        1.0  0.94869  0.14701000000000003  0.58253  1.0000
  O   O6        1.0  0.76003  0.22296000000000005  0.6217  1.0000
  O   O7        1.0  0.0523  0.3551000000000001  0.5832000000000003  1.0000
  O   O8        1.0  0.23955  0.27583  0.62168  1.0000
  O   O9        1.0  0.05131  0.85299  0.41747  1.0000
  O   O10       1.0  0.23998  0.77705  0.3783  1.0000
  O   O11       1.0  0.9477100000000002  0.64491  0.4168  1.0000
  O   O12       1.0  0.76046  0.7241700000000001  0.3783200000000001  1.0000
  O   O13       1.0  0.44770999999999994  0.3551000000000001  0.9168  1.0000
  O   O14       1.0  0.26046  0.27583  0.8783200000000002  1.0000
  O   O15       1.0  0.55131  0.14701000000000003  0.91747  1.0000
  O   O16       1.0  0.73998  0.22296000000000005  0.8783000000000002  1.0000
