data_image0
_chemical_formula_structural       Y12H24C84N24O72
_chemical_formula_sum              "Y12 H24 C84 N24 O72"
_cell_length_a       9.00009
_cell_length_b       16.069129999999998
_cell_length_c       25.59105
_cell_angle_alpha    89.91209
_cell_angle_beta     96.75661000000001
_cell_angle_gamma    89.95925

_space_group_name_H-M_alt    "P 1"
_space_group_IT_number       1

loop_
  _space_group_symop_operation_xyz
  'x, y, z'

loop_
  _atom_site_type_symbol
  _atom_site_label
  _atom_site_symmetry_multiplicity
  _atom_site_fract_x
  _atom_site_fract_y
  _atom_site_fract_z
  _atom_site_occupancy
  Y   Y1        1.0  0.86828  0.66697  0.0047  1.0000
  Y   Y2        1.0  0.36829000000000006  0.8396  0.83829  1.0000
  Y   Y3        1.0  0.36687000000000003  0.82769  0.17275000000000001  1.0000
  Y   Y4        1.0  0.63275  0.16668  0.49524  1.0000
  Y   Y5        1.0  0.13075000000000006  0.3386099999999999  0.66014  1.0000
  Y   Y6        1.0  0.13462999999999997  0.32987  0.32780999999999993  1.0000
  Y   Y7        1.0  0.13172999999999999  0.33303  0.9953  1.0000
  Y   Y8        1.0  0.63172  0.16039  0.16171  1.0000
  Y   Y9        1.0  0.63315  0.17231  0.82725  1.0000
  Y   Y10       1.0  0.36726  0.83332  0.50476  1.0000
  Y   Y11       1.0  0.86926  0.6613799999999997  0.33986  1.0000
  Y   Y12       1.0  0.8653800000000001  0.67013  0.6721899999999998  1.0000
  H   H1        1.0  0.28139000000000003  0.6117  0.00527  1.0000
  H   H2        1.0  0.68948  0.7404399999999998  0.11898999999999998  1.0000
  H   H3        1.0  0.7807100000000002  0.8938999999999998  0.84183  1.0000
  H   H4        1.0  0.18858000000000005  0.75765  0.95191  1.0000
  H   H5        1.0  0.77787  0.88038  0.17333999999999997  1.0000
  H   H6        1.0  0.18805  0.75008  0.28571  1.0000
  H   H7        1.0  0.22108  0.11128999999999997  0.4940800000000001  1.0000
  H   H8        1.0  0.81226  0.24291  0.38183  1.0000
  H   H9        1.0  0.71787  0.3925399999999999  0.65831  1.0000
  H   H10       1.0  0.30952  0.25919  0.54731  1.0000
  H   H11       1.0  0.72355  0.38249  0.32662  1.0000
  H   H12       1.0  0.31329  0.2521499999999999  0.21485  1.0000
  H   H13       1.0  0.7186200000000001  0.3883  0.9947300000000001  1.0000
  H   H14       1.0  0.31053  0.25956  0.88101  1.0000
  H   H15       1.0  0.21931  0.1061  0.15817  1.0000
  H   H16       1.0  0.81143  0.24233999999999994  0.04808  1.0000
  H   H17       1.0  0.22213999999999998  0.11962  0.8266599999999998  1.0000
  H   H18       1.0  0.8119600000000002  0.24992  0.71428  1.0000
  H   H19       1.0  0.77894  0.8887099999999998  0.50591  1.0000
  H   H20       1.0  0.18775  0.7570799999999998  0.61817  1.0000
  H   H21       1.0  0.28215000000000007  0.6074599999999998  0.34169000000000005  1.0000
  H   H22       1.0  0.69049  0.7408099999999997  0.45269  1.0000
  H   H23       1.0  0.27646  0.61751  0.67337  1.0000
  H   H24       1.0  0.6867300000000001  0.7478399999999997  0.78515  1.0000
  C   C1        1.0  0.51939  0.6300999999999998  0.0215  1.0000
  C   C2        1.0  0.19174  0.70962  0.0884  1.0000
  C   C3        1.0  0.37106  0.6404099999999998  0.0313  1.0000
  C   C4        1.0  0.34556  0.68954  0.07388  1.0000
  C   C5        1.0  0.55535  0.58286  0.97271  1.0000
  C   C6        1.0  0.59833  0.71125  0.09379  1.0000
  C   C7        1.0  0.9759700000000001  0.48892  0.027490000000000004  1.0000
  C   C8        1.0  0.018529999999999994  0.87419  0.85733  1.0000
  C   C9        1.0  0.69083  0.79051  0.92289  1.0000
  C   C10       1.0  0.8701400000000001  0.86315  0.86698  1.0000
  C   C11       1.0  0.84448  0.81096  0.9081699999999999  1.0000
  C   C12       1.0  0.05317000000000001  0.9243599999999997  0.80952  1.0000
  C   C13       1.0  0.09757999999999996  0.7883  0.9273599999999999  1.0000
  C   C14       1.0  0.4786699999999999  0.016569999999999994  0.8602399999999999  1.0000
  C   C15       1.0  0.5217699999999998  0.9956399999999996  0.8042699999999999  1.0000
  C   C16       1.0  0.01624  0.86226  0.18918  1.0000
  C   C17       1.0  0.69034  0.78074  0.25675  1.0000
  C   C18       1.0  0.86804  0.85135  0.19909  1.0000
  C   C19       1.0  0.84331  0.80138  0.24149000000000004  1.0000
  C   C20       1.0  0.052020000000000004  0.9102999999999998  0.14054  1.0000
  C   C21       1.0  0.09648  0.7797599999999998  0.26089  1.0000
  C   C22       1.0  0.98304  0.13046  0.4783899999999999  1.0000
  C   C23       1.0  0.30953  0.20923  0.40995  1.0000
  C   C24       1.0  0.13128  0.14052  0.46828  1.0000
  C   C25       1.0  0.15641999999999998  0.18991  0.42567  1.0000
  C   C26       1.0  0.94741  0.08295  0.52722  1.0000
  C   C27       1.0  0.90349  0.21285  0.4066  1.0000
  C   C28       1.0  0.52535  0.9887999999999998  0.47267  1.0000
  C   C29       1.0  0.47983  0.37391999999999986  0.64259  1.0000
  C   C30       1.0  0.8076700000000001  0.29043  0.57701  1.0000
  C   C31       1.0  0.62815  0.36279  0.63284  1.0000
  C   C32       1.0  0.65371  0.31128  0.59131  1.0000
  C   C33       1.0  0.44440999999999997  0.4224999999999999  0.69108  1.0000
  C   C34       1.0  0.40083  0.28937  0.57189  1.0000
  C   C35       1.0  0.02034999999999996  0.5154  0.6384199999999999  1.0000
  C   C36       1.0  0.97373  0.49275999999999986  0.6937  1.0000
  C   C37       1.0  0.4853  0.36403  0.31116  1.0000
  C   C38       1.0  0.8116700000000001  0.2820999999999999  0.24399  1.0000
  C   C39       1.0  0.63345  0.35321999999999987  0.30107  1.0000
  C   C40       1.0  0.65831  0.3026699999999999  0.25904  1.0000
  C   C41       1.0  0.4507300000000001  0.41093  0.36032  1.0000
  C   C42       1.0  0.405  0.28155  0.23967  1.0000
  C   C43       1.0  0.48062  0.3698899999999999  0.9785  1.0000
  C   C44       1.0  0.80827  0.29037  0.9116  1.0000
  C   C45       1.0  0.62895  0.35959  0.9687  1.0000
  C   C46       1.0  0.65445  0.3104499999999999  0.92612  1.0000
  C   C47       1.0  0.44466000000000006  0.4171399999999999  0.027290000000000002  1.0000
  C   C48       1.0  0.4016799999999999  0.28875  0.9062099999999998  1.0000
  C   C49       1.0  0.024039999999999995  0.51108  0.97251  1.0000
  C   C50       1.0  0.9814799999999999  0.1258  0.14266  1.0000
  C   C51       1.0  0.30918  0.20949  0.07711  1.0000
  C   C52       1.0  0.12987  0.13684000000000002  0.13301  1.0000
  C   C53       1.0  0.15553  0.18903  0.09183  1.0000
  C   C54       1.0  0.94685  0.07564  0.19048  1.0000
  C   C55       1.0  0.90243  0.21169  0.07263  1.0000
  C   C56       1.0  0.52135  0.9834199999999997  0.13976  1.0000
  C   C57       1.0  0.47824  0.00435  0.19573  1.0000
  C   C58       1.0  0.98377  0.13773  0.81082  1.0000
  C   C59       1.0  0.30966999999999995  0.21924999999999994  0.74325  1.0000
  C   C60       1.0  0.13197  0.14864999999999995  0.80091  1.0000
  C   C61       1.0  0.15670000000000003  0.19862  0.7585100000000001  1.0000
  C   C62       1.0  0.94799  0.0897  0.85946  1.0000
  C   C63       1.0  0.90353  0.22024  0.73911  1.0000
  C   C64       1.0  0.01697  0.8695399999999998  0.52161  1.0000
  C   C65       1.0  0.69048  0.7907599999999998  0.59005  1.0000
  C   C66       1.0  0.86873  0.8594699999999997  0.53171  1.0000
  C   C67       1.0  0.84359  0.81009  0.57433  1.0000
  C   C68       1.0  0.0526  0.91704  0.47278  1.0000
  C   C69       1.0  0.09652  0.78715  0.5934  1.0000
  C   C70       1.0  0.47466  0.0112  0.52733  1.0000
  C   C71       1.0  0.52019  0.62608  0.35741  1.0000
  C   C72       1.0  0.19235  0.70956  0.42299  1.0000
  C   C73       1.0  0.37186  0.63721  0.36716  1.0000
  C   C74       1.0  0.34630000000000005  0.6887099999999998  0.40869000000000005  1.0000
  C   C75       1.0  0.5556  0.5775  0.30892  1.0000
  C   C76       1.0  0.59918  0.71063  0.42811000000000005  1.0000
  C   C77       1.0  0.9796600000000001  0.48459  0.36158  1.0000
  C   C78       1.0  0.026280000000000005  0.50723  0.30629  1.0000
  C   C79       1.0  0.51471  0.63597  0.68883  1.0000
  C   C80       1.0  0.18833999999999995  0.7179  0.75601  1.0000
  C   C81       1.0  0.36655999999999994  0.64677  0.69893  1.0000
  C   C82       1.0  0.34171  0.69732  0.74096  1.0000
  C   C83       1.0  0.54928  0.5890699999999998  0.63967  1.0000
  C   C84       1.0  0.59501  0.71844  0.76032  1.0000
  N   N1        1.0  0.6332000000000001  0.6658999999999998  0.052890000000000006  1.0000
  N   N2        1.0  0.45941  0.72483  0.1057  1.0000
  N   N3        1.0  0.13272000000000006  0.8368899999999998  0.88782  1.0000
  N   N4        1.0  0.95863  0.77325  0.93875  1.0000
  N   N5        1.0  0.13069  0.8262999999999998  0.22035  1.0000
  N   N6        1.0  0.9578900000000001  0.76556  0.27283  1.0000
  N   N7        1.0  0.86888  0.16669999999999993  0.44727  1.0000
  N   N8        1.0  0.04213999999999998  0.22615999999999994  0.39441  1.0000
  N   N9        1.0  0.3659  0.33737  0.61164  1.0000
  N   N10       1.0  0.53976  0.2741899999999999  0.56045  1.0000
  N   N11       1.0  0.37081  0.32853  0.27998  1.0000
  N   N12       1.0  0.54363  0.26642  0.22800000000000004  1.0000
  N   N13       1.0  0.36681  0.33409  0.94711  1.0000
  N   N14       1.0  0.5406  0.27516  0.8942899999999999  1.0000
  N   N15       1.0  0.8673  0.1631  0.11218  1.0000
  N   N16       1.0  0.04139  0.22675  0.06124  1.0000
  N   N17       1.0  0.86932  0.17368999999999996  0.77965  1.0000
  N   N18       1.0  0.04211999999999994  0.23442999999999994  0.72717  1.0000
  N   N19       1.0  0.13113000000000002  0.8333  0.55273  1.0000
  N   N20       1.0  0.9578700000000001  0.77383  0.60558  1.0000
  N   N21       1.0  0.63412  0.6626199999999998  0.3883599999999999  1.0000
  N   N22       1.0  0.46024999999999994  0.72581  0.43954  1.0000
  N   N23       1.0  0.6292  0.67147  0.72002  1.0000
  N   N24       1.0  0.45637999999999995  0.7335799999999998  0.772  1.0000
  O   O1        1.0  0.69548  0.58357  0.96541  1.0000
  O   O2        1.0  0.08135  0.7044699999999998  0.0529  1.0000
  O   O3        1.0  0.9247  0.5470499999999998  0.05306  1.0000
  O   O4        1.0  0.18538000000000002  0.73327  0.13514  1.0000
  O   O5        1.0  0.99145  0.41321  0.04214  1.0000
  O   O6        1.0  0.45093  0.54978  0.94462  1.0000
  O   O7        1.0  0.19269  0.92457  0.80153  1.0000
  O   O8        1.0  0.57813  0.79982  0.88862  1.0000
  O   O9        1.0  0.42937  0.95812  0.88617  1.0000
  O   O10       1.0  0.57085  0.05417  0.77827  1.0000
  O   O11       1.0  0.68726  0.76269  0.96891  1.0000
  O   O12       1.0  0.50434  0.9202699999999998  0.78937  1.0000
  O   O13       1.0  0.49567  0.09185  0.87532  1.0000
  O   O14       1.0  0.9474599999999999  0.95865  0.78265  1.0000
  O   O15       1.0  0.19309000000000007  0.9121599999999997  0.13464  1.0000
  O   O16       1.0  0.5778900000000001  0.7873699999999998  0.2222  1.0000
  O   O17       1.0  0.68739  0.75522  0.3034  1.0000
  O   O18       1.0  0.9473999999999999  0.9412999999999998  0.11136  1.0000
  O   O19       1.0  0.8072000000000001  0.08359  0.5345  1.0000
  O   O20       1.0  0.42223  0.20413  0.44453  1.0000
  O   O21       1.0  0.57833  0.04667  0.44728  1.0000
  O   O22       1.0  0.31222  0.23253  0.36285000000000006  1.0000
  O   O23       1.0  0.51032  0.9130799999999998  0.45809  1.0000
  O   O24       1.0  0.052060000000000016  0.049869999999999984  0.55533  1.0000
  O   O25       1.0  0.30413  0.4238  0.69818  1.0000
  O   O26       1.0  0.9190200000000001  0.2996999999999999  0.6117  1.0000
  O   O27       1.0  0.06814000000000002  0.4575399999999999  0.61173  1.0000
  O   O28       1.0  0.9203100000000001  0.55017  0.71936  1.0000
  O   O29       1.0  0.81391  0.26236  0.53126  1.0000
  O   O30       1.0  0.992  0.4173099999999999  0.7085499999999999  1.0000
  O   O31       1.0  0.00707  0.59155  0.62461  1.0000
  O   O32       1.0  0.5498400000000001  0.45436  0.71932  1.0000
  O   O33       1.0  0.31065  0.41173  0.36765  1.0000
  O   O34       1.0  0.92487  0.29147  0.27795  1.0000
  O   O35       1.0  0.81507  0.2542  0.19804  1.0000
  O   O36       1.0  0.55659  0.4419299999999999  0.38882  1.0000
  O   O37       1.0  0.30453  0.4164199999999999  0.03459  1.0000
  O   O38       1.0  0.9186599999999999  0.2955299999999999  0.94709  1.0000
  O   O39       1.0  0.07530999999999997  0.45294999999999985  0.9469399999999999  1.0000
  O   O40       1.0  0.81463  0.26672  0.86486  1.0000
  O   O41       1.0  0.008560000000000033  0.58679  0.95786  1.0000
  O   O42       1.0  0.5490800000000001  0.45022  0.05538  1.0000
  O   O43       1.0  0.80733  0.07543  0.19847  1.0000
  O   O44       1.0  0.42188  0.20016999999999993  0.11137999999999999  1.0000
  O   O45       1.0  0.5706399999999999  0.04187  0.11382  1.0000
  O   O46       1.0  0.42916  0.9458199999999998  0.22173  1.0000
  O   O47       1.0  0.31276  0.2373  0.03109  1.0000
  O   O48       1.0  0.49567  0.07972999999999994  0.21063  1.0000
  O   O49       1.0  0.50434  0.9081499999999998  0.12468000000000001  1.0000
  O   O50       1.0  0.052560000000000016  0.04135  0.21735  1.0000
  O   O51       1.0  0.80692  0.08783  0.86535  1.0000
  O   O52       1.0  0.42212  0.21262  0.7778  1.0000
  O   O53       1.0  0.31262  0.24478  0.6966  1.0000
  O   O54       1.0  0.05260999999999997  0.05869999999999999  0.88864  1.0000
  O   O55       1.0  0.19282000000000002  0.9164  0.46548999999999996  1.0000
  O   O56       1.0  0.57778  0.7958599999999998  0.55546  1.0000
  O   O57       1.0  0.42168  0.95333  0.55272  1.0000
  O   O58       1.0  0.6878  0.76746  0.63714  1.0000
  O   O59       1.0  0.48969000000000007  0.08691999999999997  0.54191  1.0000
  O   O60       1.0  0.94795  0.9501299999999998  0.44467  1.0000
  O   O61       1.0  0.6958800000000002  0.57619  0.30181  1.0000
  O   O62       1.0  0.08099  0.7003  0.3883  1.0000
  O   O63       1.0  0.9318700000000001  0.54245  0.38826  1.0000
  O   O64       1.0  0.07970000000000001  0.4498299999999999  0.28064  1.0000
  O   O65       1.0  0.1861  0.73763  0.46874  1.0000
  O   O66       1.0  0.00801  0.58269  0.29145  1.0000
  O   O67       1.0  0.9929400000000002  0.40845  0.37539  1.0000
  O   O68       1.0  0.45017  0.54563  0.28067  1.0000
  O   O69       1.0  0.6893600000000001  0.58827  0.6323400000000001  1.0000
  O   O70       1.0  0.07513999999999998  0.70853  0.72205  1.0000
  O   O71       1.0  0.18493999999999994  0.74579  0.80196  1.0000
  O   O72       1.0  0.44342  0.55806  0.61118  1.0000
