data_image0
_chemical_formula_structural       Fe6H36C84S6O38
_chemical_formula_sum              "Fe6 H36 C84 S6 O38"
_cell_length_a       11.9784
_cell_length_b       12.04258
_cell_length_c       27.46087
_cell_angle_alpha    90.0
_cell_angle_beta     90.0
_cell_angle_gamma    121.05679

_space_group_name_H-M_alt    "P 1"
_space_group_IT_number       1

loop_
  _space_group_symop_operation_xyz
  'x, y, z'

loop_
  _atom_site_type_symbol
  _atom_site_label
  _atom_site_symmetry_multiplicity
  _atom_site_fract_x
  _atom_site_fract_y
  _atom_site_fract_z
  _atom_site_occupancy
  Fe  Fe1       1.0  0.51711  0.7585  0.2499  1.0000
  Fe  Fe2       1.0  0.4829  0.2415  0.7499  1.0000
  Fe  Fe3       1.0  0.7579400000000001  0.24266999999999997  0.7500399999999999  1.0000
  Fe  Fe4       1.0  0.24206000000000005  0.75733  0.25004  1.0000
  Fe  Fe5       1.0  0.75878  0.51647  0.75001  1.0000
  Fe  Fe6       1.0  0.24123000000000003  0.48353  0.25000999999999995  1.0000
  H   H1        1.0  0.70071  0.63524  0.8912899999999998  1.0000
  H   H2        1.0  0.73567  0.71654  0.54312  1.0000
  H   H3        1.0  0.7161  0.73596  0.4569199999999999  1.0000
  H   H4        1.0  0.9288200000000002  0.65296  0.8690499999999998  1.0000
  H   H5        1.0  0.27213  0.34239  0.13091  1.0000
  H   H6        1.0  0.3651400000000001  0.29906  0.6081199999999999  1.0000
  H   H7        1.0  0.65746  0.72797  0.36908999999999986  1.0000
  H   H8        1.0  0.36741  0.06619  0.8922399999999998  1.0000
  H   H9        1.0  0.9335200000000001  0.30151  0.8913199999999998  1.0000
  H   H10       1.0  0.7278700000000001  0.65761  0.6309099999999999  1.0000
  H   H11       1.0  0.65451  0.9293299999999999  0.13091  1.0000
  H   H12       1.0  0.07119000000000003  0.34705  0.3690499999999999  1.0000
  H   H13       1.0  0.26433  0.28346  0.04311999999999999  1.0000
  H   H14       1.0  0.3455  0.07066999999999998  0.6309099999999999  1.0000
  H   H15       1.0  0.7129100000000002  0.97989  0.04301  1.0000
  H   H16       1.0  0.06668000000000004  0.36842  0.10794  1.0000
  H   H17       1.0  0.92917  0.27603  0.6313299999999997  1.0000
  H   H18       1.0  0.06648000000000005  0.69849  0.3913199999999999  1.0000
  H   H19       1.0  0.6326  0.93381  0.39224  1.0000
  H   H20       1.0  0.019670000000000003  0.73157  0.04355999999999999  1.0000
  H   H21       1.0  0.27516  0.92991  0.3687199999999999  1.0000
  H   H22       1.0  0.26738999999999996  0.9808899999999999  0.4564699999999999  1.0000
  H   H23       1.0  0.30127999999999994  0.9345299999999999  0.1091  1.0000
  H   H24       1.0  0.07084  0.72397  0.13133  1.0000
  H   H25       1.0  0.73261  0.019109999999999995  0.9564699999999998  1.0000
  H   H26       1.0  0.019979999999999998  0.28838  0.4568999999999999  1.0000
  H   H27       1.0  0.28391  0.26405  0.9569199999999999  1.0000
  H   H28       1.0  0.98002  0.7116299999999999  0.9568999999999998  1.0000
  H   H29       1.0  0.3425500000000001  0.27203  0.86909  1.0000
  H   H30       1.0  0.72484  0.07009  0.8687199999999998  1.0000
  H   H31       1.0  0.29929  0.36477  0.3912899999999999  1.0000
  H   H32       1.0  0.28709  0.02011  0.5430099999999999  1.0000
  H   H33       1.0  0.6348599999999999  0.7009399999999999  0.10811999999999997  1.0000
  H   H34       1.0  0.9803300000000003  0.26843  0.54356  1.0000
  H   H35       1.0  0.9333200000000001  0.63158  0.60794  1.0000
  H   H36       1.0  0.6987200000000001  0.06547  0.6091  1.0000
  C   C1        1.0  0.45215  0.55694  0.17655999999999997  1.0000
  C   C2        1.0  0.05787000000000005  0.64836  0.10623  1.0000
  C   C3        1.0  0.10244999999999994  0.5560699999999998  0.32281  1.0000
  C   C4        1.0  0.05815000000000001  0.40974  0.39390999999999987  1.0000
  C   C5        1.0  0.5913899999999999  0.9422799999999999  0.10610999999999997  1.0000
  C   C6        1.0  0.55362  0.9439  0.40642  1.0000
  C   C7        1.0  0.38936  0.44498  0.40576  1.0000
  C   C8        1.0  0.64884  0.05734  0.89381  1.0000
  C   C9        1.0  0.65074  0.5934  0.60598  1.0000
  C   C10       1.0  0.65533  0.6259  0.55707  1.0000
  C   C11       1.0  0.55559  0.10303999999999999  0.6772299999999998  1.0000
  C   C12       1.0  0.4067  0.34918  0.89392  1.0000
  C   C13       1.0  0.96959  0.62251  0.9428499999999997  1.0000
  C   C14       1.0  0.53951  0.5546299999999998  0.4738799999999999  1.0000
  C   C15       1.0  0.45294  0.52379  0.12472999999999997  1.0000
  C   C16       1.0  0.45298  0.89553  0.32346  1.0000
  C   C17       1.0  0.5933  0.6508199999999998  0.39392  1.0000
  C   C18       1.0  0.55458  0.53978  0.5259  1.0000
  C   C19       1.0  0.029009999999999987  0.4531  0.04527  1.0000
  C   C20       1.0  0.60979  0.055709999999999996  0.5945099999999998  1.0000
  C   C21       1.0  0.9847  0.5385999999999999  0.9739499999999999  1.0000
  C   C22       1.0  0.54786  0.44305999999999995  0.67656  1.0000
  C   C23       1.0  0.4086100000000001  0.057719999999999994  0.6061099999999998  1.0000
  C   C24       1.0  0.42306  0.4512  0.4542799999999999  1.0000
  C   C25       1.0  0.056420000000000005  0.60983  0.4057699999999999  1.0000
  C   C26       1.0  0.46049  0.44537  0.9738799999999997  1.0000
  C   C27       1.0  0.9289999999999998  0.47536999999999996  0.87487  1.0000
  C   C28       1.0  0.45261000000000007  0.028349999999999997  0.9548299999999997  1.0000
  C   C29       1.0  0.34926  0.4066  0.10597999999999998  1.0000
  C   C30       1.0  0.5466900000000002  0.071  0.8752499999999998  1.0000
  C   C31       1.0  0.4454199999999999  0.4602299999999999  0.0259  1.0000
  C   C32       1.0  0.10383  0.54657  0.17664  1.0000
  C   C33       1.0  0.47628  0.54705  0.37499  1.0000
  C   C34       1.0  0.45331  0.92901  0.37525  1.0000
  C   C35       1.0  0.9710700000000002  0.42381  0.9542999999999999  1.0000
  C   C36       1.0  0.02892999999999998  0.5762  0.45429999999999987  1.0000
  C   C37       1.0  0.34468000000000004  0.37411  0.05706999999999999  1.0000
  C   C38       1.0  0.96996  0.34712  0.5573399999999998  1.0000
  C   C39       1.0  0.65346  0.02946  0.9426999999999999  1.0000
  C   C40       1.0  0.34654999999999986  0.9705399999999998  0.44269999999999987  1.0000
  C   C41       1.0  0.4451800000000001  0.38932999999999995  0.5937999999999998  1.0000
  C   C42       1.0  0.45143  0.42318  0.5453299999999999  1.0000
  C   C43       1.0  0.5474  0.9716599999999997  0.4548299999999999  1.0000
  C   C44       1.0  0.4236399999999999  0.9713999999999999  0.04592  1.0000
  C   C45       1.0  0.57695  0.54881  0.9542799999999998  1.0000
  C   C46       1.0  0.62557  0.65551  0.44285999999999986  1.0000
  C   C47       1.0  0.94213  0.35165  0.60623  1.0000
  C   C48       1.0  0.55483  0.61068  0.09379999999999998  1.0000
  C   C49       1.0  0.9435900000000002  0.39017  0.90577  1.0000
  C   C50       1.0  0.54706  0.47621  0.62473  1.0000
  C   C51       1.0  0.07099999999999998  0.52464  0.37487  1.0000
  C   C52       1.0  0.39021  0.9443  0.09450999999999997  1.0000
  C   C53       1.0  0.52402  0.07056  0.62525  1.0000
  C   C54       1.0  0.05656000000000002  0.44691  0.0937  1.0000
  C   C55       1.0  0.37443  0.3445  0.94286  1.0000
  C   C56       1.0  0.07118  0.5466  0.12482999999999997  1.0000
  C   C57       1.0  0.89756  0.44393  0.8228099999999998  1.0000
  C   C58       1.0  0.44353  0.548  0.32312  1.0000
  C   C59       1.0  0.55648  0.45201  0.8231199999999997  1.0000
  C   C60       1.0  0.55423  0.014889999999999999  0.97414  1.0000
  C   C61       1.0  0.03004999999999994  0.6528799999999999  0.05733999999999999  1.0000
  C   C62       1.0  0.52373  0.4529599999999999  0.8749899999999998  1.0000
  C   C63       1.0  0.46114  0.0153  0.5261699999999998  1.0000
  C   C64       1.0  0.54703  0.10446999999999998  0.8234599999999999  1.0000
  C   C65       1.0  0.97099  0.5469  0.54527  1.0000
  C   C66       1.0  0.44442  0.89696  0.17722999999999994  1.0000
  C   C67       1.0  0.54857  0.57683  0.04533  1.0000
  C   C68       1.0  0.4457800000000001  0.9851199999999999  0.4741399999999999  1.0000
  C   C69       1.0  0.015299999999999968  0.46140999999999993  0.47394999999999987  1.0000
  C   C70       1.0  0.030419999999999996  0.37749  0.4428499999999999  1.0000
  C   C71       1.0  0.9434400000000001  0.55309  0.5937  1.0000
  C   C72       1.0  0.61064  0.55502  0.9057599999999998  1.0000
  C   C73       1.0  0.57637  0.028609999999999997  0.54592  1.0000
  C   C74       1.0  0.015300000000000006  0.55409  0.02594  1.0000
  C   C75       1.0  0.9288200000000002  0.45341  0.6248299999999998  1.0000
  C   C76       1.0  0.89617  0.45343  0.67664  1.0000
  C   C77       1.0  0.37654  0.030289999999999997  0.55715  1.0000
  C   C78       1.0  0.9418500000000001  0.59027  0.8939099999999998  1.0000
  C   C79       1.0  0.4759900000000001  0.92945  0.12525  1.0000
  C   C80       1.0  0.53886  0.9846999999999999  0.026169999999999992  1.0000
  C   C81       1.0  0.9847  0.4459199999999999  0.5259399999999997  1.0000
  C   C82       1.0  0.44638  0.05609999999999999  0.90642  1.0000
  C   C83       1.0  0.3511600000000001  0.94267  0.39381  1.0000
  C   C84       1.0  0.62346  0.96972  0.05714999999999999  1.0000
  S   S1        1.0  0.66527  0.00037  0.50036  1.0000
  S   S2        1.0  0.99952  0.33555  0.9997999999999999  1.0000
  S   S3        1.0  0.0004800000000000467  0.66446  0.4998  1.0000
  S   S4        1.0  0.66771  0.6677  0.9998299999999999  1.0000
  S   S5        1.0  0.33229  0.3323  0.49982999999999994  1.0000
  S   S6        1.0  0.33473  0.99963  0.0003599999999999999  1.0000
  O   O1        1.0  0.46043000000000006  0.32905  0.69094  1.0000
  O   O2        1.0  0.11722  0.33301  0.9880899999999998  1.0000
  O   O3        1.0  0.7889200000000001  0.11771999999999999  0.48842999999999986  1.0000
  O   O4        1.0  0.5395800000000001  0.67095  0.19094  1.0000
  O   O5        1.0  0.21109000000000003  0.88228  0.9884299999999998  1.0000
  O   O6        1.0  0.53007  0.89351  0.20441  1.0000
  O   O7        1.0  0.36285  0.47048999999999996  0.20422999999999994  1.0000
  O   O8        1.0  0.78966  0.6736  0.011669999999999996  1.0000
  O   O9        1.0  0.32715  0.21123  0.4882  1.0000
  O   O10       1.0  0.67285  0.78877  0.9881999999999999  1.0000
  O   O11       1.0  0.53036  0.63745  0.29563999999999996  1.0000
  O   O12       1.0  0.8827899999999999  0.6669999999999999  0.48809  1.0000
  O   O13       1.0  0.6676299999999998  0.33272  0.75001  1.0000
  O   O14       1.0  0.8733800000000002  0.33241  0.8075499999999999  1.0000
  O   O15       1.0  0.8944300000000002  0.52903  0.7954699999999998  1.0000
  O   O16       1.0  0.21034999999999998  0.3264099999999999  0.51167  1.0000
  O   O17       1.0  0.63715  0.52951  0.7042299999999998  1.0000
  O   O18       1.0  0.88093  0.21308  0.011719999999999996  1.0000
  O   O19       1.0  0.46992999999999996  0.10648999999999999  0.7044099999999999  1.0000
  O   O20       1.0  0.33296  0.11716999999999998  0.01193  1.0000
  O   O21       1.0  0.46964  0.36255  0.79564  1.0000
  O   O22       1.0  0.6679  0.12786999999999998  0.6925199999999998  1.0000
  O   O23       1.0  0.32936  0.46042  0.30849  1.0000
  O   O24       1.0  0.36571000000000004  0.89386  0.2954799999999999  1.0000
  O   O25       1.0  0.10578000000000003  0.63357  0.20456999999999995  1.0000
  O   O26       1.0  0.63429  0.10615  0.79548  1.0000
  O   O27       1.0  0.53808  0.86798  0.3092599999999999  1.0000
  O   O28       1.0  0.33237999999999995  0.66728  0.25000999999999995  1.0000
  O   O29       1.0  0.67064  0.5395799999999998  0.80849  1.0000
  O   O30       1.0  0.10558000000000001  0.47097  0.29547  1.0000
  O   O31       1.0  0.12661999999999998  0.66759  0.30755  1.0000
  O   O32       1.0  0.89422  0.36643  0.70457  1.0000
  O   O33       1.0  0.3321  0.87214  0.19251999999999994  1.0000
  O   O34       1.0  0.11906999999999988  0.7869299999999999  0.5117199999999998  1.0000
  O   O35       1.0  0.66704  0.88283  0.51193  1.0000
  O   O36       1.0  0.13038999999999998  0.46114  0.19094999999999995  1.0000
  O   O37       1.0  0.86961  0.53886  0.69095  1.0000
  O   O38       1.0  0.46192  0.13202  0.80926  1.0000
