data_image0
_chemical_formula_structural       In4H40C74O40
_chemical_formula_sum              "In4 H40 C74 O40"
_cell_length_a       12.77295
_cell_length_b       13.71421
_cell_length_c       25.32187
_cell_angle_alpha    90.0
_cell_angle_beta     90.0
_cell_angle_gamma    90.0

_space_group_name_H-M_alt    "P 1"
_space_group_IT_number       1

loop_
  _space_group_symop_operation_xyz
  'x, y, z'

loop_
  _atom_site_type_symbol
  _atom_site_label
  _atom_site_symmetry_multiplicity
  _atom_site_fract_x
  _atom_site_fract_y
  _atom_site_fract_z
  _atom_site_occupancy
  In  In1       1.0  0.4999999999999999  0.09126000000000002  0.7499999999999998  1.0000
  In  In2       1.0  0.4999999999999999  0.9087400000000002  0.25  1.0000
  In  In3       1.0  0.9939699999999998  0.0  0.0  1.0000
  In  In4       1.0  0.00602  0.0  0.5  1.0000
  H   H1        1.0  0.7475199999999997  0.9781800000000003  0.8664399999999998  1.0000
  H   H2        1.0  0.9583199999999997  0.7336800000000001  0.8667699999999998  1.0000
  H   H3        1.0  0.72716  0.7647800000000001  0.74203  1.0000
  H   H4        1.0  0.00925  0.30269  0.61069  1.0000
  H   H5        1.0  0.74163  0.11109000000000002  0.61332  1.0000
  H   H6        1.0  0.7605  0.3455400000000001  0.7253999999999998  1.0000
  H   H7        1.0  0.9346899999999998  0.55559  0.82922  1.0000
  H   H8        1.0  0.025029999999999993  0.6472100000000001  0.80772  1.0000
  H   H9        1.0  0.88674  0.41951  0.76236  1.0000
  H   H10       1.0  0.8419499999999998  0.5131600000000002  0.71852  1.0000
  H   H11       1.0  0.25248  0.021820000000000006  0.3664399999999999  1.0000
  H   H12       1.0  0.04167999999999999  0.26632000000000006  0.36677  1.0000
  H   H13       1.0  0.27282999999999996  0.23522000000000007  0.24203  1.0000
  H   H14       1.0  0.9907499999999998  0.6973000000000003  0.11069  1.0000
  H   H15       1.0  0.25837  0.8889000000000002  0.11331999999999998  1.0000
  H   H16       1.0  0.23949999999999996  0.6544500000000002  0.22539999999999993  1.0000
  H   H17       1.0  0.06530999999999999  0.4444100000000001  0.32922  1.0000
  H   H18       1.0  0.97496  0.3527900000000001  0.30773  1.0000
  H   H19       1.0  0.11325999999999997  0.58048  0.26236  1.0000
  H   H20       1.0  0.15805  0.48684  0.21852  1.0000
  H   H21       1.0  0.25248  0.9781800000000003  0.6335599999999999  1.0000
  H   H22       1.0  0.04167999999999999  0.7336800000000001  0.6332299999999998  1.0000
  H   H23       1.0  0.27282999999999996  0.7647800000000001  0.75797  1.0000
  H   H24       1.0  0.9907499999999998  0.30269  0.88931  1.0000
  H   H25       1.0  0.25837  0.11109000000000002  0.8866799999999999  1.0000
  H   H26       1.0  0.23949999999999996  0.3455400000000001  0.7745999999999998  1.0000
  H   H27       1.0  0.06530999999999999  0.55559  0.67078  1.0000
  H   H28       1.0  0.97496  0.6472100000000001  0.69227  1.0000
  H   H29       1.0  0.11325999999999997  0.41951  0.73764  1.0000
  H   H30       1.0  0.15805  0.5131600000000002  0.78148  1.0000
  H   H31       1.0  0.7475199999999997  0.021820000000000006  0.13356  1.0000
  H   H32       1.0  0.9583199999999997  0.26632000000000006  0.13323  1.0000
  H   H33       1.0  0.72716  0.23522000000000007  0.25797  1.0000
  H   H34       1.0  0.00925  0.6973000000000003  0.38931  1.0000
  H   H35       1.0  0.74163  0.8889000000000002  0.38668  1.0000
  H   H36       1.0  0.7605  0.6544500000000002  0.2746  1.0000
  H   H37       1.0  0.9346899999999998  0.4444100000000001  0.17078  1.0000
  H   H38       1.0  0.025029999999999993  0.3527900000000001  0.19227  1.0000
  H   H39       1.0  0.88674  0.58048  0.23763999999999993  1.0000
  H   H40       1.0  0.8419499999999998  0.48684  0.28148  1.0000
  C   C1        1.0  0.77427  0.91093  0.84817  1.0000
  C   C2        1.0  0.85732  0.8580900000000002  0.87093  1.0000
  C   C3        1.0  0.8932699999999999  0.77149  0.84822  1.0000
  C   C4        1.0  0.8451099999999998  0.7379100000000002  0.8019899999999999  1.0000
  C   C5        1.0  0.76262  0.7906300000000003  0.77848  1.0000
  C   C6        1.0  0.72808  0.8771900000000002  0.80139  1.0000
  C   C7        1.0  0.6454  0.9360600000000002  0.7738  1.0000
  C   C8        1.0  0.9100899999999997  0.8984000000000001  0.9186699999999998  1.0000
  C   C9        1.0  0.88922  0.3366  0.6686  1.0000
  C   C10       1.0  0.93327  0.28262  0.62682  1.0000
  C   C11       1.0  0.88001  0.20152  0.60732  1.0000
  C   C12       1.0  0.7828199999999997  0.17434000000000005  0.62881  1.0000
  C   C13       1.0  0.74171  0.22662000000000004  0.6717099999999999  1.0000
  C   C14       1.0  0.7941299999999998  0.30819  0.69162  1.0000
  C   C15       1.0  0.9299999999999998  0.13797000000000004  0.56647  1.0000
  C   C16       1.0  0.64686  0.18930000000000005  0.69968  1.0000
  C   C17       1.0  0.9609099999999999  0.5990200000000002  0.79525  1.0000
  C   C18       1.0  0.9099  0.4691900000000001  0.7303699999999999  1.0000
  C   C19       1.0  0.22573  0.08907  0.34817  1.0000
  C   C20       1.0  0.14268  0.14191000000000004  0.37093  1.0000
  C   C21       1.0  0.10673  0.22851  0.34822  1.0000
  C   C22       1.0  0.15489  0.26209000000000005  0.30199  1.0000
  C   C23       1.0  0.23738  0.20937000000000006  0.27848  1.0000
  C   C24       1.0  0.27190999999999993  0.12280000000000003  0.30139  1.0000
  C   C25       1.0  0.3546  0.06393  0.2738  1.0000
  C   C26       1.0  0.08990999999999998  0.10160000000000002  0.41866999999999993  1.0000
  C   C27       1.0  0.11078  0.6634  0.1686  1.0000
  C   C28       1.0  0.06672  0.71738  0.12682  1.0000
  C   C29       1.0  0.11999  0.79847  0.10731999999999998  1.0000
  C   C30       1.0  0.21718  0.8256500000000001  0.12881  1.0000
  C   C31       1.0  0.25829  0.7733700000000002  0.17171  1.0000
  C   C32       1.0  0.20586999999999994  0.6918000000000002  0.19161999999999998  1.0000
  C   C33       1.0  0.06999  0.86203  0.06647  1.0000
  C   C34       1.0  0.3531399999999999  0.8107000000000001  0.19967999999999994  1.0000
  C   C35       1.0  0.03908  0.40097  0.29525  1.0000
  C   C36       1.0  0.0901  0.5308  0.23037  1.0000
  C   C37       1.0  0.22573  0.91093  0.65183  1.0000
  C   C38       1.0  0.14268  0.8580900000000002  0.62907  1.0000
  C   C39       1.0  0.10673  0.77149  0.65178  1.0000
  C   C40       1.0  0.15489  0.7379100000000002  0.69801  1.0000
  C   C41       1.0  0.23738  0.7906300000000003  0.72152  1.0000
  C   C42       1.0  0.27190999999999993  0.8771900000000002  0.69861  1.0000
  C   C43       1.0  0.3546  0.9360600000000002  0.7262  1.0000
  C   C44       1.0  0.08990999999999998  0.8984000000000001  0.58133  1.0000
  C   C45       1.0  0.11078  0.3366  0.8314  1.0000
  C   C46       1.0  0.06672  0.28262  0.8731799999999998  1.0000
  C   C47       1.0  0.11999  0.20152  0.89268  1.0000
  C   C48       1.0  0.21718  0.17434000000000005  0.87119  1.0000
  C   C49       1.0  0.25829  0.22662000000000004  0.82829  1.0000
  C   C50       1.0  0.20586999999999994  0.30819  0.80838  1.0000
  C   C51       1.0  0.06999  0.13797000000000004  0.9335299999999997  1.0000
  C   C52       1.0  0.3531399999999999  0.18930000000000005  0.80032  1.0000
  C   C53       1.0  0.03908  0.5990200000000002  0.7047499999999999  1.0000
  C   C54       1.0  0.0901  0.4691900000000001  0.7696299999999998  1.0000
  C   C55       1.0  0.77427  0.08907  0.15183  1.0000
  C   C56       1.0  0.85732  0.14191000000000004  0.12907  1.0000
  C   C57       1.0  0.8932699999999999  0.22851  0.15178  1.0000
  C   C58       1.0  0.8451099999999998  0.26209000000000005  0.19801  1.0000
  C   C59       1.0  0.76262  0.20937000000000006  0.22152  1.0000
  C   C60       1.0  0.72808  0.12280000000000003  0.19861  1.0000
  C   C61       1.0  0.6454  0.06393  0.2262  1.0000
  C   C62       1.0  0.9100899999999997  0.10160000000000002  0.08132999999999997  1.0000
  C   C63       1.0  0.88922  0.6634  0.33139999999999986  1.0000
  C   C64       1.0  0.93327  0.71738  0.37318  1.0000
  C   C65       1.0  0.88001  0.79847  0.39267999999999986  1.0000
  C   C66       1.0  0.7828199999999997  0.8256500000000001  0.3711899999999999  1.0000
  C   C67       1.0  0.74171  0.7733700000000002  0.32829  1.0000
  C   C68       1.0  0.7941299999999998  0.6918000000000002  0.30838  1.0000
  C   C69       1.0  0.9299999999999998  0.86203  0.4335299999999999  1.0000
  C   C70       1.0  0.64686  0.8107000000000001  0.30032  1.0000
  C   C71       1.0  0.9609099999999999  0.40097  0.20475  1.0000
  C   C72       1.0  0.9099  0.5308  0.26963  1.0000
  C   C73       1.0  0.0  0.53386  0.7499999999999998  1.0000
  C   C74       1.0  0.0  0.46613  0.25  1.0000
  O   O1        1.0  0.6128999999999999  0.9095900000000002  0.72956  1.0000
  O   O2        1.0  0.61419  0.01434  0.7980299999999999  1.0000
  O   O3        1.0  0.8581399999999999  0.9584300000000001  0.94724  1.0000
  O   O4        1.0  0.00453  0.8768100000000002  0.92902  1.0000
  O   O5        1.0  0.02607  0.14788  0.55526  1.0000
  O   O6        1.0  0.8739399999999998  0.07064000000000001  0.54518  1.0000
  O   O7        1.0  0.5927799999999999  0.12217000000000001  0.6771099999999999  1.0000
  O   O8        1.0  0.62483  0.21928000000000006  0.74592  1.0000
  O   O9        1.0  0.87441  0.65576  0.77514  1.0000
  O   O10       1.0  0.9475399999999998  0.41433000000000003  0.68558  1.0000
  O   O11       1.0  0.3871  0.09041000000000003  0.22955999999999993  1.0000
  O   O12       1.0  0.38580999999999993  0.98565  0.29803  1.0000
  O   O13       1.0  0.14185999999999999  0.04156  0.44724  1.0000
  O   O14       1.0  0.99547  0.12318000000000003  0.4290199999999999  1.0000
  O   O15       1.0  0.97393  0.8521200000000002  0.05526  1.0000
  O   O16       1.0  0.12606  0.9293600000000002  0.04518  1.0000
  O   O17       1.0  0.40722  0.87782  0.17711  1.0000
  O   O18       1.0  0.3751699999999999  0.78071  0.24591999999999997  1.0000
  O   O19       1.0  0.12558999999999998  0.3442300000000001  0.27514  1.0000
  O   O20       1.0  0.05246  0.58567  0.18558  1.0000
  O   O21       1.0  0.3871  0.9095900000000002  0.7704399999999999  1.0000
  O   O22       1.0  0.38580999999999993  0.01434  0.70197  1.0000
  O   O23       1.0  0.14185999999999999  0.9584300000000001  0.55276  1.0000
  O   O24       1.0  0.99547  0.8768100000000002  0.57098  1.0000
  O   O25       1.0  0.97393  0.14788  0.94474  1.0000
  O   O26       1.0  0.12606  0.07064000000000001  0.95482  1.0000
  O   O27       1.0  0.40722  0.12217000000000001  0.82289  1.0000
  O   O28       1.0  0.3751699999999999  0.21928000000000006  0.75408  1.0000
  O   O29       1.0  0.12558999999999998  0.65576  0.72486  1.0000
  O   O30       1.0  0.05246  0.41433000000000003  0.81442  1.0000
  O   O31       1.0  0.6128999999999999  0.09041000000000003  0.27044  1.0000
  O   O32       1.0  0.61419  0.98565  0.20196999999999996  1.0000
  O   O33       1.0  0.8581399999999999  0.04156  0.05276  1.0000
  O   O34       1.0  0.00453  0.12318000000000003  0.07098  1.0000
  O   O35       1.0  0.02607  0.8521200000000002  0.44473999999999997  1.0000
  O   O36       1.0  0.8739399999999998  0.9293600000000002  0.45481999999999995  1.0000
  O   O37       1.0  0.5927799999999999  0.87782  0.32289  1.0000
  O   O38       1.0  0.62483  0.78071  0.25408  1.0000
  O   O39       1.0  0.87441  0.3442300000000001  0.22486  1.0000
  O   O40       1.0  0.9475399999999998  0.58567  0.31442  1.0000
