data_image0
_chemical_formula_structural       Ni2H72C72S12N12
_chemical_formula_sum              "Ni2 H72 C72 S12 N12"
_cell_length_a       14.4046
_cell_length_b       14.41782
_cell_length_c       14.686569999999998
_cell_angle_alpha    68.90709
_cell_angle_beta     68.94651
_cell_angle_gamma    67.73619

_symmetry_space_group_name_H-M    'P 1'
_symmetry_Int_Tables_number       1

loop_
  _symmetry_equiv_pos_as_xyz
  'x,y,z'

loop_
  _atom_site_type_symbol
  _atom_site_label
  _atom_site_symmetry_multiplicity
  _atom_site_fract_x
  _atom_site_fract_y
  _atom_site_fract_z
  _atom_site_occupancy
  Ni  Ni1       1.0  0.20604  0.24773000000000003  0.29407  1.0000
  Ni  Ni2       1.0  0.7476800000000001  0.70615  0.79385  1.0000
  H   H1        1.0  0.8105500000000001  0.48442999999999997  0.85942  1.0000
  H   H2        1.0  0.9138399999999999  0.30103  0.91889  1.0000
  H   H3        1.0  0.07266000000000003  0.21965000000000004  0.79358  1.0000
  H   H4        1.0  0.11709999999999995  0.32680000000000003  0.61631  1.0000
  H   H5        1.0  0.10699999999999997  0.47804000000000013  0.5063  1.0000
  H   H6        1.0  0.011170000000000013  0.59496  0.53445  1.0000
  H   H7        1.0  0.8525799999999998  0.80855  0.47677  1.0000
  H   H8        1.0  0.9227200000000001  0.90509  0.30034  1.0000
  H   H9        1.0  0.8028999999999998  0.07126  0.21747  1.0000
  H   H10       1.0  0.61975  0.13005000000000003  0.31616999999999995  1.0000
  H   H11       1.0  0.49563999999999997  0.12147  0.45626  1.0000
  H   H12       1.0  0.5199200000000002  0.028460000000000003  0.57239  1.0000
  H   H13       1.0  0.48162  0.8454500000000001  0.79095  1.0000
  H   H14       1.0  0.30826000000000015  0.92665  0.8936299999999999  1.0000
  H   H15       1.0  0.22867000000000004  0.81686  0.06268  1.0000
  H   H16       1.0  0.32698  0.63057  0.11695  1.0000
  H   H17       1.0  0.47279999999999994  0.50589  0.10874  1.0000
  H   H18       1.0  0.5876899999999999  0.52355  0.00902  1.0000
  H   H19       1.0  0.63545  0.0302  0.69677  1.0000
  H   H20       1.0  0.56576  0.20579000000000003  0.58989  1.0000
  H   H21       1.0  0.68744  0.282  0.42895  1.0000
  H   H22       1.0  0.8712300000000001  0.17384  0.38227  1.0000
  H   H23       1.0  0.98609  0.020149999999999998  0.39392  1.0000
  H   H24       1.0  0.96263  0.9099799999999999  0.49791  1.0000
  H   H25       1.0  0.002750000000000002  0.70345  0.67209  1.0000
  H   H26       1.0  0.17934000000000003  0.60609  0.5874  1.0000
  H   H27       1.0  0.2722799999999999  0.43276  0.68997  1.0000
  H   H28       1.0  0.18654000000000004  0.37208  0.8713099999999999  1.0000
  H   H29       1.0  0.05188  0.37776  0.00173  1.0000
  H   H30       1.0  0.92709  0.46633  0.98788  1.0000
  H   H31       1.0  0.6867200000000004  0.63507  0.01775  1.0000
  H   H32       1.0  0.5930999999999998  0.5798  0.19956999999999997  1.0000
  H   H33       1.0  0.43712  0.71214  0.27759  1.0000
  H   H34       1.0  0.38393  0.89179  0.16868  1.0000
  H   H35       1.0  0.39079  0.00442  0.02141  1.0000
  H   H36       1.0  0.4832099999999997  0.9737500000000001  0.9073199999999999  1.0000
  H   H37       1.0  0.20479  0.50245  0.17129  1.0000
  H   H38       1.0  0.10718  0.6786  0.08584  1.0000
  H   H39       1.0  0.9339300000000001  0.77173  0.18799  1.0000
  H   H40       1.0  0.87302  0.6866599999999999  0.3698  1.0000
  H   H41       1.0  0.87865  0.55257  0.50033  1.0000
  H   H42       1.0  0.96678  0.42755999999999994  0.48677  1.0000
  H   H43       1.0  0.13422999999999996  0.18849000000000002  0.51763  1.0000
  H   H44       1.0  0.07907000000000002  0.09338999999999999  0.69883  1.0000
  H   H45       1.0  0.21132  0.93673  0.77631  1.0000
  H   H46       1.0  0.39122000000000007  0.8844399999999999  0.66735  1.0000
  H   H47       1.0  0.50335  0.89178  0.51879  1.0000
  H   H48       1.0  0.47189  0.98639  0.40592  1.0000
  H   H49       1.0  0.53157  0.13618000000000002  0.1965  1.0000
  H   H50       1.0  0.70665  0.06661999999999997  0.08895  1.0000
  H   H51       1.0  0.7823400000000001  0.18873  0.92795  1.0000
  H   H52       1.0  0.67381  0.37265999999999994  0.88162  1.0000
  H   H53       1.0  0.51971  0.48705000000000004  0.8940699999999999  1.0000
  H   H54       1.0  0.4100500000000001  0.46297999999999995  0.99833  1.0000
  H   H55       1.0  0.34473  0.98329  0.29147  1.0000
  H   H56       1.0  0.4262600000000001  0.80917  0.39325  1.0000
  H   H57       1.0  0.31615  0.72851  0.56147  1.0000
  H   H58       1.0  0.12992000000000004  0.82628  0.61608  1.0000
  H   H59       1.0  0.004890000000000017  0.97319  0.60863  1.0000
  H   H60       1.0  0.02235  0.08796999999999999  0.50871  1.0000
  H   H61       1.0  0.98458  0.31024  0.36014  1.0000
  H   H62       1.0  0.8012  0.41384  0.41948  1.0000
  H   H63       1.0  0.7200400000000001  0.57279  0.29387  1.0000
  H   H64       1.0  0.8269200000000001  0.61665  0.11649999999999999  1.0000
  H   H65       1.0  0.97874  0.60602  0.00654  1.0000
  H   H66       1.0  0.09534999999999999  0.50965  0.03527  1.0000
  H   H67       1.0  0.30843  0.35266999999999993  0.97871  1.0000
  H   H68       1.0  0.40320000000000017  0.42303  0.80145  1.0000
  H   H69       1.0  0.56966  0.30387999999999993  0.71822  1.0000
  H   H70       1.0  0.62961  0.12113000000000003  0.81645  1.0000
  H   H71       1.0  0.6211699999999999  0.9955999999999999  0.95519  1.0000
  H   H72       1.0  0.53029  0.01918  0.07242  1.0000
  C   C1        1.0  0.9056100000000001  0.50691  0.7082  1.0000
  C   C2        1.0  0.8788  0.44639000000000006  0.80855  1.0000
  C   C3        1.0  0.9365099999999998  0.34494  0.84093  1.0000
  C   C4        1.0  0.024900000000000044  0.29890999999999995  0.7718  1.0000
  C   C5        1.0  0.05130000000000002  0.35669999999999996  0.67419  1.0000
  C   C6        1.0  0.024709999999999968  0.51398  0.53716  1.0000
  C   C7        1.0  0.6986  0.91112  0.49313  1.0000
  C   C8        1.0  0.8038  0.8790100000000001  0.43772000000000005  1.0000
  C   C9        1.0  0.8421499999999998  0.93354  0.34054  1.0000
  C   C10       1.0  0.7761500000000002  0.026069999999999996  0.29362  1.0000
  C   C11       1.0  0.67506  0.059659999999999984  0.34664  1.0000
  C   C12       1.0  0.52716  0.03956000000000001  0.49248  1.0000
  C   C13       1.0  0.4992300000000001  0.69457  0.89442  1.0000
  C   C14       1.0  0.4442700000000001  0.8009199999999999  0.86302  1.0000
  C   C15       1.0  0.34876  0.84531  0.92068  1.0000
  C   C16       1.0  0.30334999999999995  0.78471  0.01476  1.0000
  C   C17       1.0  0.35642  0.6824  0.04622  1.0000
  C   C18       1.0  0.50507  0.52978  0.02703  1.0000
  C   C19       1.0  0.79159  0.006919999999999994  0.60374  1.0000
  C   C20       1.0  0.68493  0.06601000000000001  0.6278399999999998  1.0000
  C   C21       1.0  0.64709  0.16252999999999998  0.5678  1.0000
  C   C22       1.0  0.71388  0.20553  0.47751  1.0000
  C   C23       1.0  0.81504  0.14733  0.45056  1.0000
  C   C24       1.0  0.9601499999999998  0.99195  0.47602  1.0000
  C   C25       1.0  0.9961999999999999  0.59294  0.81558  1.0000
  C   C26       1.0  0.04606000000000001  0.62988  0.71296  1.0000
  C   C27       1.0  0.14350000000000018  0.5753499999999998  0.6665  1.0000
  C   C28       1.0  0.19642999999999997  0.47946  0.72317  1.0000
  C   C29       1.0  0.14991  0.44404  0.82314  1.0000
  C   C30       1.0  0.008820000000000036  0.45916000000000007  0.9766099999999999  1.0000
  C   C31       1.0  0.5903100000000001  0.79136  0.99403  1.0000
  C   C32       1.0  0.61989  0.6890600000000001  0.05431999999999999  1.0000
  C   C33       1.0  0.56718  0.65894  0.15508000000000002  1.0000
  C   C34       1.0  0.48042999999999997  0.732  0.19913  1.0000
  C   C35       1.0  0.44991  0.8312  0.14084  1.0000
  C   C36       1.0  0.47220999999999996  0.9693999999999999  0.98643  1.0000
  C   C37       1.0  0.09411000000000005  0.49622999999999995  0.31462  1.0000
  C   C38       1.0  0.13098000000000007  0.54575  0.21185  1.0000
  C   C39       1.0  0.07633999999999999  0.64297  0.16502  1.0000
  C   C40       1.0  0.9803899999999999  0.69596  0.22162  1.0000
  C   C41       1.0  0.9449499999999997  0.6498099999999999  0.32175000000000004  1.0000
  C   C42       1.0  0.9600200000000001  0.50913  0.47557  1.0000
  C   C43       1.0  0.29057  0.0919  0.49351  1.0000
  C   C44       1.0  0.18829  0.12118  0.55385  1.0000
  C   C45       1.0  0.15819  0.06771  0.65428  1.0000
  C   C46       1.0  0.23128999999999994  0.98058  0.69807  1.0000
  C   C47       1.0  0.33053  0.95046  0.63972  1.0000
  C   C48       1.0  0.46841000000000016  0.97359  0.48516  1.0000
  C   C49       1.0  0.5081299999999999  0.29242  0.10388  1.0000
  C   C50       1.0  0.5672000000000003  0.18572999999999998  0.12757  1.0000
  C   C51       1.0  0.66344  0.14805  0.06711  1.0000
  C   C52       1.0  0.7061099999999999  0.2151  0.97682  1.0000
  C   C53       1.0  0.6476899999999998  0.31619  0.94993  1.0000
  C   C54       1.0  0.49202  0.46088  0.97619  1.0000
  C   C55       1.0  0.19393000000000005  0.99998  0.3947399999999999  1.0000
  C   C56       1.0  0.3003799999999999  0.94535  0.36322  1.0000
  C   C57       1.0  0.34486000000000006  0.8494600000000001  0.42033999999999994  1.0000
  C   C58       1.0  0.28408999999999995  0.80348  0.51392  1.0000
  C   C59       1.0  0.18169  0.85633  0.5456  1.0000
  C   C60       1.0  0.028919999999999998  0.005309999999999996  0.52689  1.0000
  C   C61       1.0  0.006930000000000033  0.40496999999999994  0.20879  1.0000
  C   C62       1.0  0.94649  0.37837  0.30922  1.0000
  C   C63       1.0  0.8451099999999997  0.4364  0.34149  1.0000
  C   C64       1.0  0.7991299999999999  0.5247  0.27218  1.0000
  C   C65       1.0  0.85687  0.5509199999999997  0.17452  1.0000
  C   C66       1.0  0.01425  0.52375  0.0378  1.0000
  C   C67       1.0  0.41157999999999995  0.19898  0.9946300000000001  1.0000
  C   C68       1.0  0.37871999999999983  0.30406999999999995  0.93929  1.0000
  C   C69       1.0  0.43234000000000017  0.3426299999999999  0.84171  1.0000
  C   C70       1.0  0.5248600000000001  0.27695  0.7945199999999999  1.0000
  C   C71       1.0  0.5590999999999999  0.17593999999999999  0.84737  1.0000
  C   C72       1.0  0.5396800000000002  0.02732999999999999  0.99265  1.0000
  S   S1        1.0  0.8369800000000002  0.63214  0.6629899999999999  1.0000
  S   S2        1.0  0.6487  0.8433  0.6098500000000001  1.0000
  S   S3        1.0  0.6165900000000002  0.6363  0.82475  1.0000
  S   S4        1.0  0.8429199999999998  0.89394  0.6802000000000001  1.0000
  S   S5        1.0  0.8743500000000001  0.65755  0.87411  1.0000
  S   S6        1.0  0.65444  0.83682  0.87152  1.0000
  S   S7        1.0  0.15879999999999997  0.37458  0.37347  1.0000
  S   S8        1.0  0.33645  0.15636  0.37133999999999995  1.0000
  S   S9        1.0  0.39563  0.34357999999999994  0.18091  1.0000
  S   S10       1.0  0.13564000000000015  0.11717999999999999  0.32499  1.0000
  S   S11       1.0  0.13210000000000008  0.3362800000000001  0.16354  1.0000
  S   S12       1.0  0.3448800000000001  0.14886  0.11189999999999999  1.0000
  N   N1        1.0  0.9947200000000002  0.45802  0.64275  1.0000
  N   N2        1.0  0.63706  0.005230000000000006  0.4431  1.0000
  N   N3        1.0  0.4515  0.63854  0.98911  1.0000
  N   N4        1.0  0.8520600000000002  0.05058000000000002  0.50947  1.0000
  N   N5        1.0  0.05279999999999995  0.49782  0.86908  1.0000
  N   N6        1.0  0.50222  0.86066  0.04084  1.0000
  N   N7        1.0  0.999  0.55293  0.36803  1.0000
  N   N8        1.0  0.35985000000000006  0.003480000000000011  0.53999  1.0000
  N   N9        1.0  0.5513099999999999  0.35304  0.00949  1.0000
  N   N10       1.0  0.13785000000000022  0.95186  0.48914  1.0000
  N   N11       1.0  0.95818  0.49423999999999996  0.14332  1.0000
  N   N12       1.0  0.50528  0.13748  0.944  1.0000
