data_image0
_chemical_formula_structural       K2Ni2H70C104N8O24
_chemical_formula_sum              "K2 Ni2 H70 C104 N8 O24"
_cell_length_a       12.65663
_cell_length_b       14.59359
_cell_length_c       18.1272
_cell_angle_alpha    83.21466
_cell_angle_beta     68.33524
_cell_angle_gamma    85.68197000000002

_space_group_name_H-M_alt    "P 1"
_space_group_IT_number       1

loop_
  _space_group_symop_operation_xyz
  'x, y, z'

loop_
  _atom_site_type_symbol
  _atom_site_label
  _atom_site_symmetry_multiplicity
  _atom_site_fract_x
  _atom_site_fract_y
  _atom_site_fract_z
  _atom_site_occupancy
  K   K1        1.0  0.4346399999999999  0.5081099999999997  0.9135300000000002  1.0000
  K   K2        1.0  0.56536  0.4918799999999999  0.08646  1.0000
  Ni  Ni1       1.0  0.20891  0.02338999999999999  0.48321000000000003  1.0000
  Ni  Ni2       1.0  0.7910899999999997  0.97661  0.51678  1.0000
  H   H1        1.0  0.24804999999999988  0.37961000000000006  0.43946  1.0000
  H   H2        1.0  0.1469  0.34224999999999994  0.34068  1.0000
  H   H3        1.0  0.9469299999999998  0.04564999999999998  0.31872  1.0000
  H   H4        1.0  0.9743899999999998  0.8624599999999998  0.35690000000000005  1.0000
  H   H5        1.0  0.26972999999999997  0.6693099999999997  0.46487  1.0000
  H   H6        1.0  0.36778999999999995  0.70555  0.56714  1.0000
  H   H7        1.0  0.3677  0.9988199999999999  0.71069  1.0000
  H   H8        1.0  0.3264899999999998  0.18211999999999995  0.68108  1.0000
  H   H9        1.0  0.92208  0.28855999999999987  0.39306  1.0000
  H   H10       1.0  0.8500799999999997  0.38197999999999993  0.29572  1.0000
  H   H11       1.0  0.08234000000000001  0.23223999999999995  0.10704  1.0000
  H   H12       1.0  0.15125  0.13894  0.20374  1.0000
  H   H13       1.0  0.95866  0.28631  0.05575  1.0000
  H   H14       1.0  0.036610000000000004  0.3897899999999999  0.03258  1.0000
  H   H15       1.0  0.8296699999999998  0.44520999999999983  0.94038  1.0000
  H   H16       1.0  0.18798999999999996  0.80687  0.27185  1.0000
  H   H17       1.0  0.18063000000000012  0.66823  0.209  1.0000
  H   H18       1.0  0.060809999999999996  0.5133499999999999  0.43987  1.0000
  H   H19       1.0  0.06132000000000001  0.6557799999999998  0.50366  1.0000
  H   H20       1.0  0.07817000000000002  0.55529  0.19382  1.0000
  H   H21       1.0  0.10561999999999999  0.43445  0.20355000000000004  1.0000
  H   H22       1.0  0.23609000000000002  0.7629  0.71868  1.0000
  H   H23       1.0  0.31360999999999994  0.6759299999999998  0.81499  1.0000
  H   H24       1.0  0.63201  0.8127899999999999  0.6935  1.0000
  H   H25       1.0  0.5537699999999998  0.89775  0.59881  1.0000
  H   H26       1.0  0.6091799999999997  0.8003799999999998  0.82513  1.0000
  H   H27       1.0  0.6863200000000002  0.69974  0.78452  1.0000
  H   H28       1.0  0.6987499999999998  0.68951  0.9742  1.0000
  H   H29       1.0  0.13873  0.37981  0.58703  1.0000
  H   H30       1.0  0.19642000000000012  0.52208  0.62198  1.0000
  H   H31       1.0  0.5271799999999998  0.39521  0.59181  1.0000
  H   H32       1.0  0.47064  0.25637  0.55449  1.0000
  H   H33       1.0  0.5102  0.6379699999999998  0.62339  1.0000
  H   H34       1.0  0.5664100000000001  0.5406099999999998  0.56971  1.0000
  H   H35       1.0  0.6526499999999997  0.5058299999999998  0.73667  1.0000
  H   H36       1.0  0.7519499999999997  0.62039  0.56054  1.0000
  H   H37       1.0  0.8530999999999999  0.6577499999999995  0.65932  1.0000
  H   H38       1.0  0.053070000000000006  0.95435  0.68128  1.0000
  H   H39       1.0  0.025610000000000053  0.13753999999999997  0.64309  1.0000
  H   H40       1.0  0.7302699999999998  0.33069  0.53512  1.0000
  H   H41       1.0  0.6322099999999998  0.29445  0.43285  1.0000
  H   H42       1.0  0.6323  0.0011700000000000005  0.28931  1.0000
  H   H43       1.0  0.6735099999999999  0.8178799999999998  0.31892  1.0000
  H   H44       1.0  0.07793000000000004  0.7114399999999997  0.60694  1.0000
  H   H45       1.0  0.14991999999999997  0.61802  0.70427  1.0000
  H   H46       1.0  0.9176700000000001  0.76776  0.89296  1.0000
  H   H47       1.0  0.8487500000000001  0.8610599999999997  0.79626  1.0000
  H   H48       1.0  0.04133999999999992  0.71369  0.94425  1.0000
  H   H49       1.0  0.96339  0.6102099999999999  0.9674099999999999  1.0000
  H   H50       1.0  0.17032999999999995  0.5547899999999998  0.05962  1.0000
  H   H51       1.0  0.8120099999999999  0.19312999999999997  0.72814  1.0000
  H   H52       1.0  0.8193699999999998  0.33177  0.791  1.0000
  H   H53       1.0  0.9392  0.48664  0.56013  1.0000
  H   H54       1.0  0.93869  0.34421999999999986  0.49634  1.0000
  H   H55       1.0  0.92183  0.44471  0.80618  1.0000
  H   H56       1.0  0.89438  0.5655499999999998  0.79644  1.0000
  H   H57       1.0  0.7639099999999999  0.23709  0.28132  1.0000
  H   H58       1.0  0.6863899999999997  0.32407  0.18501000000000004  1.0000
  H   H59       1.0  0.36798999999999993  0.18720999999999993  0.3065  1.0000
  H   H60       1.0  0.44623  0.10224999999999994  0.40119  1.0000
  H   H61       1.0  0.39081999999999995  0.19961999999999994  0.17487  1.0000
  H   H62       1.0  0.31368  0.3002499999999999  0.21547  1.0000
  H   H63       1.0  0.30124999999999996  0.31049  0.0258  1.0000
  H   H64       1.0  0.86127  0.6201799999999997  0.41296  1.0000
  H   H65       1.0  0.8035799999999997  0.4779199999999999  0.37802  1.0000
  H   H66       1.0  0.4728200000000001  0.6047899999999998  0.40819  1.0000
  H   H67       1.0  0.52936  0.74363  0.44551  1.0000
  H   H68       1.0  0.48979999999999985  0.3620299999999999  0.3766  1.0000
  H   H69       1.0  0.43359  0.45937999999999996  0.43029  1.0000
  H   H70       1.0  0.34734999999999994  0.49416999999999994  0.26332  1.0000
  C   C1        1.0  0.22916  0.2287099999999999  0.48058000000000006  1.0000
  C   C2        1.0  0.21896999999999997  0.31367999999999996  0.43457  1.0000
  C   C3        1.0  0.16871000000000003  0.29433  0.38359  1.0000
  C   C4        1.0  0.14792999999999998  0.19718999999999995  0.39824  1.0000
  C   C5        1.0  0.08914999999999995  0.15295  0.36188000000000003  1.0000
  C   C6        1.0  0.07333999999999997  0.05829999999999998  0.37639  1.0000
  C   C7        1.0  0.002399999999999971  0.011449999999999997  0.34756  1.0000
  C   C8        1.0  0.016309999999999974  0.91929  0.36674  1.0000
  C   C9        1.0  0.09673000000000005  0.9096499999999997  0.40652  1.0000
  C   C10       1.0  0.14450999999999994  0.8251499999999999  0.42524  1.0000
  C   C11       1.0  0.21626  0.81908  0.46858  1.0000
  C   C12       1.0  0.27138  0.7344799999999998  0.4873100000000001  1.0000
  C   C13       1.0  0.3218799999999999  0.7531199999999998  0.53835  1.0000
  C   C14       1.0  0.30104999999999993  0.84965  0.54899  1.0000
  C   C15       1.0  0.3359599999999998  0.89325  0.59998  1.0000
  C   C16       1.0  0.31883000000000006  0.9879099999999997  0.60564  1.0000
  C   C17       1.0  0.34095999999999993  0.03382000000000001  0.66415  1.0000
  C   C18       1.0  0.32036999999999993  0.12580999999999995  0.6492  1.0000
  C   C19       1.0  0.28695  0.13667999999999994  0.58082  1.0000
  C   C20       1.0  0.27023  0.22229  0.54275  1.0000
  C   C21       1.0  0.043829999999999994  0.20804999999999996  0.30501  1.0000
  C   C22       1.0  0.9589199999999999  0.27763999999999994  0.33022  1.0000
  C   C23       1.0  0.9183599999999997  0.3300699999999999  0.27662  1.0000
  C   C24       1.0  0.96266  0.3146299999999999  0.19567  1.0000
  C   C25       1.0  0.04632999999999998  0.24527  0.16932  1.0000
  C   C26       1.0  0.08558  0.19249999999999995  0.2243  1.0000
  C   C27       1.0  0.9529999999999997  0.35972  0.06619  1.0000
  C   C28       1.0  0.86387  0.4072599999999999  0.03563  1.0000
  C   C29       1.0  0.12781000000000003  0.7416199999999997  0.39198  1.0000
  C   C30       1.0  0.15819999999999998  0.7430399999999999  0.30914  1.0000
  C   C31       1.0  0.15421999999999997  0.6644199999999998  0.27342  1.0000
  C   C32       1.0  0.12014999999999999  0.58152  0.32128  1.0000
  C   C33       1.0  0.08736000000000003  0.5787399999999998  0.40425  1.0000
  C   C34       1.0  0.08997000000000002  0.6580999999999998  0.43907  1.0000
  C   C35       1.0  0.13353  0.5015199999999999  0.21017  1.0000
  C   C36       1.0  0.25676  0.51145  0.15216  1.0000
  C   C37       1.0  0.38807  0.8378099999999998  0.65296  1.0000
  C   C38       1.0  0.32259  0.7736399999999998  0.71363  1.0000
  C   C39       1.0  0.36506000000000005  0.72561  0.7683  1.0000
  C   C40       1.0  0.4752599999999998  0.74218  0.76298  1.0000
  C   C41       1.0  0.54421  0.8027599999999998  0.70121  1.0000
  C   C42       1.0  0.49986  0.8504799999999998  0.64673  1.0000
  C   C43       1.0  0.6074899999999998  0.7243499999999998  0.8304  1.0000
  C   C44       1.0  0.6080599999999998  0.6877799999999997  0.91191  1.0000
  C   C45       1.0  0.30094  0.30721  0.56692  1.0000
  C   C46       1.0  0.22448000000000004  0.38364  0.5868  1.0000
  C   C47       1.0  0.25623  0.4635799999999999  0.60712  1.0000
  C   C48       1.0  0.36558  0.46916999999999986  0.60917  1.0000
  C   C49       1.0  0.4422099999999999  0.3934899999999999  0.59057  1.0000
  C   C50       1.0  0.40947000000000006  0.3140199999999999  0.56977  1.0000
  C   C51       1.0  0.5023399999999999  0.56307  0.6251  1.0000
  C   C52       1.0  0.5270299999999998  0.5182599999999998  0.69773  1.0000
  C   C53       1.0  0.7708399999999995  0.7712899999999999  0.51941  1.0000
  C   C54       1.0  0.7810299999999999  0.68632  0.56543  1.0000
  C   C55       1.0  0.83129  0.70567  0.6164  1.0000
  C   C56       1.0  0.8520699999999999  0.80281  0.60175  1.0000
  C   C57       1.0  0.9108499999999998  0.8470499999999997  0.63812  1.0000
  C   C58       1.0  0.9266599999999998  0.9416999999999998  0.62361  1.0000
  C   C59       1.0  0.9976  0.9885499999999996  0.6524300000000001  1.0000
  C   C60       1.0  0.9836899999999997  0.08071  0.63326  1.0000
  C   C61       1.0  0.9032699999999999  0.09034999999999997  0.5934700000000002  1.0000
  C   C62       1.0  0.8554899999999999  0.17483999999999994  0.57475  1.0000
  C   C63       1.0  0.7837399999999998  0.18091999999999997  0.53142  1.0000
  C   C64       1.0  0.7286199999999998  0.26552  0.51269  1.0000
  C   C65       1.0  0.67812  0.24687999999999996  0.46164  1.0000
  C   C66       1.0  0.6989499999999998  0.15033999999999995  0.451  1.0000
  C   C67       1.0  0.6640399999999999  0.10674999999999998  0.40001  1.0000
  C   C68       1.0  0.68117  0.012079999999999999  0.39436  1.0000
  C   C69       1.0  0.6590400000000001  0.9661799999999998  0.33585  1.0000
  C   C70       1.0  0.67963  0.87419  0.3508  1.0000
  C   C71       1.0  0.7130499999999999  0.86332  0.41918  1.0000
  C   C72       1.0  0.7297699999999999  0.7777099999999998  0.45725  1.0000
  C   C73       1.0  0.9561699999999997  0.7919499999999998  0.69499  1.0000
  C   C74       1.0  0.04108000000000002  0.72236  0.66978  1.0000
  C   C75       1.0  0.08164000000000002  0.66992  0.72338  1.0000
  C   C76       1.0  0.03734000000000002  0.6853699999999998  0.80433  1.0000
  C   C77       1.0  0.95367  0.75473  0.83067  1.0000
  C   C78       1.0  0.9144299999999999  0.8074999999999999  0.77569  1.0000
  C   C79       1.0  0.04699999999999999  0.64028  0.93381  1.0000
  C   C80       1.0  0.13613  0.59273  0.96436  1.0000
  C   C81       1.0  0.8722000000000001  0.25838  0.60802  1.0000
  C   C82       1.0  0.8418  0.25695  0.69086  1.0000
  C   C83       1.0  0.8457799999999996  0.3355799999999999  0.72658  1.0000
  C   C84       1.0  0.8798500000000001  0.4184799999999999  0.67872  1.0000
  C   C85       1.0  0.9126400000000001  0.4212599999999999  0.59575  1.0000
  C   C86       1.0  0.9100299999999998  0.3418999999999999  0.56093  1.0000
  C   C87       1.0  0.8664699999999999  0.49847999999999976  0.78982  1.0000
  C   C88       1.0  0.7432400000000001  0.4885399999999998  0.84783  1.0000
  C   C89       1.0  0.61193  0.16217999999999994  0.34704  1.0000
  C   C90       1.0  0.67741  0.22635999999999995  0.28636  1.0000
  C   C91       1.0  0.63494  0.27439  0.2317  1.0000
  C   C92       1.0  0.52474  0.2578199999999999  0.23702  1.0000
  C   C93       1.0  0.45578999999999986  0.19722999999999993  0.29878  1.0000
  C   C94       1.0  0.50014  0.14952  0.35327  1.0000
  C   C95       1.0  0.3925099999999999  0.2756499999999999  0.16960000000000003  1.0000
  C   C96       1.0  0.3919399999999999  0.3122199999999999  0.08808  1.0000
  C   C97       1.0  0.69906  0.6927899999999998  0.43308  1.0000
  C   C98       1.0  0.7755199999999998  0.6163599999999998  0.4132  1.0000
  C   C99       1.0  0.7437699999999999  0.5364199999999998  0.39287  1.0000
  C   C100      1.0  0.6344199999999998  0.53083  0.39083  1.0000
  C   C101      1.0  0.55779  0.60651  0.40943  1.0000
  C   C102      1.0  0.5905299999999999  0.68598  0.43022  1.0000
  C   C103      1.0  0.49766  0.43692999999999993  0.37489  1.0000
  C   C104      1.0  0.47297000000000006  0.4817399999999999  0.30226  1.0000
  N   N1        1.0  0.1893299999999999  0.15594  0.45596000000000003  1.0000
  N   N2        1.0  0.12713999999999998  0.9957699999999998  0.41627  1.0000
  N   N3        1.0  0.23844  0.89093  0.50423  1.0000
  N   N4        1.0  0.2812799999999999  0.05104  0.55609  1.0000
  N   N5        1.0  0.8106699999999998  0.8440599999999998  0.54404  1.0000
  N   N6        1.0  0.87286  0.004230000000000002  0.58372  1.0000
  N   N7        1.0  0.7615599999999999  0.10907000000000001  0.49577  1.0000
  N   N8        1.0  0.7187200000000001  0.9489599999999996  0.4439  1.0000
  O   O1        1.0  0.91607  0.37110999999999994  0.14877  1.0000
  O   O2        1.0  0.7689399999999997  0.43105  0.08087  1.0000
  O   O3        1.0  0.8997299999999998  0.4174599999999999  0.95674  1.0000
  O   O4        1.0  0.11645  0.49908999999999987  0.29267  1.0000
  O   O5        1.0  0.33805  0.5045699999999997  0.1772  1.0000
  O   O6        1.0  0.26954999999999996  0.5229999999999998  0.07813  1.0000
  O   O7        1.0  0.50859  0.6942399999999997  0.82241  1.0000
  O   O8        1.0  0.69967  0.7181  0.92238  1.0000
  O   O9        1.0  0.53837  0.63814  0.9628  1.0000
  O   O10       1.0  0.38928000000000007  0.5511  0.62944  1.0000
  O   O11       1.0  0.6375  0.5231099999999997  0.68501  1.0000
  O   O12       1.0  0.45439000000000007  0.48595  0.75958  1.0000
  O   O13       1.0  0.08393000000000002  0.62889  0.85123  1.0000
  O   O14       1.0  0.23105999999999996  0.5689399999999999  0.91913  1.0000
  O   O15       1.0  0.10027  0.5825399999999998  0.04326  1.0000
  O   O16       1.0  0.8835499999999997  0.5009099999999997  0.70732  1.0000
  O   O17       1.0  0.6619499999999997  0.49542999999999976  0.82279  1.0000
  O   O18       1.0  0.7304500000000002  0.47700000000000004  0.92187  1.0000
  O   O19       1.0  0.49142  0.30575  0.17758  1.0000
  O   O20       1.0  0.30032999999999993  0.2818999999999999  0.07761  1.0000
  O   O21       1.0  0.4616299999999999  0.3618599999999999  0.0372  1.0000
  O   O22       1.0  0.61072  0.4488999999999999  0.37056000000000006  1.0000
  O   O23       1.0  0.36249999999999993  0.47688999999999987  0.31499  1.0000
  O   O24       1.0  0.54561  0.51404  0.24041000000000004  1.0000
