data_image0
_chemical_formula_structural       Zn4H64C82N8O24
_chemical_formula_sum              "Zn4 H64 C82 N8 O24"
_cell_length_a       9.41855
_cell_length_b       13.73132
_cell_length_c       20.08376
_cell_angle_alpha    86.98896
_cell_angle_beta     80.86121
_cell_angle_gamma    70.08404

_space_group_name_H-M_alt    "P 1"
_space_group_IT_number       1

loop_
  _space_group_symop_operation_xyz
  'x, y, z'

loop_
  _atom_site_type_symbol
  _atom_site_label
  _atom_site_symmetry_multiplicity
  _atom_site_fract_x
  _atom_site_fract_y
  _atom_site_fract_z
  _atom_site_occupancy
  Zn  Zn1       1.0  0.60048  0.73875  0.00887  1.0000
  Zn  Zn2       1.0  0.15936999999999996  0.7396100000000002  0.49026999999999993  1.0000
  Zn  Zn3       1.0  0.39951  0.26126  0.99113  1.0000
  Zn  Zn4       1.0  0.8406199999999999  0.26039  0.50973  1.0000
  H   H1        1.0  0.37917999999999996  0.63568  0.04943  1.0000
  H   H2        1.0  0.36068999999999996  0.48234  0.11935  1.0000
  H   H3        1.0  0.84351  0.40155  0.12993  1.0000
  H   H4        1.0  0.8420899999999999  0.55396  0.05992  1.0000
  H   H5        1.0  0.7631  0.32491  0.22765  1.0000
  H   H6        1.0  0.7899900000000001  0.23775  0.15903  1.0000
  H   H7        1.0  0.51278  0.11009000000000002  0.24197  1.0000
  H   H8        1.0  0.52378  0.19228  0.17021  1.0000
  H   H9        1.0  0.9229400000000002  0.88361  0.143  1.0000
  H   H10       1.0  0.8807300000000001  0.75168  0.07458  1.0000
  H   H11       1.0  0.44243  0.94346  0.056130000000000006  1.0000
  H   H12       1.0  0.46567  0.08494000000000002  0.12064999999999998  1.0000
  H   H13       1.0  0.77983  0.8391000000000002  0.81146  1.0000
  H   H14       1.0  0.9544300000000002  0.50711  0.81277  1.0000
  H   H15       1.0  0.02322000000000004  0.84457  0.9354199999999999  1.0000
  H   H16       1.0  0.21078999999999998  0.9972400000000001  0.06092  1.0000
  H   H17       1.0  0.48462999999999967  0.63562  0.44975  1.0000
  H   H18       1.0  0.65609  0.4806100000000001  0.38128  1.0000
  H   H19       1.0  0.2538799999999999  0.39968  0.3704  1.0000
  H   H20       1.0  0.10298999999999996  0.5536100000000002  0.43934  1.0000
  H   H21       1.0  0.40966  0.32298  0.27336  1.0000
  H   H22       1.0  0.47226000000000007  0.23373  0.34041  1.0000
  H   H23       1.0  0.8761299999999999  0.11168  0.25637  1.0000
  H   H24       1.0  0.78304  0.19371000000000002  0.32836  1.0000
  H   H25       1.0  0.6937399999999999  0.8841100000000002  0.35475  1.0000
  H   H26       1.0  0.8671799999999998  0.7523100000000001  0.42285  1.0000
  H   H27       1.0  0.11124999999999997  0.9459400000000001  0.44346  1.0000
  H   H28       1.0  0.9468700000000001  0.08721  0.37946  1.0000
  H   H29       1.0  0.8805899999999998  0.8390600000000001  0.68818  1.0000
  H   H30       1.0  0.03791999999999993  0.50697  0.68684  1.0000
  H   H31       1.0  0.62636  0.84444  0.56521  1.0000
  H   H32       1.0  0.28955  0.00022999999999999993  0.43959999999999994  1.0000
  H   H33       1.0  0.6208099999999999  0.36433000000000004  0.95057  1.0000
  H   H34       1.0  0.63931  0.51766  0.88065  1.0000
  H   H35       1.0  0.15649000000000007  0.59845  0.87007  1.0000
  H   H36       1.0  0.15791000000000002  0.44604  0.9400799999999999  1.0000
  H   H37       1.0  0.23689999999999994  0.67509  0.77235  1.0000
  H   H38       1.0  0.21000000000000005  0.76225  0.8409699999999999  1.0000
  H   H39       1.0  0.48721999999999993  0.88991  0.75803  1.0000
  H   H40       1.0  0.47622  0.80772  0.8297899999999999  1.0000
  H   H41       1.0  0.07705999999999998  0.1164  0.85699  1.0000
  H   H42       1.0  0.11926999999999996  0.24832000000000007  0.92542  1.0000
  H   H43       1.0  0.55757  0.05654  0.94387  1.0000
  H   H44       1.0  0.5343199999999999  0.91507  0.8793399999999999  1.0000
  H   H45       1.0  0.22017  0.16090000000000002  0.18853  1.0000
  H   H46       1.0  0.04555999999999998  0.49289  0.18723  1.0000
  H   H47       1.0  0.97677  0.15543000000000007  0.06458  1.0000
  H   H48       1.0  0.7892  0.0027600000000000003  0.9390799999999999  1.0000
  H   H49       1.0  0.5153699999999999  0.3643900000000002  0.55025  1.0000
  H   H50       1.0  0.34391000000000005  0.51939  0.61872  1.0000
  H   H51       1.0  0.7461200000000002  0.60033  0.6296  1.0000
  H   H52       1.0  0.89701  0.44639  0.56065  1.0000
  H   H53       1.0  0.5903299999999999  0.6770200000000002  0.72664  1.0000
  H   H54       1.0  0.5277299999999998  0.7662700000000002  0.65959  1.0000
  H   H55       1.0  0.12385999999999982  0.8883300000000002  0.74363  1.0000
  H   H56       1.0  0.21694999999999984  0.8062900000000002  0.67163  1.0000
  H   H57       1.0  0.30625  0.11589000000000003  0.64525  1.0000
  H   H58       1.0  0.13282000000000005  0.24769000000000002  0.57715  1.0000
  H   H59       1.0  0.8887400000000001  0.05406000000000001  0.55654  1.0000
  H   H60       1.0  0.05313000000000004  0.9128000000000001  0.62054  1.0000
  H   H61       1.0  0.11941000000000002  0.16094  0.31181  1.0000
  H   H62       1.0  0.96207  0.49304  0.31316  1.0000
  H   H63       1.0  0.37364  0.15556000000000006  0.43478  1.0000
  H   H64       1.0  0.7104400000000001  0.9997800000000001  0.5604  1.0000
  C   C1        1.0  0.47676  0.5832600000000001  0.07068  1.0000
  C   C2        1.0  0.4673  0.49856  0.10896999999999998  1.0000
  C   C3        1.0  0.5982099999999997  0.43283  0.13383  1.0000
  C   C4        1.0  0.73631  0.45200000000000007  0.11561999999999999  1.0000
  C   C5        1.0  0.7362599999999999  0.5382  0.07638  1.0000
  C   C6        1.0  0.70844  0.28303  0.2009  1.0000
  C   C7        1.0  0.58658  0.14544  0.20903  1.0000
  C   C8        1.0  0.6954599999999999  0.99341  0.1402  1.0000
  C   C9        1.0  0.8142199999999999  0.8986000000000001  0.12535  1.0000
  C   C10       1.0  0.7907499999999998  0.8255100000000002  0.08739  1.0000
  C   C11       1.0  0.5459099999999999  0.93374  0.07708  1.0000
  C   C12       1.0  0.559  0.01136  0.11442  1.0000
  C   C13       1.0  0.8050999999999999  0.6723300000000001  0.89348  1.0000
  C   C14       1.0  0.8612499999999998  0.67301  0.81927  1.0000
  C   C15       1.0  0.8389399999999998  0.7667800000000002  0.78405  1.0000
  C   C16       1.0  0.9361100000000003  0.57909  0.78447  1.0000
  C   C17       1.0  0.2717399999999999  0.8163100000000001  0.9924100000000001  1.0000
  C   C18       1.0  0.13142  0.9114800000000001  0.99737  1.0000
  C   C19       1.0  0.011979999999999878  0.9134900000000002  0.9630899999999999  1.0000
  C   C20       1.0  0.11805999999999992  0.9987800000000001  0.03445  1.0000
  C   C21       1.0  0.43916999999999995  0.5827900000000001  0.42885999999999996  1.0000
  C   C22       1.0  0.53321  0.4971300000000001  0.39132  1.0000
  C   C23       1.0  0.46779  0.4309300000000001  0.36676  1.0000
  C   C24       1.0  0.3104799999999999  0.4505600000000001  0.38463  1.0000
  C   C25       1.0  0.22457999999999997  0.53764  0.42322  1.0000
  C   C26       1.0  0.50702  0.28078  0.29931  1.0000
  C   C27       1.0  0.76733  0.14635  0.28961  1.0000
  C   C28       1.0  0.81045  0.9945700000000001  0.35857  1.0000
  C   C29       1.0  0.7868999999999998  0.8994  0.37287  1.0000
  C   C30       1.0  0.8830999999999999  0.8264600000000002  0.41072999999999993  1.0000
  C   C31       1.0  0.018230000000000093  0.93562  0.42218999999999995  1.0000
  C   C32       1.0  0.9278099999999999  0.013180000000000004  0.38499  1.0000
  C   C33       1.0  0.024490000000000078  0.67112  0.60616  1.0000
  C   C34       1.0  0.9656699999999996  0.6726900000000002  0.68023  1.0000
  C   C35       1.0  0.89387  0.76666  0.71541  1.0000
  C   C36       1.0  0.9842300000000002  0.579  0.71513  1.0000
  C   C37       1.0  0.4075899999999999  0.8180400000000002  0.50683  1.0000
  C   C38       1.0  0.45401999999999987  0.91272  0.50272  1.0000
  C   C39       1.0  0.57195  0.9133600000000001  0.53709  1.0000
  C   C40       1.0  0.38219  0.00020999999999999993  0.46562999999999993  1.0000
  C   C41       1.0  0.5232399999999999  0.41674  0.92932  1.0000
  C   C42       1.0  0.5326999999999998  0.50144  0.8910300000000001  1.0000
  C   C43       1.0  0.40178000000000036  0.56717  0.86617  1.0000
  C   C44       1.0  0.26368000000000014  0.548  0.8843799999999999  1.0000
  C   C45       1.0  0.26373  0.4618000000000001  0.92362  1.0000
  C   C46       1.0  0.29155000000000003  0.71698  0.7991  1.0000
  C   C47       1.0  0.41340999999999994  0.8545700000000003  0.79097  1.0000
  C   C48       1.0  0.30452999999999997  0.006600000000000001  0.8598  1.0000
  C   C49       1.0  0.18578  0.1014  0.87465  1.0000
  C   C50       1.0  0.20923999999999995  0.17450000000000004  0.91261  1.0000
  C   C51       1.0  0.45409  0.06627  0.92292  1.0000
  C   C52       1.0  0.44099  0.98865  0.88558  1.0000
  C   C53       1.0  0.1948999999999999  0.32767000000000013  0.10651999999999999  1.0000
  C   C54       1.0  0.13874999999999996  0.3269900000000001  0.18073  1.0000
  C   C55       1.0  0.16106000000000006  0.23322  0.21595  1.0000
  C   C56       1.0  0.06387999999999995  0.4209100000000001  0.21553000000000003  1.0000
  C   C57       1.0  0.72825  0.1837  0.0075899999999999995  1.0000
  C   C58       1.0  0.8685799999999999  0.08853000000000003  0.00263  1.0000
  C   C59       1.0  0.9880100000000002  0.08651  0.03691  1.0000
  C   C60       1.0  0.88193  0.00123  0.96555  1.0000
  C   C61       1.0  0.56082  0.41721  0.57114  1.0000
  C   C62       1.0  0.46678000000000003  0.50287  0.60868  1.0000
  C   C63       1.0  0.5322000000000001  0.56907  0.63324  1.0000
  C   C64       1.0  0.68951  0.54945  0.61537  1.0000
  C   C65       1.0  0.7754099999999999  0.4623600000000001  0.57678  1.0000
  C   C66       1.0  0.49297  0.71922  0.70069  1.0000
  C   C67       1.0  0.23266999999999996  0.85366  0.71038  1.0000
  C   C68       1.0  0.18954999999999997  0.00544  0.64143  1.0000
  C   C69       1.0  0.21309999999999998  0.10061000000000002  0.62713  1.0000
  C   C70       1.0  0.11689  0.17354  0.58927  1.0000
  C   C71       1.0  0.98176  0.06438  0.57781  1.0000
  C   C72       1.0  0.07217999999999995  0.98683  0.61501  1.0000
  C   C73       1.0  0.9755  0.32888  0.39384  1.0000
  C   C74       1.0  0.034329999999999944  0.3273200000000001  0.31977  1.0000
  C   C75       1.0  0.10613  0.23335  0.28459  1.0000
  C   C76       1.0  0.015759999999999923  0.4210100000000001  0.28487  1.0000
  C   C77       1.0  0.5924100000000001  0.18197  0.49316999999999994  1.0000
  C   C78       1.0  0.54598  0.08728000000000001  0.49728  1.0000
  C   C79       1.0  0.42805000000000004  0.08664  0.46291  1.0000
  C   C80       1.0  0.6178  0.9998  0.53437  1.0000
  C   C81       1.0  0.6426999999999999  0.21307  0.24957000000000001  1.0000
  C   C82       1.0  0.35730000000000006  0.78693  0.75042  1.0000
  N   N1        1.0  0.60875  0.60473  0.0553  1.0000
  N   N2        1.0  0.6575299999999998  0.84105  0.06392  1.0000
  N   N3        1.0  0.28560999999999986  0.6047900000000002  0.44391  1.0000
  N   N4        1.0  4.999999999998776e-05  0.84241  0.43476000000000004  1.0000
  N   N5        1.0  0.39124  0.39527000000000007  0.9446999999999999  1.0000
  N   N6        1.0  0.34246  0.15895  0.93608  1.0000
  N   N7        1.0  0.7143899999999999  0.39521  0.55609  1.0000
  N   N8        1.0  0.99995  0.15759  0.56524  1.0000
  O   O1        1.0  0.5786  0.35554  0.1745  1.0000
  O   O2        1.0  0.72082  0.06263000000000002  0.17828  1.0000
  O   O3        1.0  0.6864999999999999  0.7527400000000001  0.91488  1.0000
  O   O4        1.0  0.86953  0.59877  0.92946  1.0000
  O   O5        1.0  0.38414000000000004  0.82785  0.01755  1.0000
  O   O6        1.0  0.27275  0.7358000000000002  0.9660699999999999  1.0000
  O   O7        1.0  0.5644500000000001  0.3526  0.32684  1.0000
  O   O8        1.0  0.71638  0.06329  0.32034  1.0000
  O   O9        1.0  0.058670000000000035  0.75322  0.58493  1.0000
  O   O10       1.0  0.03926999999999993  0.59587  0.57024  1.0000
  O   O11       1.0  0.28445999999999994  0.8301300000000001  0.48094  1.0000
  O   O12       1.0  0.4854700000000001  0.73689  0.53268  1.0000
  O   O13       1.0  0.42140000000000005  0.64447  0.8254999999999999  1.0000
  O   O14       1.0  0.27917999999999993  0.9373700000000003  0.8217199999999999  1.0000
  O   O15       1.0  0.31349999999999995  0.24726000000000006  0.08512  1.0000
  O   O16       1.0  0.13046999999999995  0.4012400000000001  0.07054  1.0000
  O   O17       1.0  0.6158599999999999  0.17215000000000003  0.9824499999999999  1.0000
  O   O18       1.0  0.7272499999999998  0.2642  0.03393  1.0000
  O   O19       1.0  0.43553999999999987  0.6474000000000002  0.67315  1.0000
  O   O20       1.0  0.2836199999999999  0.9367100000000003  0.67966  1.0000
  O   O21       1.0  0.9413199999999998  0.24678000000000005  0.41506999999999994  1.0000
  O   O22       1.0  0.9607199999999999  0.4041300000000001  0.42976  1.0000
  O   O23       1.0  0.7155300000000001  0.16988000000000003  0.51906  1.0000
  O   O24       1.0  0.51453  0.26312  0.46732  1.0000
