data_image0
_chemical_formula_structural       Zn14H32C64N36O32
_chemical_formula_sum              "Zn14 H32 C64 N36 O32"
_cell_length_a       14.48496
_cell_length_b       14.47313
_cell_length_c       16.37479
_cell_angle_alpha    78.72168
_cell_angle_beta     63.71774
_cell_angle_gamma    59.96068

_space_group_name_H-M_alt    "P 1"
_space_group_IT_number       1

loop_
  _space_group_symop_operation_xyz
  'x, y, z'

loop_
  _atom_site_type_symbol
  _atom_site_label
  _atom_site_symmetry_multiplicity
  _atom_site_fract_x
  _atom_site_fract_y
  _atom_site_fract_z
  _atom_site_occupancy
  Zn  Zn1       1.0  0.61322  0.96632  0.59426  1.0000
  Zn  Zn2       1.0  0.18168000000000004  0.82929  0.42494999999999994  1.0000
  Zn  Zn3       1.0  0.15269000000000016  0.4443499999999999  0.6431499999999998  1.0000
  Zn  Zn4       1.0  0.67203  0.53578  0.90564  1.0000
  Zn  Zn5       1.0  0.9361800000000002  0.6706399999999999  0.07576  1.0000
  Zn  Zn6       1.0  0.7409000000000001  0.055269999999999986  0.8568299999999998  1.0000
  Zn  Zn7       1.0  0.38678000000000007  0.03367  0.40574  1.0000
  Zn  Zn8       1.0  0.81832  0.1707  0.57504  1.0000
  Zn  Zn9       1.0  0.84732  0.5556399999999999  0.3568499999999999  1.0000
  Zn  Zn10      1.0  0.32797000000000004  0.4642099999999999  0.09436  1.0000
  Zn  Zn11      1.0  0.06382000000000011  0.32934999999999987  0.9242399999999997  1.0000
  Zn  Zn12      1.0  0.25910000000000016  0.9447299999999997  0.14316  1.0000
  Zn  Zn13      1.0  1.226345698849186e-16  0.4999999999999999  0.4999999999999999  1.0000
  Zn  Zn14      1.0  0.5  0.0  0.0  1.0000
  H   H1        1.0  0.042130000000000174  0.7113399999999998  0.40828  1.0000
  H   H2        1.0  0.74064  0.56773  0.68378  1.0000
  H   H3        1.0  0.9261000000000003  0.51495  0.8409199999999998  1.0000
  H   H4        1.0  0.6287599999999995  0.81528  0.44535  1.0000
  H   H5        1.0  0.7887799999999999  0.34358  0.42121  1.0000
  H   H6        1.0  0.03601000000000006  0.8480299999999997  0.19833  1.0000
  H   H7        1.0  0.6383299999999998  0.04312  0.43079  1.0000
  H   H8        1.0  0.8307899999999998  0.74657  0.59143  1.0000
  H   H9        1.0  0.6613399999999999  0.78865  0.09287999999999998  1.0000
  H   H10       1.0  0.49289999999999995  0.9320799999999999  0.81614  1.0000
  H   H11       1.0  0.78188  0.98623  0.65891  1.0000
  H   H12       1.0  0.38745000000000007  0.6860699999999997  0.054999999999999986  1.0000
  H   H13       1.0  0.05384000000000002  0.15637999999999996  0.07702999999999999  1.0000
  H   H14       1.0  0.5842200000000003  0.6482999999999998  0.3032599999999999  1.0000
  H   H15       1.0  0.6112100000000001  0.4582199999999999  0.06941  1.0000
  H   H16       1.0  0.66833  0.75339  0.9096999999999998  1.0000
  H   H17       1.0  0.95787  0.28865  0.59172  1.0000
  H   H18       1.0  0.25936000000000015  0.43225999999999987  0.31622  1.0000
  H   H19       1.0  0.07391000000000005  0.4850399999999999  0.15908  1.0000
  H   H20       1.0  0.37124000000000007  0.18471999999999994  0.55464  1.0000
  H   H21       1.0  0.2112200000000001  0.65641  0.57879  1.0000
  H   H22       1.0  0.9639900000000003  0.15196999999999997  0.8016699999999998  1.0000
  H   H23       1.0  0.36166999999999994  0.95687  0.56921  1.0000
  H   H24       1.0  0.16921000000000008  0.25342  0.4085699999999999  1.0000
  H   H25       1.0  0.33867000000000014  0.21133999999999997  0.9071099999999997  1.0000
  H   H26       1.0  0.5071  0.06791  0.18386  1.0000
  H   H27       1.0  0.21812  0.01376  0.34108  1.0000
  H   H28       1.0  0.6125500000000003  0.3139199999999999  0.9449899999999998  1.0000
  H   H29       1.0  0.94617  0.84362  0.92297  1.0000
  H   H30       1.0  0.4157799999999999  0.35169  0.69674  1.0000
  H   H31       1.0  0.3887900000000001  0.54177  0.93059  1.0000
  H   H32       1.0  0.33168  0.24660999999999994  0.0903  1.0000
  C   C1        1.0  0.08001000000000001  0.67693  0.45792  1.0000
  C   C2        1.0  0.04188000000000004  0.95063  0.3073  1.0000
  C   C3        1.0  0.81835  0.001250000000000001  0.3883  1.0000
  C   C4        1.0  0.63864  0.9448099999999999  0.31001  1.0000
  C   C5        1.0  0.8091300000000001  0.55017  0.70415  1.0000
  C   C6        1.0  0.9030499999999999  0.52217  0.78471  1.0000
  C   C7        1.0  0.69597  0.7739799999999998  0.4714  1.0000
  C   C8        1.0  0.7439400000000004  0.9382399999999997  0.3139799999999999  1.0000
  C   C9        1.0  0.8342000000000002  0.3508499999999999  0.45531  1.0000
  C   C10       1.0  0.78423  0.057329999999999985  0.47234  1.0000
  C   C11       1.0  0.8958800000000001  0.8024599999999997  0.17986  1.0000
  C   C12       1.0  0.94908  0.89006  0.25133  1.0000
  C   C13       1.0  0.8589800000000003  0.8795199999999997  0.25015  1.0000
  C   C14       1.0  0.7271999999999998  0.9975  0.38146  1.0000
  C   C15       1.0  0.7994300000000001  0.73963  0.5451099999999999  1.0000
  C   C16       1.0  0.93223  0.9505799999999999  0.3184499999999999  1.0000
  C   C17       1.0  0.7143100000000001  0.82323  0.04319  1.0000
  C   C18       1.0  0.80092  0.54865  0.19201999999999994  1.0000
  C   C19       1.0  0.7076900000000002  0.49891999999999986  0.11167999999999997  1.0000
  C   C20       1.0  0.39281000000000005  0.5557799999999999  0.19056  1.0000
  C   C21       1.0  0.5642099999999997  0.94964  0.79581  1.0000
  C   C22       1.0  0.7102500000000004  0.97839  0.71521  1.0000
  C   C23       1.0  0.43989  0.72692  0.028999999999999995  1.0000
  C   C24       1.0  0.4958100000000001  0.5615699999999999  0.18711  1.0000
  C   C25       1.0  0.14078  0.14893  0.04336  1.0000
  C   C26       1.0  0.8131600000000002  0.4431699999999999  0.027189999999999992  1.0000
  C   C27       1.0  0.37889000000000006  0.6953699999999999  0.3228599999999999  1.0000
  C   C28       1.0  0.59145  0.60763  0.24987999999999994  1.0000
  C   C29       1.0  0.48900999999999994  0.61887  0.25159  1.0000
  C   C30       1.0  0.60564  0.5029199999999999  0.11905999999999997  1.0000
  C   C31       1.0  0.5833000000000002  0.76075  0.9556799999999998  1.0000
  C   C32       1.0  0.70196  0.54835  0.18176  1.0000
  C   C33       1.0  0.92  0.32306  0.54207  1.0000
  C   C34       1.0  0.9581300000000004  0.04935999999999999  0.6926899999999998  1.0000
  C   C35       1.0  0.18166000000000013  0.9987399999999999  0.6117  1.0000
  C   C36       1.0  0.36135999999999996  0.055179999999999986  0.68999  1.0000
  C   C37       1.0  0.1908800000000001  0.4498299999999999  0.29585  1.0000
  C   C38       1.0  0.09696000000000005  0.4778299999999999  0.21529  1.0000
  C   C39       1.0  0.30403  0.22601  0.52859  1.0000
  C   C40       1.0  0.2560600000000001  0.06174999999999998  0.6860099999999998  1.0000
  C   C41       1.0  0.1658100000000001  0.64914  0.54469  1.0000
  C   C42       1.0  0.2157700000000001  0.9426599999999999  0.5276599999999999  1.0000
  C   C43       1.0  0.10412000000000009  0.19753  0.8201299999999998  1.0000
  C   C44       1.0  0.050920000000000125  0.10993999999999997  0.7486699999999997  1.0000
  C   C45       1.0  0.14102000000000012  0.12047999999999996  0.7498499999999998  1.0000
  C   C46       1.0  0.27280000000000004  0.0024899999999999987  0.61854  1.0000
  C   C47       1.0  0.2005699999999999  0.26036  0.45489  1.0000
  C   C48       1.0  0.06778000000000005  0.04941  0.68155  1.0000
  C   C49       1.0  0.28570000000000023  0.17675999999999994  0.9567999999999998  1.0000
  C   C50       1.0  0.19908000000000017  0.4513399999999999  0.8079799999999998  1.0000
  C   C51       1.0  0.29231000000000007  0.50108  0.8883199999999998  1.0000
  C   C52       1.0  0.6071900000000002  0.4442099999999998  0.8094399999999998  1.0000
  C   C53       1.0  0.43578999999999996  0.05035  0.20419  1.0000
  C   C54       1.0  0.28975  0.0216  0.28479  1.0000
  C   C55       1.0  0.5601200000000001  0.2730699999999999  0.9709999999999998  1.0000
  C   C56       1.0  0.5041900000000001  0.4384199999999999  0.81289  1.0000
  C   C57       1.0  0.8592200000000002  0.8510699999999998  0.9566399999999998  1.0000
  C   C58       1.0  0.18684000000000012  0.55683  0.9728099999999997  1.0000
  C   C59       1.0  0.6211100000000006  0.30462  0.6771299999999998  1.0000
  C   C60       1.0  0.40855  0.3923599999999999  0.7501199999999998  1.0000
  C   C61       1.0  0.51099  0.38112999999999997  0.74841  1.0000
  C   C62       1.0  0.3943700000000001  0.49706999999999996  0.88094  1.0000
  C   C63       1.0  0.4167  0.23925  0.04431  1.0000
  C   C64       1.0  0.29804000000000025  0.4516399999999999  0.8182399999999997  1.0000
  N   N1        1.0  0.9200799999999997  0.5160599999999999  0.64659  1.0000
  N   N2        1.0  0.9801500000000001  0.4975499999999999  0.69889  1.0000
  N   N3        1.0  0.85678  0.4319799999999999  0.44522  1.0000
  N   N4        1.0  0.12654000000000018  0.7198899999999998  0.48515999999999987  1.0000
  N   N5        1.0  0.70291  0.8180899999999998  0.53322  1.0000
  N   N6        1.0  0.7939  0.55572  0.79157  1.0000
  N   N7        1.0  0.7835600000000004  0.6747699999999998  0.4463499999999999  1.0000
  N   N8        1.0  0.08717999999999994  0.58609  0.49905  1.0000
  N   N9        1.0  0.8503099999999999  0.6526  0.49413  1.0000
  N   N10       1.0  0.5840100000000001  0.98287  0.8534799999999998  1.0000
  N   N11       1.0  0.6776  0.0018699999999999964  0.80116  1.0000
  N   N12       1.0  0.23429999999999998  0.06795  0.053819999999999986  1.0000
  N   N13       1.0  0.83102  0.78042  0.01621  1.0000
  N   N14       1.0  0.5529200000000001  0.6826399999999999  0.9674099999999998  1.0000
  N   N15       1.0  0.64129  0.9452199999999998  0.7082799999999998  1.0000
  N   N16       1.0  0.4035000000000001  0.826  0.05401  1.0000
  N   N17       1.0  0.6719000000000002  0.9139499999999998  0.0018399999999999996  1.0000
  N   N18       1.0  0.4961400000000002  0.8478499999999998  0.00651  1.0000
  N   N19       1.0  0.0799300000000001  0.48393999999999987  0.3534099999999999  1.0000
  N   N20       1.0  0.019850000000000072  0.50245  0.3011099999999999  1.0000
  N   N21       1.0  0.14323000000000002  0.56802  0.5547699999999999  1.0000
  N   N22       1.0  0.8734600000000002  0.28009999999999996  0.51484  1.0000
  N   N23       1.0  0.29709  0.18189999999999998  0.46677999999999986  1.0000
  N   N24       1.0  0.20611000000000002  0.44427999999999995  0.20842999999999995  1.0000
  N   N25       1.0  0.2164400000000001  0.32522  0.5536499999999998  1.0000
  N   N26       1.0  0.9128200000000001  0.4138999999999999  0.50094  1.0000
  N   N27       1.0  0.14968999999999996  0.3473899999999999  0.50587  1.0000
  N   N28       1.0  0.41599  0.01712  0.14652  1.0000
  N   N29       1.0  0.32241000000000014  0.9981299999999999  0.19883999999999993  1.0000
  N   N30       1.0  0.7657000000000003  0.9320399999999998  0.9461799999999998  1.0000
  N   N31       1.0  0.16899000000000017  0.21956999999999996  0.9837899999999998  1.0000
  N   N32       1.0  0.44709  0.3173599999999999  0.03259  1.0000
  N   N33       1.0  0.35871999999999993  0.05477  0.29172  1.0000
  N   N34       1.0  0.5964999999999999  0.17399  0.94599  1.0000
  N   N35       1.0  0.32811  0.08604  0.9981599999999999  1.0000
  N   N36       1.0  0.50386  0.15213999999999994  0.9934799999999998  1.0000
  O   O1        1.0  0.8689900000000002  0.72567  0.20625  1.0000
  O   O2        1.0  0.06317000000000007  0.9440999999999999  0.37556  1.0000
  O   O3        1.0  0.9580300000000002  0.8105899999999998  0.09841  1.0000
  O   O4        1.0  0.30113  0.94384  0.45531  1.0000
  O   O5        1.0  0.84073  0.10353999999999997  0.4690699999999999  1.0000
  O   O6        1.0  0.6421600000000001  0.9279899999999998  0.23725999999999997  1.0000
  O   O7        1.0  0.45259  0.02803  0.61057  1.0000
  O   O8        1.0  0.10656  0.9553599999999999  0.22313  1.0000
  O   O9        1.0  0.30205999999999994  0.77377  0.2967299999999999  1.0000
  O   O10       1.0  0.8832700000000001  0.5556899999999999  0.12315  1.0000
  O   O11       1.0  0.36773999999999996  0.68557  0.40422  1.0000
  O   O12       1.0  0.20158  0.55554  0.04486  1.0000
  O   O13       1.0  0.9128599999999998  0.39669999999999994  0.030059999999999993  1.0000
  O   O14       1.0  0.3054000000000001  0.5746499999999999  0.26264999999999994  1.0000
  O   O15       1.0  0.5908500000000003  0.47265  0.8887499999999998  1.0000
  O   O16       1.0  0.7870000000000001  0.54387  0.2759199999999999  1.0000
  O   O17       1.0  0.13101  0.27432  0.79374  1.0000
  O   O18       1.0  0.9368299999999999  0.05589  0.62443  1.0000
  O   O19       1.0  0.041969999999999966  0.1894  0.90159  1.0000
  O   O20       1.0  0.69887  0.05614999999999999  0.54469  1.0000
  O   O21       1.0  0.1592699999999999  0.8964499999999997  0.53093  1.0000
  O   O22       1.0  0.3578400000000002  0.07199999999999997  0.7627399999999998  1.0000
  O   O23       1.0  0.5474100000000001  0.9719599999999998  0.38942999999999994  1.0000
  O   O24       1.0  0.89344  0.04463  0.77687  1.0000
  O   O25       1.0  0.69794  0.22621999999999995  0.70327  1.0000
  O   O26       1.0  0.11673000000000003  0.44430999999999987  0.87684  1.0000
  O   O27       1.0  0.6322599999999999  0.31442999999999993  0.59578  1.0000
  O   O28       1.0  0.79842  0.44445  0.9551399999999998  1.0000
  O   O29       1.0  0.08713999999999991  0.60329  0.96993  1.0000
  O   O30       1.0  0.6946  0.42535  0.7373499999999997  1.0000
  O   O31       1.0  0.40914999999999996  0.52734  0.11124999999999999  1.0000
  O   O32       1.0  0.21300000000000005  0.4561199999999999  0.72408  1.0000
