data_image0
_chemical_formula_structural       Co8H56C72N8O40
_chemical_formula_sum              "Co8 H56 C72 N8 O40"
_cell_length_a       9.45804
_cell_length_b       10.92035
_cell_length_c       23.28904
_cell_angle_alpha    90.02101
_cell_angle_beta     89.82457
_cell_angle_gamma    89.57075

_symmetry_space_group_name_H-M    'P 1'
_symmetry_Int_Tables_number       1

loop_
  _symmetry_equiv_pos_as_xyz
  'x,y,z'

loop_
  _atom_site_type_symbol
  _atom_site_label
  _atom_site_symmetry_multiplicity
  _atom_site_fract_x
  _atom_site_fract_y
  _atom_site_fract_z
  _atom_site_occupancy
  Co  Co1       1.0  0.75669  0.25748  0.9669999999999999  1.0000
  Co  Co2       1.0  0.74353  0.24291  0.46696  1.0000
  Co  Co3       1.0  0.24494  0.27523999999999993  0.52873  1.0000
  Co  Co4       1.0  0.25528  0.22470999999999997  0.02811  1.0000
  Co  Co5       1.0  0.24449  0.7248  0.02808  1.0000
  Co  Co6       1.0  0.25418  0.77479  0.52954  1.0000
  Co  Co7       1.0  0.75814  0.73917  0.46832  1.0000
  Co  Co8       1.0  0.74218  0.7591599999999998  0.9671199999999999  1.0000
  H   H1        1.0  0.61242  0.07864999999999998  0.07942  1.0000
  H   H2        1.0  0.85793  0.9698799999999999  0.07275  1.0000
  H   H3        1.0  0.8498500000000001  0.10225  0.11742  1.0000
  H   H4        1.0  0.89426  0.08503  0.89381  1.0000
  H   H5        1.0  0.009430000000000001  0.08008  0.79779  1.0000
  H   H6        1.0  0.9001  0.46393  0.7802899999999998  1.0000
  H   H7        1.0  0.79665  0.45403999999999994  0.87891  1.0000
  H   H8        1.0  0.8876300000000001  0.42435  0.57866  1.0000
  H   H9        1.0  0.64074  0.53244  0.57059  1.0000
  H   H10       1.0  0.64954  0.40226  0.61674  1.0000
  H   H11       1.0  0.60285  0.41395999999999994  0.39361999999999997  1.0000
  H   H12       1.0  0.4884  0.4182199999999999  0.29786  1.0000
  H   H13       1.0  0.59833  0.03455  0.28028  1.0000
  H   H14       1.0  0.70187  0.04492  0.37863  1.0000
  H   H15       1.0  0.37469  0.06533  0.41857  1.0000
  H   H16       1.0  0.12774  0.96537  0.43194  1.0000
  H   H17       1.0  0.13646  0.08918  0.38211999999999996  1.0000
  H   H18       1.0  0.10246999999999999  0.09027  0.60642  1.0000
  H   H19       1.0  0.98505  0.08227  0.70212  1.0000
  H   H20       1.0  0.09268  0.46405999999999986  0.72399  1.0000
  H   H21       1.0  0.19768  0.45757  0.6257  1.0000
  H   H22       1.0  0.12346  0.43383  0.91851  1.0000
  H   H23       1.0  0.3694  0.53413  0.9312899999999998  1.0000
  H   H24       1.0  0.36252  0.41036  0.88165  1.0000
  H   H25       1.0  0.3995  0.40807  0.10613  1.0000
  H   H26       1.0  0.51544  0.41600999999999994  0.20192999999999997  1.0000
  H   H27       1.0  0.40591  0.03466  0.22378999999999993  1.0000
  H   H28       1.0  0.30209  0.04146  0.12552  1.0000
  H   H29       1.0  0.37683000000000005  0.93341  0.91849  1.0000
  H   H30       1.0  0.13017000000000004  0.03623  0.9316699999999999  1.0000
  H   H31       1.0  0.1388  0.9124199999999999  0.8819799999999999  1.0000
  H   H32       1.0  0.10047  0.9094  0.10641  1.0000
  H   H33       1.0  0.9841300000000001  0.91842  0.20253  1.0000
  H   H34       1.0  0.09369  0.53549  0.2236  1.0000
  H   H35       1.0  0.19816  0.54166  0.12519  1.0000
  H   H36       1.0  0.11796  0.5684  0.42057  1.0000
  H   H37       1.0  0.36433  0.46430999999999994  0.43134  1.0000
  H   H38       1.0  0.35586  0.58963  0.38266  1.0000
  H   H39       1.0  0.40239  0.59091  0.6073  1.0000
  H   H40       1.0  0.51842  0.5827399999999999  0.70331  1.0000
  H   H41       1.0  0.40721  0.9652899999999998  0.72437  1.0000
  H   H42       1.0  0.30324  0.95845  0.62606  1.0000
  H   H43       1.0  0.61545  0.91717  0.58148  1.0000
  H   H44       1.0  0.85327  0.03289999999999999  0.57479  1.0000
  H   H45       1.0  0.8541  0.9010599999999999  0.62015  1.0000
  H   H46       1.0  0.8977900000000001  0.91172  0.3959  1.0000
  H   H47       1.0  0.01034  0.91864  0.29933  1.0000
  H   H48       1.0  0.89822  0.53758  0.27898  1.0000
  H   H49       1.0  0.7971  0.54562  0.37807  1.0000
  H   H50       1.0  0.88685  0.57977  0.07897  1.0000
  H   H51       1.0  0.64507  0.46869  0.07317  1.0000
  H   H52       1.0  0.64764  0.60134  0.11764  1.0000
  H   H53       1.0  0.60518  0.58822  0.8952899999999998  1.0000
  H   H54       1.0  0.49150000000000005  0.5822499999999999  0.7992699999999999  1.0000
  H   H55       1.0  0.60071  0.96424  0.77978  1.0000
  H   H56       1.0  0.70264  0.9553899999999999  0.87859  1.0000
  C   C1        1.0  0.66752  0.029119999999999993  0.99292  1.0000
  C   C2        1.0  0.69533  0.10261999999999998  0.04811  1.0000
  C   C3        1.0  0.84211  0.07009  0.07289  1.0000
  C   C4        1.0  0.9615100000000001  0.12703  0.03835  1.0000
  C   C5        1.0  0.89745  0.16621  0.8668  1.0000
  C   C6        1.0  0.9604400000000001  0.16458999999999996  0.8129499999999998  1.0000
  C   C7        1.0  0.96355  0.27190999999999993  0.77971  1.0000
  C   C8        1.0  0.90219  0.37779999999999997  0.80375  1.0000
  C   C9        1.0  0.84115  0.3732599999999999  0.85808  1.0000
  C   C10       1.0  0.83204  0.47371  0.49213  1.0000
  C   C11       1.0  0.80504  0.39998999999999996  0.54745  1.0000
  C   C12       1.0  0.65761  0.43238  0.57189  1.0000
  C   C13       1.0  0.5391  0.37284  0.53807  1.0000
  C   C14       1.0  0.60024  0.33247  0.36674  1.0000
  C   C15       1.0  0.53749  0.33381  0.31294  1.0000
  C   C16       1.0  0.5349  0.22652999999999998  0.27966  1.0000
  C   C17       1.0  0.59607  0.12071999999999998  0.30373  1.0000
  C   C18       1.0  0.65688  0.12557  0.35799  1.0000
  C   C19       1.0  0.32864  0.03632  0.50758  1.0000
  C   C20       1.0  0.29479  0.09785999999999999  0.44976  1.0000
  C   C21       1.0  0.14503  0.06473  0.42769  1.0000
  C   C22       1.0  0.028829999999999998  0.1313  0.46166999999999997  1.0000
  C   C23       1.0  0.09843  0.17035  0.6342399999999999  1.0000
  C   C24       1.0  0.03405  0.16689  0.68794  1.0000
  C   C25       1.0  0.029870000000000008  0.27277  0.72224  1.0000
  C   C26       1.0  0.09111000000000001  0.37918  0.6995399999999999  1.0000
  C   C27       1.0  0.15287  0.37599  0.64527  1.0000
  C   C28       1.0  0.17041  0.4621399999999999  0.00745  1.0000
  C   C29       1.0  0.20320999999999997  0.40069  0.9494299999999999  1.0000
  C   C30       1.0  0.35309  0.43458999999999987  0.92725  1.0000
  C   C31       1.0  0.47004  0.36901  0.96087  1.0000
  C   C32       1.0  0.40268  0.32810999999999996  0.13403  1.0000
  C   C33       1.0  0.46631000000000006  0.33153  0.18775  1.0000
  C   C34       1.0  0.46951000000000004  0.22572  0.22211  1.0000
  C   C35       1.0  0.40819  0.11951  0.19935999999999995  1.0000
  C   C36       1.0  0.34709  0.12284999999999999  0.14511  1.0000
  C   C37       1.0  0.32953  0.96264  0.00744  1.0000
  C   C38       1.0  0.29706  0.9014899999999999  0.9495999999999999  1.0000
  C   C39       1.0  0.14735  0.93659  0.9276  1.0000
  C   C40       1.0  0.030050000000000007  0.87168  0.96101  1.0000
  C   C41       1.0  0.09709  0.82943  0.13426  1.0000
  C   C42       1.0  0.03329  0.8334  0.18812  1.0000
  C   C43       1.0  0.02985  0.72738  0.22228  1.0000
  C   C44       1.0  0.09142  0.62052  0.19929  1.0000
  C   C45       1.0  0.15275  0.62341  0.14494  1.0000
  C   C46       1.0  0.16895  0.5387699999999999  0.5089  1.0000
  C   C47       1.0  0.19926  0.6001  0.45092  1.0000
  C   C48       1.0  0.34791  0.5641199999999998  0.42814  1.0000
  C   C49       1.0  0.46681000000000006  0.62768  0.46098  1.0000
  C   C50       1.0  0.40545  0.67106  0.63506  1.0000
  C   C51       1.0  0.46899  0.66748  0.68881  1.0000
  C   C52       1.0  0.47174000000000005  0.77369  0.72285  1.0000
  C   C53       1.0  0.40993  0.8803  0.7  1.0000
  C   C54       1.0  0.34894  0.87695  0.64575  1.0000
  C   C55       1.0  0.66908  0.96293  0.49468  1.0000
  C   C56       1.0  0.70005  0.8943599999999999  0.55055  1.0000
  C   C57       1.0  0.84439  0.9321699999999999  0.57555  1.0000
  C   C58       1.0  0.9666200000000001  0.8782399999999999  0.54076  1.0000
  C   C59       1.0  0.90033  0.8315499999999999  0.36824  1.0000
  C   C60       1.0  0.96178  0.8342199999999999  0.31404  1.0000
  C   C61       1.0  0.964  0.72808  0.27992  1.0000
  C   C62       1.0  0.90192  0.62264  0.30325  1.0000
  C   C63       1.0  0.84245  0.6261399999999999  0.35791999999999996  1.0000
  C   C64       1.0  0.83223  0.5317599999999999  0.99245  1.0000
  C   C65       1.0  0.80291  0.60326  0.048049999999999995  1.0000
  C   C66       1.0  0.65714  0.56911  0.07314  1.0000
  C   C67       1.0  0.53643  0.62455  0.03839  1.0000
  C   C68       1.0  0.6021599999999999  0.66867  0.86785  1.0000
  C   C69       1.0  0.54007  0.66653  0.81401  1.0000
  C   C70       1.0  0.53728  0.7731199999999998  0.7802799999999998  1.0000
  C   C71       1.0  0.59829  0.87878  0.80372  1.0000
  C   C72       1.0  0.65849  0.8748399999999998  0.8580699999999999  1.0000
  N   N1        1.0  0.8377  0.26875  0.88887  1.0000
  N   N2        1.0  0.66041  0.23015999999999998  0.38875  1.0000
  N   N3        1.0  0.15767  0.27305  0.61334  1.0000
  N   N4        1.0  0.34308  0.22567999999999996  0.11314999999999997  1.0000
  N   N5        1.0  0.15665000000000004  0.72637  0.11311999999999998  1.0000
  N   N6        1.0  0.34564  0.7738899999999999  0.6139899999999999  1.0000
  N   N7        1.0  0.84151  0.7290599999999999  0.38999999999999996  1.0000
  N   N8        1.0  0.6612  0.77109  0.88944  1.0000
  O   O1        1.0  0.67194  0.09056  0.94604  1.0000
  O   O2        1.0  0.64329  0.91617  0.9974699999999999  1.0000
  O   O3        1.0  0.68679  0.22993999999999998  0.03703  1.0000
  O   O4        1.0  0.93593  0.17026  0.9886399999999999  1.0000
  O   O5        1.0  0.0852  0.12525  0.06025  1.0000
  O   O6        1.0  0.82768  0.4129999999999999  0.44545999999999997  1.0000
  O   O7        1.0  0.85536  0.5874  0.49741  1.0000
  O   O8        1.0  0.81387  0.27269999999999994  0.53674  1.0000
  O   O9        1.0  0.56466  0.32582999999999995  0.48886  1.0000
  O   O10       1.0  0.41523  0.37618  0.55991  1.0000
  O   O11       1.0  0.32937  0.10380999999999999  0.55181  1.0000
  O   O12       1.0  0.35709  0.92229  0.50787  1.0000
  O   O13       1.0  0.30294  0.22502999999999998  0.45664999999999994  1.0000
  O   O14       1.0  0.05723  0.1705  0.5112  1.0000
  O   O15       1.0  0.9068400000000001  0.14006999999999997  0.43739999999999996  1.0000
  O   O16       1.0  0.17062  0.3947  0.05169  1.0000
  O   O17       1.0  0.14221  0.5762899999999999  0.0079  1.0000
  O   O18       1.0  0.19418  0.27349  0.95612  1.0000
  O   O19       1.0  0.44153  0.32698  0.01  1.0000
  O   O20       1.0  0.59283  0.36367999999999995  0.93716  1.0000
  O   O21       1.0  0.32874  0.89605  0.05181  1.0000
  O   O22       1.0  0.35813  0.07659  0.00745  1.0000
  O   O23       1.0  0.30617  0.77426  0.9563599999999999  1.0000
  O   O24       1.0  0.05763  0.8294099999999998  0.01037  1.0000
  O   O25       1.0  0.90832  0.86738  0.93711  1.0000
  O   O26       1.0  0.17091  0.60502  0.55352  1.0000
  O   O27       1.0  0.14201  0.42449  0.5085  1.0000
  O   O28       1.0  0.19286  0.72751  0.45731999999999995  1.0000
  O   O29       1.0  0.44158  0.67274  0.51018  1.0000
  O   O30       1.0  0.58821  0.62807  0.43681  1.0000
  O   O31       1.0  0.67211  0.8952  0.44879  1.0000
  O   O32       1.0  0.64249  0.07515  0.49462  1.0000
  O   O33       1.0  0.70027  0.76611  0.54023  1.0000
  O   O34       1.0  0.94479  0.84362  0.48979999999999996  1.0000
  O   O35       1.0  0.08765000000000002  0.8729899999999999  0.56566  1.0000
  O   O36       1.0  0.82802  0.59583  0.9459999999999997  1.0000
  O   O37       1.0  0.85749  0.41885999999999995  0.99493  1.0000
  O   O38       1.0  0.80705  0.73114  0.03743  1.0000
  O   O39       1.0  0.56099  0.66653  0.9885999999999999  1.0000
  O   O40       1.0  0.41294  0.62327  0.06101  1.0000
