data_image0
_chemical_formula_structural       Cd8H44C80N8O36
_chemical_formula_sum              "Cd8 H44 C80 N8 O36"
_cell_length_a       12.4226
_cell_length_b       15.15504
_cell_length_c       15.795360000000002
_cell_angle_alpha    85.26714
_cell_angle_beta     78.07679
_cell_angle_gamma    65.98045

_symmetry_space_group_name_H-M    'P 1'
_symmetry_Int_Tables_number       1

loop_
  _symmetry_equiv_pos_as_xyz
  'x,y,z'

loop_
  _atom_site_type_symbol
  _atom_site_label
  _atom_site_symmetry_multiplicity
  _atom_site_fract_x
  _atom_site_fract_y
  _atom_site_fract_z
  _atom_site_occupancy
  Cd  Cd1       1.0  0.5475400000000002  0.51055  0.35228  1.0000
  Cd  Cd2       1.0  0.22550000000000012  0.34081  0.17751  1.0000
  Cd  Cd3       1.0  0.94187  0.50987  0.14757999999999993  1.0000
  Cd  Cd4       1.0  0.43256000000000017  0.34028  0.32049999999999995  1.0000
  Cd  Cd5       1.0  0.45246000000000014  0.48945  0.64772  1.0000
  Cd  Cd6       1.0  0.7745  0.65919  0.82249  1.0000
  Cd  Cd7       1.0  0.058129999999999966  0.49013  0.85242  1.0000
  Cd  Cd8       1.0  0.5674400000000003  0.65972  0.6794999999999998  1.0000
  H   H1        1.0  0.86696  0.65512  0.41749  1.0000
  H   H2        1.0  0.07468999999999999  0.61165  0.32954  1.0000
  H   H3        1.0  0.5782100000000002  0.64404  0.18197999999999995  1.0000
  H   H4        1.0  0.4952400000000001  0.81432  0.13353999999999994  1.0000
  H   H5        1.0  0.5053200000000002  0.95976  0.12582  1.0000
  H   H6        1.0  0.42961  0.1382  0.09782999999999997  1.0000
  H   H7        1.0  0.15386000000000005  0.19597  0.31002999999999986  1.0000
  H   H8        1.0  0.21770000000000006  0.02111  0.34885  1.0000
  H   H9        1.0  0.3571  0.89549  0.40372  1.0000
  H   H10       1.0  0.43899000000000005  0.7203899999999999  0.43998  1.0000
  H   H11       1.0  0.14779  0.41183  0.03382  1.0000
  H   H12       1.0  0.4788700000000002  0.65385  0.08407  1.0000
  H   H13       1.0  0.31379  0.6112599999999999  0.17180999999999993  1.0000
  H   H14       1.0  0.7791800000000003  0.64334  0.31785999999999986  1.0000
  H   H15       1.0  0.69217  0.81389  0.36654  1.0000
  H   H16       1.0  0.5365400000000001  0.9589700000000001  0.3743599999999999  1.0000
  H   H17       1.0  0.4314000000000001  0.1376  0.4008799999999999  1.0000
  H   H18       1.0  0.6478900000000002  0.19592000000000004  0.18803999999999996  1.0000
  H   H19       1.0  0.7612200000000002  0.02081  0.15052  1.0000
  H   H20       1.0  0.7493600000000002  0.89428  0.09639999999999997  1.0000
  H   H21       1.0  0.8424800000000005  0.71908  0.05995  1.0000
  H   H22       1.0  0.43935  0.41171  0.46493  1.0000
  H   H23       1.0  0.13304000000000005  0.34488  0.5824999999999998  1.0000
  H   H24       1.0  0.9253100000000002  0.38836  0.67046  1.0000
  H   H25       1.0  0.42179000000000033  0.35596  0.8180199999999997  1.0000
  H   H26       1.0  0.50476  0.18568  0.86645  1.0000
  H   H27       1.0  0.49468  0.04024  0.8741799999999997  1.0000
  H   H28       1.0  0.5704  0.8618  0.9021699999999998  1.0000
  H   H29       1.0  0.8461399999999999  0.80403  0.6899699999999998  1.0000
  H   H30       1.0  0.7823000000000006  0.97889  0.6511499999999998  1.0000
  H   H31       1.0  0.6429000000000001  0.10452  0.59628  1.0000
  H   H32       1.0  0.5610100000000001  0.27962  0.5600199999999997  1.0000
  H   H33       1.0  0.8522100000000001  0.58817  0.9661699999999998  1.0000
  H   H34       1.0  0.5211300000000002  0.34616  0.91593  1.0000
  H   H35       1.0  0.6862100000000001  0.38875  0.82819  1.0000
  H   H36       1.0  0.22082000000000004  0.35667  0.68213  1.0000
  H   H37       1.0  0.3078300000000002  0.18611  0.63345  1.0000
  H   H38       1.0  0.46346000000000026  0.04104  0.62564  1.0000
  H   H39       1.0  0.5686000000000002  0.8624  0.5991099999999998  1.0000
  H   H40       1.0  0.3521100000000001  0.80409  0.8119599999999998  1.0000
  H   H41       1.0  0.23879000000000009  0.97919  0.84948  1.0000
  H   H42       1.0  0.2506500000000001  0.10572  0.9036  1.0000
  H   H43       1.0  0.15753000000000011  0.28092  0.9400499999999998  1.0000
  H   H44       1.0  0.5606500000000002  0.5883  0.53507  1.0000
  C   C1        1.0  0.27773000000000003  0.57049  0.39076  1.0000
  C   C2        1.0  0.15591000000000008  0.58538  0.4416699999999999  1.0000
  C   C3        1.0  0.13824000000000006  0.57441  0.5329799999999998  1.0000
  C   C4        1.0  0.24375000000000016  0.5364  0.5776799999999999  1.0000
  C   C5        1.0  0.02104  0.59807  0.58202  1.0000
  C   C6        1.0  0.008899999999999979  0.58565  0.67825  1.0000
  C   C7        1.0  0.9221200000000003  0.63195  0.54013  1.0000
  C   C8        1.0  0.7924300000000002  0.66534  0.58535  1.0000
  C   C9        1.0  0.9434900000000003  0.6347  0.44895  1.0000
  C   C10       1.0  0.05859000000000008  0.6113899999999999  0.3999999999999999  1.0000
  C   C11       1.0  0.5271200000000001  0.70221  0.22872999999999993  1.0000
  C   C12       1.0  0.48155000000000003  0.79826  0.20241999999999993  1.0000
  C   C13       1.0  0.41723  0.87117  0.26488  1.0000
  C   C14       1.0  0.36932000000000004  0.97453  0.24114  1.0000
  C   C15       1.0  0.42631  0.00916  0.16805999999999996  1.0000
  C   C16       1.0  0.38562  0.10798  0.15212  1.0000
  C   C17       1.0  0.23225000000000004  0.14056  0.2722999999999999  1.0000
  C   C18       1.0  0.26855  0.04298  0.29282  1.0000
  C   C19       1.0  0.40346  0.84234  0.35201  1.0000
  C   C20       1.0  0.45017999999999997  0.74462  0.3730099999999999  1.0000
  C   C21       1.0  0.15238  0.56891  0.10936  1.0000
  C   C22       1.0  0.2593600000000001  0.58438  0.05917  1.0000
  C   C23       1.0  0.28791000000000005  0.5741  0.9676699999999998  1.0000
  C   C24       1.0  0.2203100000000001  0.53629  0.9225199999999998  1.0000
  C   C25       1.0  0.38152  0.5979900000000001  0.91879  1.0000
  C   C26       1.0  0.40657000000000026  0.58565  0.8223199999999998  1.0000
  C   C27       1.0  0.44661999999999996  0.63156  0.96136  1.0000
  C   C28       1.0  0.5439400000000003  0.6647  0.9173499999999998  1.0000
  C   C29       1.0  0.4222  0.63397  0.05255  1.0000
  C   C30       1.0  0.33021999999999996  0.61068  0.10132  1.0000
  C   C31       1.0  0.7722500000000001  0.70148  0.2712499999999999  1.0000
  C   C32       1.0  0.7219500000000001  0.79761  0.29766  1.0000
  C   C33       1.0  0.71337  0.87036  0.23519999999999994  1.0000
  C   C34       1.0  0.65718  0.97388  0.25869  1.0000
  C   C35       1.0  0.5654300000000002  0.00849  0.33167  1.0000
  C   C36       1.0  0.5059800000000002  0.10741  0.34687  1.0000
  C   C37       1.0  0.6258700000000001  0.14028  0.22624  1.0000
  C   C38       1.0  0.68841  0.04259  0.20645999999999995  1.0000
  C   C39       1.0  0.7561200000000002  0.84127  0.14806  1.0000
  C   C40       1.0  0.80703  0.7435  0.12695  1.0000
  C   C41       1.0  0.72228  0.42951  0.60924  1.0000
  C   C42       1.0  0.8440899999999999  0.41462  0.55833  1.0000
  C   C43       1.0  0.86176  0.4256  0.46701  1.0000
  C   C44       1.0  0.75625  0.4636  0.42232  1.0000
  C   C45       1.0  0.9789599999999999  0.40193000000000006  0.4179799999999999  1.0000
  C   C46       1.0  0.9911000000000002  0.41436  0.32175  1.0000
  C   C47       1.0  0.07788000000000002  0.36806000000000005  0.4598699999999999  1.0000
  C   C48       1.0  0.20757999999999996  0.33466  0.4146499999999999  1.0000
  C   C49       1.0  0.05651000000000007  0.36531  0.5510499999999998  1.0000
  C   C50       1.0  0.9414100000000004  0.38862  0.59999  1.0000
  C   C51       1.0  0.47289000000000014  0.29779  0.77127  1.0000
  C   C52       1.0  0.5184500000000002  0.20174  0.79758  1.0000
  C   C53       1.0  0.58277  0.12884  0.73512  1.0000
  C   C54       1.0  0.63068  0.02548  0.75886  1.0000
  C   C55       1.0  0.57369  0.99084  0.83194  1.0000
  C   C56       1.0  0.6143800000000001  0.8920199999999999  0.84788  1.0000
  C   C57       1.0  0.7677599999999999  0.85944  0.7276899999999998  1.0000
  C   C58       1.0  0.7314499999999999  0.95703  0.70718  1.0000
  C   C59       1.0  0.59654  0.15766  0.64799  1.0000
  C   C60       1.0  0.54983  0.25538  0.6269899999999998  1.0000
  C   C61       1.0  0.84762  0.4311  0.89064  1.0000
  C   C62       1.0  0.74064  0.41562  0.9408299999999998  1.0000
  C   C63       1.0  0.7120900000000001  0.4259  0.03233  1.0000
  C   C64       1.0  0.7796900000000002  0.46372  0.07748  1.0000
  C   C65       1.0  0.61848  0.40202  0.08120999999999998  1.0000
  C   C66       1.0  0.5934299999999999  0.41435  0.17767999999999998  1.0000
  C   C67       1.0  0.5533800000000001  0.36844  0.03864  1.0000
  C   C68       1.0  0.45605999999999997  0.3353  0.08265  1.0000
  C   C69       1.0  0.5778000000000002  0.36603  0.94745  1.0000
  C   C70       1.0  0.6697800000000003  0.38932  0.8986799999999998  1.0000
  C   C71       1.0  0.22775000000000006  0.29852  0.72875  1.0000
  C   C72       1.0  0.27805  0.20238999999999996  0.70234  1.0000
  C   C73       1.0  0.28663  0.12965  0.7647999999999998  1.0000
  C   C74       1.0  0.34281999999999996  0.02612  0.74131  1.0000
  C   C75       1.0  0.43456999999999996  0.99151  0.6683299999999998  1.0000
  C   C76       1.0  0.49401999999999996  0.8925900000000001  0.65313  1.0000
  C   C77       1.0  0.3741399999999999  0.85972  0.77376  1.0000
  C   C78       1.0  0.3115900000000002  0.9574099999999999  0.79354  1.0000
  C   C79       1.0  0.24388  0.15874  0.85193  1.0000
  C   C80       1.0  0.19296999999999997  0.2565  0.87304  1.0000
  N   N1        1.0  0.5104200000000002  0.67525  0.31219  1.0000
  N   N2        1.0  0.29085000000000005  0.17316  0.20390999999999995  1.0000
  N   N3        1.0  0.8158400000000002  0.67434  0.18776  1.0000
  N   N4        1.0  0.53447  0.17274  0.29448999999999986  1.0000
  N   N5        1.0  0.48958  0.32475  0.68781  1.0000
  N   N6        1.0  0.70915  0.82685  0.7960899999999997  1.0000
  N   N7        1.0  0.18417000000000003  0.32567  0.81224  1.0000
  N   N8        1.0  0.4655300000000003  0.82726  0.70551  1.0000
  O   O1        1.0  0.3427500000000001  0.59677  0.42748999999999987  1.0000
  O   O2        1.0  0.31176  0.53334  0.31616  1.0000
  O   O3        1.0  0.32365  0.45155999999999996  0.5587  1.0000
  O   O4        1.0  0.2487500000000002  0.58922  0.63333  1.0000
  O   O5        1.0  0.06756  0.50138  0.70451  1.0000
  O   O6        1.0  0.9449500000000001  0.65902  0.7255099999999998  1.0000
  O   O7        1.0  0.76679  0.62932  0.6601199999999998  1.0000
  O   O8        1.0  0.7145100000000002  0.72483  0.5458599999999998  1.0000
  O   O9        1.0  0.106  0.38725  0.08378999999999998  1.0000
  O   O10       1.0  0.06185000000000003  0.59524  0.07213  1.0000
  O   O11       1.0  0.15432999999999997  0.5312  0.1837  1.0000
  O   O12       1.0  0.22381000000000012  0.4517  0.9412799999999998  1.0000
  O   O13       1.0  0.1638100000000001  0.58909  0.8665699999999997  1.0000
  O   O14       1.0  0.4326200000000001  0.50128  0.7955399999999998  1.0000
  O   O15       1.0  0.39736000000000005  0.6592  0.7753999999999998  1.0000
  O   O16       1.0  0.6043400000000002  0.63074  0.8416299999999998  1.0000
  O   O17       1.0  0.56451  0.72211  0.95844  1.0000
  O   O18       1.0  0.5044400000000003  0.38758  0.4141799999999999  1.0000
  O   O19       1.0  0.6572500000000001  0.40324  0.5725  1.0000
  O   O20       1.0  0.6882400000000002  0.46664  0.68385  1.0000
  O   O21       1.0  0.6763500000000002  0.54844  0.4412999999999999  1.0000
  O   O22       1.0  0.7512500000000002  0.41078000000000003  0.36667  1.0000
  O   O23       1.0  0.9324400000000002  0.49862  0.29549  1.0000
  O   O24       1.0  0.05505000000000007  0.34097999999999995  0.2744899999999999  1.0000
  O   O25       1.0  0.23321000000000028  0.37068  0.3398799999999999  1.0000
  O   O26       1.0  0.28549000000000013  0.27518  0.4541399999999999  1.0000
  O   O27       1.0  0.8940000000000006  0.61275  0.91621  1.0000
  O   O28       1.0  0.9381600000000002  0.40476000000000006  0.9278699999999998  1.0000
  O   O29       1.0  0.8456700000000003  0.46881  0.8163  1.0000
  O   O30       1.0  0.7761900000000003  0.5483  0.058709999999999984  1.0000
  O   O31       1.0  0.8362000000000003  0.41091  0.13343  1.0000
  O   O32       1.0  0.56739  0.49872  0.20445  1.0000
  O   O33       1.0  0.6026500000000001  0.34081  0.2246  1.0000
  O   O34       1.0  0.3956600000000001  0.36927  0.15837  1.0000
  O   O35       1.0  0.4355000000000001  0.27789  0.04156  1.0000
  O   O36       1.0  0.4955600000000002  0.61242  0.58582  1.0000
