data_image0
_chemical_formula_structural       Co8H40C72O40
_chemical_formula_sum              "Co8 H40 C72 O40"
_cell_length_a       12.75235
_cell_length_b       14.65985
_cell_length_c       14.49085
_cell_angle_alpha    90.0386
_cell_angle_beta     114.34891
_cell_angle_gamma    89.95131000000002

_space_group_name_H-M_alt    "P 1"
_space_group_IT_number       1

loop_
  _space_group_symop_operation_xyz
  'x, y, z'

loop_
  _atom_site_type_symbol
  _atom_site_label
  _atom_site_symmetry_multiplicity
  _atom_site_fract_x
  _atom_site_fract_y
  _atom_site_fract_z
  _atom_site_occupancy
  Co  Co1       1.0  0.47798  0.60189  0.73867  1.0000
  Co  Co2       1.0  0.63752  0.6972499999999998  0.88742  1.0000
  Co  Co3       1.0  0.023470000000000033  0.10209  0.76129  1.0000
  Co  Co4       1.0  0.86463  0.19709  0.61302  1.0000
  Co  Co5       1.0  0.52202  0.3980699999999999  0.26139  1.0000
  Co  Co6       1.0  0.36254  0.30284  0.11231  1.0000
  Co  Co7       1.0  0.9765  0.8979  0.23866  1.0000
  Co  Co8       1.0  0.13534  0.8028  0.387  1.0000
  H   H1        1.0  0.80988  0.4573599999999999  0.0722  1.0000
  H   H2        1.0  0.9678100000000002  0.17936  0.15029  1.0000
  H   H3        1.0  0.09095  0.2506399999999999  0.17718  1.0000
  H   H4        1.0  0.25553  0.4331099999999999  0.456  1.0000
  H   H5        1.0  0.75376  0.40156  0.76265  1.0000
  H   H6        1.0  0.05168  0.20466999999999994  0.47592  1.0000
  H   H7        1.0  0.97535  0.22656999999999994  0.00198  1.0000
  H   H8        1.0  0.07757  0.16926  0.32973  1.0000
  H   H9        1.0  0.95807  0.24295999999999995  0.3111  1.0000
  H   H10       1.0  0.255  0.3587  0.74357  1.0000
  H   H11       1.0  0.69101  0.95758  0.42814  1.0000
  H   H12       1.0  0.53252  0.67957  0.34984  1.0000
  H   H13       1.0  0.40971  0.7515499999999998  0.3226  1.0000
  H   H14       1.0  0.24462  0.9329  0.04385  1.0000
  H   H15       1.0  0.74616  0.9022999999999998  0.73753  1.0000
  H   H16       1.0  0.44955  0.7046999999999998  0.0241  1.0000
  H   H17       1.0  0.52539  0.7270899999999999  0.49806  1.0000
  H   H18       1.0  0.42256  0.66969  0.17021  1.0000
  H   H19       1.0  0.54308  0.7421399999999998  0.18914  1.0000
  H   H20       1.0  0.24563999999999997  0.85827  0.75636  1.0000
  H   H21       1.0  0.1900999999999999  0.5426  0.92774  1.0000
  H   H22       1.0  0.03214999999999997  0.82061  0.84974  1.0000
  H   H23       1.0  0.909  0.7493199999999998  0.82279  1.0000
  H   H24       1.0  0.74437  0.56695  0.544  1.0000
  H   H25       1.0  0.24624  0.59847  0.23732  1.0000
  H   H26       1.0  0.94832  0.79532  0.52408  1.0000
  H   H27       1.0  0.024630000000000013  0.7734  0.99796  1.0000
  H   H28       1.0  0.92242  0.83075  0.67028  1.0000
  H   H29       1.0  0.04193000000000001  0.75707  0.68892  1.0000
  H   H30       1.0  0.74503  0.6412599999999998  0.25645  1.0000
  H   H31       1.0  0.309  0.04242  0.57191  1.0000
  H   H32       1.0  0.46748  0.3204599999999999  0.65014  1.0000
  H   H33       1.0  0.5902300000000003  0.24839999999999995  0.67735  1.0000
  H   H34       1.0  0.7553  0.06706  0.95617  1.0000
  H   H35       1.0  0.25379  0.09756  0.26245  1.0000
  H   H36       1.0  0.55046  0.29536  0.9758999999999999  1.0000
  H   H37       1.0  0.47451  0.27288  0.50182  1.0000
  H   H38       1.0  0.57743  0.3303199999999999  0.82975  1.0000
  H   H39       1.0  0.45688  0.25787  0.81085  1.0000
  H   H40       1.0  0.75425  0.14170999999999997  0.24361999999999998  1.0000
  C   C1        1.0  0.82595  0.4159799999999999  0.01707  1.0000
  C   C2        1.0  0.011599999999999982  0.24203999999999995  0.18884  1.0000
  C   C3        1.0  0.69708  0.51803  0.87906  1.0000
  C   C4        1.0  0.2252  0.3890499999999999  0.50023  1.0000
  C   C5        1.0  0.79428  0.38434  0.8426  1.0000
  C   C6        1.0  0.11029999999999997  0.26085  0.50997  1.0000
  C   C7        1.0  0.77474  0.43788  0.91415  1.0000
  C   C8        1.0  0.8684500000000002  0.30966999999999995  0.87635  1.0000
  C   C9        1.0  0.14847  0.3176799999999999  0.45261  1.0000
  C   C10       1.0  0.89646  0.33841  0.04956  1.0000
  C   C11       1.0  0.91958  0.28598  0.97955  1.0000
  C   C12       1.0  0.038020000000000005  0.23573999999999995  0.30012  1.0000
  C   C13       1.0  0.26241  0.4038099999999999  0.60428  1.0000
  C   C14       1.0  0.15028  0.2755499999999999  0.61493  1.0000
  C   C15       1.0  0.22575  0.3468699999999999  0.66272  1.0000
  C   C16       1.0  0.3432200000000001  0.47969  0.65396  1.0000
  C   C17       1.0  0.11048999999999995  0.21575999999999995  0.67543  1.0000
  C   C18       1.0  0.89473  0.25358  0.8036  1.0000
  C   C19       1.0  0.67469  0.9163799999999998  0.48321  1.0000
  C   C20       1.0  0.48919  0.7423799999999999  0.31122  1.0000
  C   C21       1.0  0.80418  0.01817  0.6211799999999998  1.0000
  C   C22       1.0  0.27515999999999996  0.88884  0.9996599999999999  1.0000
  C   C23       1.0  0.70585  0.8850199999999998  0.65757  1.0000
  C   C24       1.0  0.3908099999999999  0.76084  0.9899799999999997  1.0000
  C   C25       1.0  0.72579  0.93838  0.58614  1.0000
  C   C26       1.0  0.63176  0.8103599999999997  0.6237099999999999  1.0000
  C   C27       1.0  0.35264000000000006  0.8178399999999998  0.04733  1.0000
  C   C28       1.0  0.6042599999999999  0.8388099999999997  0.45063  1.0000
  C   C29       1.0  0.58081  0.7866299999999998  0.52053  1.0000
  C   C30       1.0  0.46295000000000003  0.73588  0.19996  1.0000
  C   C31       1.0  0.23744999999999994  0.9033499999999998  0.89552  1.0000
  C   C32       1.0  0.35078999999999994  0.7754499999999998  0.8849899999999999  1.0000
  C   C33       1.0  0.27474  0.84655  0.8372  1.0000
  C   C34       1.0  0.15602000000000005  0.97909  0.84598  1.0000
  C   C35       1.0  0.39143  0.71596  0.8246599999999998  1.0000
  C   C36       1.0  0.60653  0.7536599999999999  0.6965  1.0000
  C   C37       1.0  0.17404000000000006  0.58398  0.98289  1.0000
  C   C38       1.0  0.98837  0.7579499999999998  0.81115  1.0000
  C   C39       1.0  0.30293  0.48196  0.12094  1.0000
  C   C40       1.0  0.77474  0.6109799999999997  0.49977  1.0000
  C   C41       1.0  0.20574  0.61567  0.15736  1.0000
  C   C42       1.0  0.8896900000000001  0.73915  0.49003  1.0000
  C   C43       1.0  0.22527  0.5620999999999999  0.08581  1.0000
  C   C44       1.0  0.13149999999999998  0.6902999999999999  0.12360999999999998  1.0000
  C   C45       1.0  0.8515  0.6823399999999997  0.54738  1.0000
  C   C46       1.0  0.10354999999999999  0.66157  0.9504099999999999  1.0000
  C   C47       1.0  0.08044000000000001  0.7140099999999998  0.02043  1.0000
  C   C48       1.0  0.9619700000000001  0.7642699999999998  0.69989  1.0000
  C   C49       1.0  0.7375500000000001  0.59621  0.39571999999999996  1.0000
  C   C50       1.0  0.84973  0.7244399999999998  0.38506999999999997  1.0000
  C   C51       1.0  0.77425  0.65312  0.33729  1.0000
  C   C52       1.0  0.65677  0.5203  0.34604  1.0000
  C   C53       1.0  0.88952  0.7842199999999998  0.32458  1.0000
  C   C54       1.0  0.1052  0.7463499999999997  0.19639  1.0000
  C   C55       1.0  0.32522  0.08361999999999997  0.51679  1.0000
  C   C56       1.0  0.51076  0.25762  0.68875  1.0000
  C   C57       1.0  0.19572999999999993  0.9817899999999998  0.37881999999999993  1.0000
  C   C58       1.0  0.72476  0.11114999999999997  0.00034  1.0000
  C   C59       1.0  0.29416  0.11487999999999997  0.3424  1.0000
  C   C60       1.0  0.60916  0.23917999999999998  0.010009999999999998  1.0000
  C   C61       1.0  0.27411  0.06159999999999999  0.41385  1.0000
  C   C62       1.0  0.36839  0.18950999999999996  0.37622  1.0000
  C   C63       1.0  0.64732  0.18217  0.95266  1.0000
  C   C64       1.0  0.39562  0.16120999999999994  0.54931  1.0000
  C   C65       1.0  0.41913  0.21331999999999995  0.47938  1.0000
  C   C66       1.0  0.53702  0.26412  0.80002  1.0000
  C   C67       1.0  0.76247  0.09663999999999998  0.10447  1.0000
  C   C68       1.0  0.64913  0.22453999999999993  0.115  1.0000
  C   C69       1.0  0.72517  0.15344  0.16278  1.0000
  C   C70       1.0  0.84388  0.02089  0.154  1.0000
  C   C71       1.0  0.60855  0.2840399999999999  0.17537  1.0000
  C   C72       1.0  0.39405000000000007  0.24625999999999995  0.30362  1.0000
  O   O1        1.0  0.11641999999999998  0.3090199999999999  0.35087999999999997  1.0000
  O   O2        1.0  0.72031  0.5872599999999998  0.93984  1.0000
  O   O3        1.0  0.9373800000000002  0.3200499999999999  0.15046  1.0000
  O   O4        1.0  0.6135800000000002  0.51375  0.79213  1.0000
  O   O5        1.0  0.3656699999999999  0.50098  0.7461899999999998  1.0000
  O   O6        1.0  0.39228  0.5234699999999998  0.60631  1.0000
  O   O7        1.0  0.15921000000000005  0.20716999999999994  0.76925  1.0000
  O   O8        1.0  0.015440000000000023  0.16637999999999997  0.62497  1.0000
  O   O9        1.0  0.84017  0.2726999999999999  0.70763  1.0000
  O   O10       1.0  0.96787  0.18985999999999995  0.8375999999999999  1.0000
  O   O11       1.0  0.38549  0.80967  0.14921  1.0000
  O   O12       1.0  0.78161  0.08732  0.56037  1.0000
  O   O13       1.0  0.56406  0.8199799999999999  0.34984  1.0000
  O   O14       1.0  0.8879  0.013769999999999996  0.70795  1.0000
  O   O15       1.0  0.13336000000000003  0.0004299999999999999  0.75369  1.0000
  O   O16       1.0  0.10686000000000007  0.023039999999999995  0.89358  1.0000
  O   O17       1.0  0.34326999999999996  0.70761  0.7306799999999999  1.0000
  O   O18       1.0  0.4866  0.6665299999999997  0.8751  1.0000
  O   O19       1.0  0.66174  0.77254  0.79246  1.0000
  O   O20       1.0  0.53401  0.6896  0.66252  1.0000
  O   O21       1.0  0.8835600000000001  0.6909999999999997  0.64911  1.0000
  O   O22       1.0  0.27958  0.41269  0.06018  1.0000
  O   O23       1.0  0.06261000000000001  0.6799499999999998  0.84951  1.0000
  O   O24       1.0  0.38645  0.48623  0.20785999999999996  1.0000
  O   O25       1.0  0.63432  0.4990199999999999  0.25382  1.0000
  O   O26       1.0  0.6077  0.4765399999999999  0.39369  1.0000
  O   O27       1.0  0.84079  0.79282  0.23073999999999997  1.0000
  O   O28       1.0  0.98458  0.83358  0.37502999999999986  1.0000
  O   O29       1.0  0.15965  0.72711  0.29233  1.0000
  O   O30       1.0  0.03214  0.8101299999999998  0.1624  1.0000
  O   O31       1.0  0.61448  0.19032999999999994  0.85078  1.0000
  O   O32       1.0  0.21827000000000005  0.9126299999999998  0.43962  1.0000
  O   O33       1.0  0.4358  0.18007  0.65009  1.0000
  O   O34       1.0  0.11204  0.9862199999999998  0.29204  1.0000
  O   O35       1.0  0.86665  0.9995799999999999  0.24633  1.0000
  O   O36       1.0  0.8929600000000001  0.9769099999999997  0.10635  1.0000
  O   O37       1.0  0.65668  0.29239  0.26931  1.0000
  O   O38       1.0  0.51344  0.33351  0.12490999999999998  1.0000
  O   O39       1.0  0.33934000000000003  0.22732  0.20761  1.0000
  O   O40       1.0  0.46628  0.3104999999999999  0.33784  1.0000
