data_image0
_chemical_formula_structural       Ni8H54C96N24O6
_chemical_formula_sum              "Ni8 H54 C96 N24 O6"
_cell_length_a       23.0526
_cell_length_b       23.1588
_cell_length_c       23.03408
_cell_angle_alpha    60.011129999999994
_cell_angle_beta     59.86532
_cell_angle_gamma    60.016239999999996

_space_group_name_H-M_alt    "P 1"
_space_group_IT_number       1

loop_
  _space_group_symop_operation_xyz
  'x, y, z'

loop_
  _atom_site_type_symbol
  _atom_site_label
  _atom_site_symmetry_multiplicity
  _atom_site_fract_x
  _atom_site_fract_y
  _atom_site_fract_z
  _atom_site_occupancy
  Ni  Ni1       1.0  0.9549399999999995  0.95352  0.13711999999999996  1.0000
  Ni  Ni2       1.0  0.9542600000000001  0.9531200000000001  0.95458  1.0000
  Ni  Ni3       1.0  0.9536499999999994  0.13998000000000002  0.9536599999999998  1.0000
  Ni  Ni4       1.0  0.13754000000000002  0.95336  0.95489  1.0000
  Ni  Ni5       1.0  0.045609999999999984  0.04687  0.04559  1.0000
  Ni  Ni6       1.0  0.045119999999999987  0.04653  0.86279  1.0000
  Ni  Ni7       1.0  0.046320000000000056  0.8599999999999999  0.04639  1.0000
  Ni  Ni8       1.0  0.86252  0.04665  0.04506  1.0000
  H   H1        1.0  0.09213999999999989  0.9079500000000001  0.09228  1.0000
  H   H2        1.0  0.9078700000000001  0.09205  0.90773  1.0000
  H   H3        1.0  0.9076599999999998  0.09191  0.09259  1.0000
  H   H4        1.0  0.09227000000000019  0.90808  0.9074699999999999  1.0000
  H   H5        1.0  0.9074100000000002  0.90807  0.09235  1.0000
  H   H6        1.0  0.09253  0.09194999999999998  0.90775  1.0000
  H   H7        1.0  0.06596999999999999  0.06595000000000001  0.48786999999999997  1.0000
  H   H8        1.0  0.06619  0.06659  0.69752  1.0000
  H   H9        1.0  0.06610000000000002  0.06605999999999998  0.37976  1.0000
  H   H10       1.0  0.0661  0.06651  0.16973  1.0000
  H   H11       1.0  0.37966  0.48807  0.06613  1.0000
  H   H12       1.0  0.17057999999999984  0.69684  0.06611  1.0000
  H   H13       1.0  0.48756  0.3806  0.0659  1.0000
  H   H14       1.0  0.69637  0.17076  0.06632  1.0000
  H   H15       1.0  0.38002  0.06604  0.48788  1.0000
  H   H16       1.0  0.16921999999999998  0.06646000000000003  0.69811  1.0000
  H   H17       1.0  0.48799999999999977  0.06606000000000002  0.37986  1.0000
  H   H18       1.0  0.6981  0.06653000000000002  0.16913  1.0000
  H   H19       1.0  0.06602999999999998  0.38049000000000005  0.06597  1.0000
  H   H20       1.0  0.06648999999999998  0.17099  0.06644  1.0000
  H   H21       1.0  0.06613000000000001  0.48773  0.06611  1.0000
  H   H22       1.0  0.06634999999999998  0.69653  0.06617  1.0000
  H   H23       1.0  0.06593999999999998  0.38055  0.48758999999999997  1.0000
  H   H24       1.0  0.06639999999999997  0.17073000000000002  0.69628  1.0000
  H   H25       1.0  0.06618  0.48809  0.37957  1.0000
  H   H26       1.0  0.06623000000000004  0.6968  0.17062999999999998  1.0000
  H   H27       1.0  0.48782999999999993  0.06598  0.06599  1.0000
  H   H28       1.0  0.69719  0.06658000000000001  0.06608  1.0000
  H   H29       1.0  0.37978  0.06608  0.06608999999999998  1.0000
  H   H30       1.0  0.17007999999999995  0.06658000000000001  0.06606  1.0000
  H   H31       1.0  0.9338999999999993  0.9339500000000001  0.62032  1.0000
  H   H32       1.0  0.93387  0.93342  0.8303899999999997  1.0000
  H   H33       1.0  0.9340299999999999  0.93407  0.51219  1.0000
  H   H34       1.0  0.9338700000000001  0.9334699999999999  0.30245  1.0000
  H   H35       1.0  0.6202699999999998  0.51202  0.93387  1.0000
  H   H36       1.0  0.8292800000000001  0.30314  0.93397  1.0000
  H   H37       1.0  0.51236  0.6194800000000001  0.9340999999999999  1.0000
  H   H38       1.0  0.30359  0.82938  0.93365  1.0000
  H   H39       1.0  0.6201599999999996  0.9339200000000002  0.9339099999999999  1.0000
  H   H40       1.0  0.8298100000000002  0.93348  0.9339499999999998  1.0000
  H   H41       1.0  0.5121099999999998  0.9340299999999999  0.9340199999999999  1.0000
  H   H42       1.0  0.30285  0.93335  0.93388  1.0000
  H   H43       1.0  0.9340500000000002  0.61942  0.51245  1.0000
  H   H44       1.0  0.93364  0.82919  0.30372  1.0000
  H   H45       1.0  0.93382  0.5118799999999999  0.62048  1.0000
  H   H46       1.0  0.9337899999999999  0.30317  0.82942  1.0000
  H   H47       1.0  0.9339700000000003  0.6194799999999998  0.9340299999999999  1.0000
  H   H48       1.0  0.9335099999999997  0.82899  0.93354  1.0000
  H   H49       1.0  0.93387  0.5122300000000001  0.9338999999999998  1.0000
  H   H50       1.0  0.9335999999999999  0.30352000000000007  0.9338  1.0000
  H   H51       1.0  0.5120099999999999  0.9339500000000001  0.62014  1.0000
  H   H52       1.0  0.30183999999999994  0.93354  0.8308099999999999  1.0000
  H   H53       1.0  0.6199899999999998  0.93396  0.51213  1.0000
  H   H54       1.0  0.8308300000000001  0.93352  0.3019  1.0000
  C   C1        1.0  0.9999399999999998  0.99994  0.56167  1.0000
  C   C2        1.0  0.99993  0.99998  0.6229399999999999  1.0000
  C   C3        1.0  0.00011999999999999794  0.0001700000000000202  0.67593  1.0000
  C   C4        1.0  9.999999999998927e-05  4.000000000000736e-05  0.73687  1.0000
  C   C5        1.0  7.00000000000113e-05  5.99999999999889e-05  0.43834  1.0000
  C   C6        1.0  7.99999999999965e-05  4.999999999999813e-05  0.37705  1.0000
  C   C7        1.0  0.9999200000000001  0.9998900000000001  0.32402  1.0000
  C   C8        1.0  0.9999099999999999  0.9999000000000001  0.26314  1.0000
  C   C9        1.0  0.43845  0.56134  0.00013  1.0000
  C   C10       1.0  0.37747999999999987  0.62234  0.0001  1.0000
  C   C11       1.0  0.3247399999999998  0.67567  0.9997900000000001  1.0000
  C   C12       1.0  0.26416999999999996  0.73622  0.99984  1.0000
  C   C13       1.0  0.5614999999999999  0.43871999999999994  0.99988  1.0000
  C   C14       1.0  0.6224899999999999  0.37769  0.99988  1.0000
  C   C15       1.0  0.6752499999999999  0.32435  0.00018999999999999998  1.0000
  C   C16       1.0  0.7358299999999999  0.26377  0.00023  1.0000
  C   C17       1.0  0.4383  0.0  0.56173  1.0000
  C   C18       1.0  0.37687  2.000000000002582e-05  0.62312  1.0000
  C   C19       1.0  0.3235899999999999  3.000000000001659e-05  0.67637  1.0000
  C   C20       1.0  0.26257  1.999999999998154e-05  0.73739  1.0000
  C   C21       1.0  0.5616799999999997  1.000000000001291e-05  0.43829  1.0000
  C   C22       1.0  0.62308  1.000000000001291e-05  0.37688999999999995  1.0000
  C   C23       1.0  0.6764299999999999  0.9999099999999999  0.32374  1.0000
  C   C24       1.0  0.7373800000000001  0.99999  0.26266  1.0000
  C   C25       1.0  0.9999600000000002  0.43871  0.9999299999999999  1.0000
  C   C26       1.0  0.9999399999999996  0.37782  0.99997  1.0000
  C   C27       1.0  0.00015000000000001766  0.32465  0.00017  1.0000
  C   C28       1.0  0.000160000000000006  0.26418  0.00015  1.0000
  C   C29       1.0  4.999999999999947e-05  0.56129  7e-05  1.0000
  C   C30       1.0  0.0  0.6222  7e-05  1.0000
  C   C31       1.0  0.9998700000000001  0.6753199999999999  0.99988  1.0000
  C   C32       1.0  0.9999099999999999  0.7358199999999999  0.9997900000000001  1.0000
  C   C33       1.0  0.9998800000000001  0.43872999999999995  0.56152  1.0000
  C   C34       1.0  0.9998700000000001  0.37772  0.62248  1.0000
  C   C35       1.0  0.0002600000000000049  0.32429  0.67515  1.0000
  C   C36       1.0  0.0002199999999999938  0.26379  0.73578  1.0000
  C   C37       1.0  0.00012000000000001412  0.56123  0.43853  1.0000
  C   C38       1.0  0.00011000000000000652  0.62223  0.37755  1.0000
  C   C39       1.0  0.9997499999999996  0.67566  0.32487  1.0000
  C   C40       1.0  0.99982  0.73619  0.26422999999999996  1.0000
  C   C41       1.0  0.5615699999999999  0.9999600000000001  0.99995  1.0000
  C   C42       1.0  0.6227800000000002  0.99997  0.9999399999999999  1.0000
  C   C43       1.0  0.67583  6e-05  5e-05  1.0000
  C   C44       1.0  0.73661  0.0001  5.9999999999999995e-05  1.0000
  C   C45       1.0  0.4383899999999999  5e-05  5e-05  1.0000
  C   C46       1.0  0.3772  4e-05  3.9999999999999996e-05  1.0000
  C   C47       1.0  0.3241899999999999  0.9999099999999999  0.99992  1.0000
  C   C48       1.0  0.2633699999999999  0.99995  0.9999399999999999  1.0000
  C   C49       1.0  0.03727000000000001  0.03723999999999999  0.49275  1.0000
  C   C50       1.0  0.034009999999999915  0.03423999999999997  0.74063  1.0000
  C   C51       1.0  0.03734999999999999  0.03729000000000003  0.43246999999999997  1.0000
  C   C52       1.0  0.03391999999999999  0.03422  0.19105  1.0000
  C   C53       1.0  0.43240999999999996  0.49286  0.03736  1.0000
  C   C54       1.0  0.19207999999999986  0.7398  0.03387  1.0000
  C   C55       1.0  0.49249  0.43298999999999993  0.03724  1.0000
  C   C56       1.0  0.73959  0.19206  0.03405  1.0000
  C   C57       1.0  0.43260999999999983  0.037269999999999984  0.49284  1.0000
  C   C58       1.0  0.19055000000000008  0.03418000000000002  0.7412499999999999  1.0000
  C   C59       1.0  0.49290000000000006  0.03727999999999997  0.43251  1.0000
  C   C60       1.0  0.7412  0.03423  0.19058  1.0000
  C   C61       1.0  0.03732  0.4329  0.03724999999999999  1.0000
  C   C62       1.0  0.034270000000000016  0.19242  0.03413  1.0000
  C   C63       1.0  0.03735999999999999  0.49271  0.03731  1.0000
  C   C64       1.0  0.03420999999999999  0.73942  0.03385  1.0000
  C   C65       1.0  0.03729000000000002  0.43295  0.49248999999999993  1.0000
  C   C66       1.0  0.03418  0.19208  0.7395  1.0000
  C   C67       1.0  0.03742000000000008  0.49280999999999997  0.43239  1.0000
  C   C68       1.0  0.03398  0.73982  0.1921  1.0000
  C   C69       1.0  0.49269  0.03727  0.03728  1.0000
  C   C70       1.0  0.74039  0.034370000000000005  0.03385  1.0000
  C   C71       1.0  0.43248  0.03733  0.03734  1.0000
  C   C72       1.0  0.19135  0.03429  0.03392  1.0000
  C   C73       1.0  0.9626599999999996  0.9627099999999998  0.56757  1.0000
  C   C74       1.0  0.9660499999999999  0.9657500000000001  0.80896  1.0000
  C   C75       1.0  0.9627399999999999  0.96277  0.50728  1.0000
  C   C76       1.0  0.96604  0.96574  0.25934  1.0000
  C   C77       1.0  0.56753  0.50721  0.9626499999999999  1.0000
  C   C78       1.0  0.8079099999999998  0.2601399999999999  0.9661700000000001  1.0000
  C   C79       1.0  0.50745  0.56708  0.9627599999999998  1.0000
  C   C80       1.0  0.26045000000000007  0.8079299999999999  0.96592  1.0000
  C   C81       1.0  0.5674699999999999  0.9626799999999999  0.9626699999999999  1.0000
  C   C82       1.0  0.8086399999999996  0.96568  0.9661700000000001  1.0000
  C   C83       1.0  0.50727  0.96274  0.9627199999999999  1.0000
  C   C84       1.0  0.25964999999999994  0.9656899999999999  0.9660699999999999  1.0000
  C   C85       1.0  0.9627099999999994  0.5670200000000001  0.50756  1.0000
  C   C86       1.0  0.96589  0.80789  0.2605  1.0000
  C   C87       1.0  0.96259  0.50715  0.56767  1.0000
  C   C88       1.0  0.9659999999999994  0.26019000000000003  0.80791  1.0000
  C   C89       1.0  0.9626999999999999  0.56708  0.96273  1.0000
  C   C90       1.0  0.9656900000000003  0.8075999999999999  0.96592  1.0000
  C   C91       1.0  0.9626599999999998  0.50728  0.9626699999999999  1.0000
  C   C92       1.0  0.9658099999999996  0.26059  0.9661199999999999  1.0000
  C   C93       1.0  0.5071  0.96273  0.56749  1.0000
  C   C94       1.0  0.25874000000000014  0.9658100000000001  0.80944  1.0000
  C   C95       1.0  0.5674  0.96273  0.50717  1.0000
  C   C96       1.0  0.8093799999999998  0.96579  0.25885  1.0000
  N   N1        1.0  0.020669999999999997  0.020940000000000066  0.8092499999999999  1.0000
  N   N2        1.0  0.02067  0.021100000000000008  0.14899999999999997  1.0000
  N   N3        1.0  0.15008999999999997  0.80772  0.020939999999999997  1.0000
  N   N4        1.0  0.8080099999999998  0.15035  0.02077  1.0000
  N   N5        1.0  0.14847000000000002  0.02087999999999999  0.80993  1.0000
  N   N6        1.0  0.8098699999999998  0.020949999999999996  0.14851  1.0000
  N   N7        1.0  0.020920000000000005  0.1507  0.020999999999999998  1.0000
  N   N8        1.0  0.02104999999999993  0.8073  0.020959999999999996  1.0000
  N   N9        1.0  0.020830000000000022  0.15033999999999997  0.80794  1.0000
  N   N10       1.0  0.020950000000000007  0.80777  0.15011  1.0000
  N   N11       1.0  0.80893  0.02109  0.02056  1.0000
  N   N12       1.0  0.14931  0.02112  0.02076  1.0000
  N   N13       1.0  0.97928  0.97891  0.85101  1.0000
  N   N14       1.0  0.9793299999999995  0.9790299999999998  0.19074  1.0000
  N   N15       1.0  0.8499399999999999  0.19226  0.9790599999999999  1.0000
  N   N16       1.0  0.19202999999999992  0.8496200000000002  0.9792299999999999  1.0000
  N   N17       1.0  0.8506900000000001  0.9788700000000001  0.97929  1.0000
  N   N18       1.0  0.19109999999999996  0.9789499999999998  0.97943  1.0000
  N   N19       1.0  0.9791399999999999  0.84967  0.19206999999999996  1.0000
  N   N20       1.0  0.9790200000000001  0.19224  0.84991  1.0000
  N   N21       1.0  0.9790599999999998  0.8492900000000001  0.9790799999999998  1.0000
  N   N22       1.0  0.9789499999999994  0.19266999999999995  0.97909  1.0000
  N   N23       1.0  0.19012999999999994  0.9790200000000002  0.8515699999999999  1.0000
  N   N24       1.0  0.85151  0.97906  0.19019  1.0000
  O   O1        1.0  0.06233000000000001  0.93751  0.0623  1.0000
  O   O2        1.0  0.93751  0.06256  0.93788  1.0000
  O   O3        1.0  0.9378699999999998  0.06288  0.061849999999999995  1.0000
  O   O4        1.0  0.06235999999999999  0.93725  0.9380599999999999  1.0000
  O   O5        1.0  0.9380799999999999  0.93715  0.06199  1.0000
  O   O6        1.0  0.062209999999999994  0.06252000000000003  0.93781  1.0000
