data_image0
_chemical_formula_structural       Mn12H24C72O48
_chemical_formula_sum              "Mn12 H24 C72 O48"
_cell_length_a       11.73568
_cell_length_b       17.16801
_cell_length_c       19.12649
_cell_angle_alpha    112.96821
_cell_angle_beta     89.90777999999999
_cell_angle_gamma    90.20616000000001

_symmetry_space_group_name_H-M    'P 1'
_symmetry_Int_Tables_number       1

loop_
  _symmetry_equiv_pos_as_xyz
  'x,y,z'

loop_
  _atom_site_type_symbol
  _atom_site_label
  _atom_site_symmetry_multiplicity
  _atom_site_fract_x
  _atom_site_fract_y
  _atom_site_fract_z
  _atom_site_occupancy
  Mn  Mn1       1.0  0.4144599999999999  0.7931399999999998  0.52546  1.0000
  Mn  Mn2       1.0  0.19513  0.65743  0.37645  1.0000
  Mn  Mn3       1.0  0.52321  0.75924  0.67551  1.0000
  Mn  Mn4       1.0  0.91574  0.20504  0.97402  1.0000
  Mn  Mn5       1.0  0.7003599999999999  0.3432  0.12404000000000001  1.0000
  Mn  Mn6       1.0  0.025639999999999993  0.2418  0.82543  1.0000
  Mn  Mn7       1.0  0.57979  0.20813999999999996  0.46639  1.0000
  Mn  Mn8       1.0  0.8140599999999999  0.34342  0.62866  1.0000
  Mn  Mn9       1.0  0.46589  0.24175  0.31413  1.0000
  Mn  Mn10      1.0  0.0829  0.7930300000000001  0.034760000000000006  1.0000
  Mn  Mn11      1.0  0.31064  0.6571799999999999  0.87197  1.0000
  Mn  Mn12      1.0  0.9636799999999998  0.7583399999999999  0.18583  1.0000
  H   H1        1.0  0.31686  0.6728199999999998  0.62148  1.0000
  H   H2        1.0  0.45384  0.44851999999999986  0.64103  1.0000
  H   H3        1.0  0.31868  0.43792000000000003  0.42801000000000006  1.0000
  H   H4        1.0  0.19780999999999996  0.008700000000000064  0.7199400000000001  1.0000
  H   H5        1.0  0.09610999999999999  0.9857699999999999  0.92786  1.0000
  H   H6        1.0  0.28641999999999995  0.7863999999999999  0.7596300000000001  1.0000
  H   H7        1.0  0.8189699999999999  0.32748  0.8778  1.0000
  H   H8        1.0  0.9585399999999998  0.55198  0.85855  1.0000
  H   H9        1.0  0.8205699999999999  0.56246  0.07108  1.0000
  H   H10       1.0  0.69761  0.9914299999999999  0.77975  1.0000
  H   H11       1.0  0.59666  0.014910000000000012  0.57216  1.0000
  H   H12       1.0  0.78762  0.21434  0.74082  1.0000
  H   H13       1.0  0.67315  0.31617999999999996  0.36464  1.0000
  H   H14       1.0  0.5373899999999999  0.54645  0.35779  1.0000
  H   H15       1.0  0.66849  0.54338  0.56678  1.0000
  H   H16       1.0  0.79069  0.98344  0.27504  1.0000
  H   H17       1.0  0.91165  0.01302  0.07351  1.0000
  H   H18       1.0  0.70939  0.2079  0.23631  1.0000
  H   H19       1.0  0.17043  0.68445  0.13696  1.0000
  H   H20       1.0  0.03489  0.45334999999999986  0.14361  1.0000
  H   H21       1.0  0.17037999999999998  0.45654999999999996  0.9354300000000001  1.0000
  H   H22       1.0  0.29278  0.016340000000000025  0.22577000000000005  1.0000
  H   H23       1.0  0.40912  0.9884299999999999  0.42879  1.0000
  H   H24       1.0  0.21227999999999994  0.7907799999999998  0.26359  1.0000
  C   C1        1.0  0.26535  0.60108  0.47136000000000006  1.0000
  C   C2        1.0  0.31143  0.5594699999999998  0.52022  1.0000
  C   C3        1.0  0.33705  0.60589  0.5967200000000001  1.0000
  C   C4        1.0  0.38853  0.56628  0.64019  1.0000
  C   C5        1.0  0.4178999999999999  0.6203899999999998  0.72087  1.0000
  C   C6        1.0  0.41292  0.47935999999999995  0.60767  1.0000
  C   C7        1.0  0.38831  0.43268  0.53048  1.0000
  C   C8        1.0  0.42607  0.34403  0.48771  1.0000
  C   C9        1.0  0.33659  0.4733  0.4877500000000001  1.0000
  C   C10       1.0  0.30244999999999994  0.8566899999999998  0.65553  1.0000
  C   C11       1.0  0.24710999999999997  0.8930799999999999  0.73098  1.0000
  C   C12       1.0  0.19622999999999996  0.9728199999999999  0.75584  1.0000
  C   C13       1.0  0.14439  0.006840000000000045  0.8273900000000001  1.0000
  C   C14       1.0  0.09362  0.09328999999999998  0.85348  1.0000
  C   C15       1.0  0.13908  0.9597  0.87314  1.0000
  C   C16       1.0  0.18977999999999998  0.87958  0.84809  1.0000
  C   C17       1.0  0.18682999999999997  0.8253199999999998  0.89341  1.0000
  C   C18       1.0  0.24548999999999996  0.84768  0.77775  1.0000
  C   C19       1.0  0.76643  0.39954  0.02811  1.0000
  C   C20       1.0  0.81319  0.44087  0.97892  1.0000
  C   C21       1.0  0.83949  0.3944599999999999  0.90251  1.0000
  C   C22       1.0  0.8921899999999999  0.43415  0.85922  1.0000
  C   C23       1.0  0.9229699999999997  0.37991  0.77877  1.0000
  C   C24       1.0  0.91683  0.52118  0.89183  1.0000
  C   C25       1.0  0.8911  0.56792  0.96888  1.0000
  C   C26       1.0  0.9271099999999999  0.65706  0.01212  1.0000
  C   C27       1.0  0.8386899999999999  0.5270599999999998  0.01139  1.0000
  C   C28       1.0  0.80249  0.14376999999999993  0.84461  1.0000
  C   C29       1.0  0.7475099999999999  0.1074  0.76909  1.0000
  C   C30       1.0  0.6963899999999998  0.027500000000000024  0.74402  1.0000
  C   C31       1.0  0.6446299999999999  0.99344  0.67243  1.0000
  C   C32       1.0  0.59353  0.9067599999999996  0.64652  1.0000
  C   C33       1.0  0.6395599999999999  0.04085999999999995  0.62692  1.0000
  C   C34       1.0  0.69067  0.12111  0.65216  1.0000
  C   C35       1.0  0.68862  0.17581999999999998  0.60725  1.0000
  C   C36       1.0  0.74635  0.15297999999999998  0.72251  1.0000
  C   C37       1.0  0.7192699999999997  0.37651000000000007  0.5148800000000001  1.0000
  C   C38       1.0  0.67444  0.42344  0.47054  1.0000
  C   C39       1.0  0.65092  0.38231  0.39286  1.0000
  C   C40       1.0  0.60198  0.42541  0.35164  1.0000
  C   C41       1.0  0.5753899999999998  0.375  0.26945  1.0000
  C   C42       1.0  0.57707  0.5117699999999997  0.38821  1.0000
  C   C43       1.0  0.6005199999999999  0.55354  0.46619000000000005  1.0000
  C   C44       1.0  0.5637399999999999  0.64289  0.50959  1.0000
  C   C45       1.0  0.65101  0.51009  0.50663  1.0000
  C   C46       1.0  0.68037  0.13918  0.33645  1.0000
  C   C47       1.0  0.74355  0.10001  0.26455  1.0000
  C   C48       1.0  0.7957099999999999  0.02082999999999999  0.24054999999999999  1.0000
  C   C49       1.0  0.85421  0.98874  0.1708  1.0000
  C   C50       1.0  0.90775  0.90377  0.14689  1.0000
  C   C51       1.0  0.86387  0.03726  0.12645  1.0000
  C   C52       1.0  0.81177  0.11691999999999998  0.15115  1.0000
  C   C53       1.0  0.8207199999999999  0.17349999999999996  0.10878  1.0000
  C   C54       1.0  0.75044  0.14682  0.21893  1.0000
  C   C55       1.0  0.21936  0.62364  0.98687  1.0000
  C   C56       1.0  0.17449  0.57673  0.03139  1.0000
  C   C57       1.0  0.14911  0.61802  0.10882000000000003  1.0000
  C   C58       1.0  0.09926999999999998  0.57471  0.14979  1.0000
  C   C59       1.0  0.07059  0.6252  0.23157  1.0000
  C   C60       1.0  0.07525999999999998  0.48807  0.1133  1.0000
  C   C61       1.0  0.10017  0.44628  0.03556000000000001  1.0000
  C   C62       1.0  0.06366  0.35681000000000007  0.9918600000000001  1.0000
  C   C63       1.0  0.15165999999999996  0.48988  0.99539  1.0000
  C   C64       1.0  0.18331999999999996  0.85984  0.1641  1.0000
  C   C65       1.0  0.24642999999999998  0.89921  0.23593  1.0000
  C   C66       1.0  0.29745  0.97907  0.26036000000000004  1.0000
  C   C67       1.0  0.3538299999999999  0.012149999999999998  0.33089  1.0000
  C   C68       1.0  0.4055299999999999  0.09799000000000002  0.35544000000000003  1.0000
  C   C69       1.0  0.3630999999999999  0.96356  0.37518000000000007  1.0000
  C   C70       1.0  0.31253  0.8830799999999999  0.34985  1.0000
  C   C71       1.0  0.32104  0.8268199999999999  0.3925  1.0000
  C   C72       1.0  0.25268  0.85236  0.28151  1.0000
  O   O1        1.0  0.25089  0.68189  0.4959799999999999  1.0000
  O   O2        1.0  0.2412  0.5549599999999998  0.40172  1.0000
  O   O3        1.0  0.46812  0.69142  0.73651  1.0000
  O   O4        1.0  0.38859  0.59341  0.7721800000000001  1.0000
  O   O5        1.0  0.48146  0.30439  0.52187  1.0000
  O   O6        1.0  0.40579999999999994  0.31308  0.41634  1.0000
  O   O7        1.0  0.37147  0.7925099999999998  0.64215  1.0000
  O   O8        1.0  0.28526  0.88384  0.6043500000000002  1.0000
  O   O9        1.0  0.09723999999999998  0.12931  0.80555  1.0000
  O   O10       1.0  0.05106  0.12501999999999994  0.9196899999999999  1.0000
  O   O11       1.0  0.12013999999999998  0.84269  0.9490500000000001  1.0000
  O   O12       1.0  0.25617  0.7615799999999998  0.86879  1.0000
  O   O13       1.0  0.74876  0.31915  0.0035500000000000006  1.0000
  O   O14       1.0  0.7454499999999997  0.44572999999999996  0.09824  1.0000
  O   O15       1.0  0.9714699999999997  0.30861  0.76379  1.0000
  O   O16       1.0  0.8967199999999999  0.40661999999999987  0.72682  1.0000
  O   O17       1.0  0.9838499999999998  0.69738  0.97887  1.0000
  O   O18       1.0  0.9035699999999999  0.68782  0.08317  1.0000
  O   O19       1.0  0.8734599999999999  0.20724000000000006  0.85804  1.0000
  O   O20       1.0  0.7832  0.11692000000000005  0.8958600000000002  1.0000
  O   O21       1.0  0.5991999999999998  0.8704399999999998  0.69421  1.0000
  O   O22       1.0  0.54877  0.8752499999999998  0.58102  1.0000
  O   O23       1.0  0.62152  0.15964999999999993  0.55209  1.0000
  O   O24       1.0  0.7594999999999998  0.23892999999999998  0.63191  1.0000
  O   O25       1.0  0.70387  0.29656  0.49610000000000004  1.0000
  O   O26       1.0  0.7768599999999998  0.4188699999999999  0.57596  1.0000
  O   O27       1.0  0.5205  0.30493  0.25074  1.0000
  O   O28       1.0  0.611  0.40282  0.22037  1.0000
  O   O29       1.0  0.5028  0.67912  0.47605  1.0000
  O   O30       1.0  0.59356  0.6761099999999998  0.57962  1.0000
  O   O31       1.0  0.61668  0.20318  0.34346  1.0000
  O   O32       1.0  0.68699  0.11755000000000006  0.3928500000000001  1.0000
  O   O33       1.0  0.8964499999999997  0.8670399999999999  0.19368  1.0000
  O   O34       1.0  0.9605  0.8745799999999998  0.08299  1.0000
  O   O35       1.0  0.88603  0.15246999999999994  0.05181  1.0000
  O   O36       1.0  0.7611599999999998  0.24199999999999997  0.13498  1.0000
  O   O37       1.0  0.20606  0.70387  0.006720000000000002  1.0000
  O   O38       1.0  0.27420999999999995  0.58118  0.9246599999999999  1.0000
  O   O39       1.0  0.01721  0.6954299999999999  0.24945000000000003  1.0000
  O   O40       1.0  0.10318999999999999  0.5975099999999998  0.28131  1.0000
  O   O41       1.0  0.0001899999999999997  0.32059999999999994  0.02441  1.0000
  O   O42       1.0  0.09601999999999998  0.32349  0.9223599999999998  1.0000
  O   O43       1.0  0.11531999999999998  0.7981599999999998  0.15824  1.0000
  O   O44       1.0  0.19386  0.87966  0.10676  1.0000
  O   O45       1.0  0.39417  0.13492  0.30887  1.0000
  O   O46       1.0  0.45705  0.12805  0.41985  1.0000
  O   O47       1.0  0.38863999999999993  0.8472199999999998  0.44825  1.0000
  O   O48       1.0  0.25883999999999996  0.7593  0.36793  1.0000
