data_image0
_chemical_formula_structural       Zn8H56C68N60O16
_chemical_formula_sum              "Zn8 H56 C68 N60 O16"
_cell_length_a       9.80245
_cell_length_b       17.44217
_cell_length_c       20.78226
_cell_angle_alpha    90.0
_cell_angle_beta     89.9973
_cell_angle_gamma    90.0

_space_group_name_H-M_alt    "P 1"
_space_group_IT_number       1

loop_
  _space_group_symop_operation_xyz
  'x, y, z'

loop_
  _atom_site_type_symbol
  _atom_site_label
  _atom_site_symmetry_multiplicity
  _atom_site_fract_x
  _atom_site_fract_y
  _atom_site_fract_z
  _atom_site_occupancy
  Zn  Zn1       1.0  0.68958  0.17522  0.18605000000000002  1.0000
  Zn  Zn2       1.0  0.31042  0.17522  0.81395  1.0000
  Zn  Zn3       1.0  0.18961  0.3248  0.31378  1.0000
  Zn  Zn4       1.0  0.81039  0.3248  0.68623  1.0000
  Zn  Zn5       1.0  0.31042  0.82478  0.81395  1.0000
  Zn  Zn6       1.0  0.68958  0.82478  0.18605000000000002  1.0000
  Zn  Zn7       1.0  0.81039  0.67521  0.68623  1.0000
  Zn  Zn8       1.0  0.18961  0.67521  0.31378  1.0000
  H   H1        1.0  0.91056  0.38959  0.24526000000000003  1.0000
  H   H2        1.0  0.75387  0.3423  0.2253  1.0000
  H   H3        1.0  0.8639500000000001  0.05155  0.11529  1.0000
  H   H4        1.0  0.83773  0.34144  0.83523  1.0000
  H   H5        1.0  0.59491  0.23278999999999997  0.98193  1.0000
  H   H6        1.0  0.61019  0.2983  0.8764600000000001  1.0000
  H   H7        1.0  0.04511  0.32014  0.9009200000000002  1.0000
  H   H8        1.0  0.08943  0.38959  0.75474  1.0000
  H   H9        1.0  0.24613000000000002  0.3423  0.7747  1.0000
  H   H10       1.0  0.13604  0.05155  0.88471  1.0000
  H   H11       1.0  0.16227  0.34144  0.16477000000000003  1.0000
  H   H12       1.0  0.40508  0.23278999999999997  0.01807  1.0000
  H   H13       1.0  0.3898  0.2983  0.12355  1.0000
  H   H14       1.0  0.95489  0.32014  0.09909  1.0000
  H   H15       1.0  0.41048999999999997  0.11039  0.25465  1.0000
  H   H16       1.0  0.25381  0.15774  0.27455  1.0000
  H   H17       1.0  0.3646  0.44844  0.38461000000000006  1.0000
  H   H18       1.0  0.33715  0.15875  0.6648100000000001  1.0000
  H   H19       1.0  0.09525  0.2676  0.51782  1.0000
  H   H20       1.0  0.10991  0.20193  0.6233  1.0000
  H   H21       1.0  0.54486  0.17953  0.59914  1.0000
  H   H22       1.0  0.58951  0.11039  0.74536  1.0000
  H   H23       1.0  0.74618  0.15774  0.7254600000000001  1.0000
  H   H24       1.0  0.6354  0.44844  0.6153900000000001  1.0000
  H   H25       1.0  0.66284  0.15875  0.33519  1.0000
  H   H26       1.0  0.90475  0.2676  0.48218  1.0000
  H   H27       1.0  0.89009  0.20193  0.3767  1.0000
  H   H28       1.0  0.45513999999999993  0.17953  0.40087  1.0000
  H   H29       1.0  0.08943  0.61041  0.75474  1.0000
  H   H30       1.0  0.24613000000000002  0.65771  0.7747  1.0000
  H   H31       1.0  0.13604  0.9484599999999999  0.88471  1.0000
  H   H32       1.0  0.16227  0.65856  0.16477000000000003  1.0000
  H   H33       1.0  0.40508  0.76721  0.01807  1.0000
  H   H34       1.0  0.3898  0.70171  0.12355  1.0000
  H   H35       1.0  0.95489  0.67986  0.09909  1.0000
  H   H36       1.0  0.91056  0.61041  0.24526000000000003  1.0000
  H   H37       1.0  0.75387  0.65771  0.2253  1.0000
  H   H38       1.0  0.8639500000000001  0.9484599999999999  0.11529  1.0000
  H   H39       1.0  0.83773  0.65856  0.83523  1.0000
  H   H40       1.0  0.59491  0.76721  0.98193  1.0000
  H   H41       1.0  0.61019  0.70171  0.8764600000000001  1.0000
  H   H42       1.0  0.04511  0.67986  0.9009200000000002  1.0000
  H   H43       1.0  0.58951  0.88961  0.74536  1.0000
  H   H44       1.0  0.74618  0.84226  0.7254600000000001  1.0000
  H   H45       1.0  0.6354  0.55156  0.6153900000000001  1.0000
  H   H46       1.0  0.66284  0.84126  0.33519  1.0000
  H   H47       1.0  0.90475  0.73241  0.48218  1.0000
  H   H48       1.0  0.89009  0.79808  0.3767  1.0000
  H   H49       1.0  0.45513999999999993  0.82047  0.40087  1.0000
  H   H50       1.0  0.41048999999999997  0.88961  0.25465  1.0000
  H   H51       1.0  0.25381  0.84226  0.27455  1.0000
  H   H52       1.0  0.3646  0.55156  0.38461000000000006  1.0000
  H   H53       1.0  0.33715  0.84126  0.6648100000000001  1.0000
  H   H54       1.0  0.09525  0.73241  0.51782  1.0000
  H   H55       1.0  0.10991  0.79808  0.6233  1.0000
  H   H56       1.0  0.54486  0.82047  0.59914  1.0000
  C   C1        1.0  0.80914  0.24074000000000004  0.0022  1.0000
  C   C2        1.0  0.7927  0.20004  0.06537000000000001  1.0000
  C   C3        1.0  0.91696  0.27275  0.24509000000000003  1.0000
  C   C4        1.0  0.83011  0.31207  0.88127  1.0000
  C   C5        1.0  0.93868  0.26521  0.9794200000000001  1.0000
  C   C6        1.0  0.6933  0.25226  0.96409  1.0000
  C   C7        1.0  0.70251  0.28819  0.9042200000000001  1.0000
  C   C8        1.0  0.9466400000000001  0.29981  0.9180800000000001  1.0000
  C   C9        1.0  0.19085  0.24074000000000004  0.9978000000000001  1.0000
  C   C10       1.0  0.20730000000000004  0.20004  0.9346400000000002  1.0000
  C   C11       1.0  0.08303  0.27275  0.75491  1.0000
  C   C12       1.0  0.16989  0.31207  0.11873  1.0000
  C   C13       1.0  0.061320000000000006  0.26521  0.02058  1.0000
  C   C14       1.0  0.3067  0.25226  0.03591  1.0000
  C   C15       1.0  0.29749  0.28819  0.09578000000000002  1.0000
  C   C16       1.0  0.05336  0.29981  0.08192  1.0000
  C   C17       1.0  0.30961  0.25927  0.49773  1.0000
  C   C18       1.0  0.29495  0.30008  0.43451000000000006  1.0000
  C   C19       1.0  0.417  0.22724  0.25477  1.0000
  C   C20       1.0  0.32975  0.18791  0.6186700000000002  1.0000
  C   C21       1.0  0.43873  0.23447999999999997  0.52059  1.0000
  C   C22       1.0  0.19348  0.24789999999999998  0.5356900000000001  1.0000
  C   C23       1.0  0.20235  0.21194  0.59558  1.0000
  C   C24       1.0  0.44644999999999996  0.19989  0.58192  1.0000
  C   C25       1.0  0.69039  0.25927  0.50228  1.0000
  C   C26       1.0  0.70505  0.30008  0.5655  1.0000
  C   C27       1.0  0.583  0.22724  0.7452300000000001  1.0000
  C   C28       1.0  0.67024  0.18791  0.38133  1.0000
  C   C29       1.0  0.56127  0.23447999999999997  0.47942  1.0000
  C   C30       1.0  0.80651  0.24789999999999998  0.46432000000000007  1.0000
  C   C31       1.0  0.79765  0.21194  0.4044200000000001  1.0000
  C   C32       1.0  0.55355  0.19989  0.41808  1.0000
  C   C33       1.0  0.19085  0.75927  0.9978000000000001  1.0000
  C   C34       1.0  0.20730000000000004  0.79997  0.9346400000000002  1.0000
  C   C35       1.0  0.08303  0.72725  0.75491  1.0000
  C   C36       1.0  0.16989  0.68793  0.11873  1.0000
  C   C37       1.0  0.061320000000000006  0.7348  0.02058  1.0000
  C   C38       1.0  0.3067  0.74774  0.03591  1.0000
  C   C39       1.0  0.29749  0.71181  0.09578000000000002  1.0000
  C   C40       1.0  0.05336  0.7002  0.08192  1.0000
  C   C41       1.0  0.80914  0.75927  0.0022  1.0000
  C   C42       1.0  0.7927  0.79997  0.06537000000000001  1.0000
  C   C43       1.0  0.91696  0.72725  0.24509000000000003  1.0000
  C   C44       1.0  0.83011  0.68793  0.88127  1.0000
  C   C45       1.0  0.93868  0.7348  0.9794200000000001  1.0000
  C   C46       1.0  0.6933  0.74774  0.96409  1.0000
  C   C47       1.0  0.70251  0.71181  0.9042200000000001  1.0000
  C   C48       1.0  0.9466400000000001  0.7002  0.9180800000000001  1.0000
  C   C49       1.0  0.69039  0.74073  0.50228  1.0000
  C   C50       1.0  0.70505  0.69993  0.5655  1.0000
  C   C51       1.0  0.583  0.77276  0.7452300000000001  1.0000
  C   C52       1.0  0.67024  0.8121  0.38133  1.0000
  C   C53       1.0  0.56127  0.76552  0.47942  1.0000
  C   C54       1.0  0.80651  0.7521  0.46432000000000007  1.0000
  C   C55       1.0  0.79765  0.78807  0.4044200000000001  1.0000
  C   C56       1.0  0.55355  0.80012  0.41808  1.0000
  C   C57       1.0  0.30961  0.74073  0.49773  1.0000
  C   C58       1.0  0.29495  0.69993  0.43451000000000006  1.0000
  C   C59       1.0  0.417  0.77276  0.25477  1.0000
  C   C60       1.0  0.32975  0.8121  0.6186700000000002  1.0000
  C   C61       1.0  0.43873  0.76552  0.52059  1.0000
  C   C62       1.0  0.19348  0.7521  0.5356900000000001  1.0000
  C   C63       1.0  0.20235  0.78807  0.59558  1.0000
  C   C64       1.0  0.44644999999999996  0.80012  0.58192  1.0000
  C   C65       1.0  0.72103  0.0  0.17128  1.0000
  C   C66       1.0  0.27897  0.0  0.82872  1.0000
  C   C67       1.0  0.22113999999999998  0.5  0.32872  1.0000
  C   C68       1.0  0.77886  0.5  0.6712800000000001  1.0000
  N   N1        1.0  0.65368  0.06311  0.19336  1.0000
  N   N2        1.0  0.95555  0.14933  0.24905000000000005  1.0000
  N   N3        1.0  0.8582499999999998  0.34065  0.23237  1.0000
  N   N4        1.0  0.54604  0.03734  0.22842  1.0000
  N   N5        1.0  0.06289  0.18438  0.27198  1.0000
  N   N6        1.0  0.04251  0.2618  0.27067  1.0000
  N   N7        1.0  0.8619700000000001  0.20292  0.23206  1.0000
  N   N8        1.0  0.34631  0.06311  0.8066400000000001  1.0000
  N   N9        1.0  0.04445  0.14933  0.75096  1.0000
  N   N10       1.0  0.14175  0.34065  0.76763  1.0000
  N   N11       1.0  0.4539599999999999  0.03734  0.7715900000000001  1.0000
  N   N12       1.0  0.93711  0.18438  0.72802  1.0000
  N   N13       1.0  0.95749  0.2618  0.72933  1.0000
  N   N14       1.0  0.13803  0.20292  0.7679400000000001  1.0000
  N   N15       1.0  0.15391  0.4369  0.30654000000000003  1.0000
  N   N16       1.0  0.45547  0.35066  0.25073  1.0000
  N   N17       1.0  0.3582  0.15936  0.2675  1.0000
  N   N18       1.0  0.04642  0.46267  0.27136  1.0000
  N   N19       1.0  0.56298  0.31561  0.22797  1.0000
  N   N20       1.0  0.54269  0.23819  0.22935000000000003  1.0000
  N   N21       1.0  0.36184  0.29708  0.26763  1.0000
  N   N22       1.0  0.8460899999999999  0.4369  0.6934600000000001  1.0000
  N   N23       1.0  0.54453  0.35066  0.74927  1.0000
  N   N24       1.0  0.6418  0.15936  0.73251  1.0000
  N   N25       1.0  0.95357  0.46267  0.72865  1.0000
  N   N26       1.0  0.43701  0.31561  0.77203  1.0000
  N   N27       1.0  0.45730999999999994  0.23819  0.7706500000000001  1.0000
  N   N28       1.0  0.63816  0.29708  0.73237  1.0000
  N   N29       1.0  0.34631  0.93689  0.8066400000000001  1.0000
  N   N30       1.0  0.04445  0.85067  0.75096  1.0000
  N   N31       1.0  0.14175  0.65935  0.76763  1.0000
  N   N32       1.0  0.4539599999999999  0.96266  0.7715900000000001  1.0000
  N   N33       1.0  0.93711  0.81562  0.72802  1.0000
  N   N34       1.0  0.95749  0.73821  0.72933  1.0000
  N   N35       1.0  0.13803  0.79709  0.7679400000000001  1.0000
  N   N36       1.0  0.65368  0.93689  0.19336  1.0000
  N   N37       1.0  0.95555  0.85067  0.24905000000000005  1.0000
  N   N38       1.0  0.8582499999999998  0.65935  0.23237  1.0000
  N   N39       1.0  0.54604  0.96266  0.22842  1.0000
  N   N40       1.0  0.06289  0.81562  0.27198  1.0000
  N   N41       1.0  0.04251  0.73821  0.27067  1.0000
  N   N42       1.0  0.8619700000000001  0.79709  0.23206  1.0000
  N   N43       1.0  0.8460899999999999  0.56311  0.6934600000000001  1.0000
  N   N44       1.0  0.54453  0.64935  0.74927  1.0000
  N   N45       1.0  0.6418  0.84064  0.73251  1.0000
  N   N46       1.0  0.95357  0.53733  0.72865  1.0000
  N   N47       1.0  0.43701  0.6844  0.77203  1.0000
  N   N48       1.0  0.45730999999999994  0.76181  0.7706500000000001  1.0000
  N   N49       1.0  0.63816  0.70293  0.73237  1.0000
  N   N50       1.0  0.15391  0.56311  0.30654000000000003  1.0000
  N   N51       1.0  0.45547  0.64935  0.25073  1.0000
  N   N52       1.0  0.3582  0.84064  0.2675  1.0000
  N   N53       1.0  0.04642  0.53733  0.27136  1.0000
  N   N54       1.0  0.56298  0.6844  0.22797  1.0000
  N   N55       1.0  0.54269  0.76181  0.22935000000000003  1.0000
  N   N56       1.0  0.36184  0.70293  0.26763  1.0000
  N   N57       1.0  0.8327199999999999  0.0  0.13469  1.0000
  N   N58       1.0  0.16728  0.0  0.8653200000000001  1.0000
  N   N59       1.0  0.3325  0.5  0.36554  1.0000
  N   N60       1.0  0.66749  0.5  0.63446  1.0000
  O   O1        1.0  0.69062  0.22316  0.10031000000000001  1.0000
  O   O2        1.0  0.8735800000000001  0.14765  0.08099000000000002  1.0000
  O   O3        1.0  0.30937  0.22316  0.8997  1.0000
  O   O4        1.0  0.12642  0.14765  0.91901  1.0000
  O   O5        1.0  0.19244  0.27752  0.39956  1.0000
  O   O6        1.0  0.37762  0.35165  0.41896000000000005  1.0000
  O   O7        1.0  0.80755  0.27752  0.60044  1.0000
  O   O8        1.0  0.62238  0.35165  0.58104  1.0000
  O   O9        1.0  0.30937  0.77684  0.8997  1.0000
  O   O10       1.0  0.12642  0.85235  0.91901  1.0000
  O   O11       1.0  0.69062  0.77684  0.10031000000000001  1.0000
  O   O12       1.0  0.8735800000000001  0.85235  0.08099000000000002  1.0000
  O   O13       1.0  0.80755  0.72248  0.60044  1.0000
  O   O14       1.0  0.62238  0.64835  0.58104  1.0000
  O   O15       1.0  0.19244  0.72248  0.39956  1.0000
  O   O16       1.0  0.37762  0.64835  0.41896000000000005  1.0000
