data_image0
_chemical_formula_structural       Zn4H48C84N8O20
_chemical_formula_sum              "Zn4 H48 C84 N8 O20"
_cell_length_a       11.44934
_cell_length_b       15.13688
_cell_length_c       16.87408
_cell_angle_alpha    90.05341000000001
_cell_angle_beta     97.16837
_cell_angle_gamma    90.31587

_symmetry_space_group_name_H-M    'P 1'
_symmetry_Int_Tables_number       1

loop_
  _symmetry_equiv_pos_as_xyz
  'x,y,z'

loop_
  _atom_site_type_symbol
  _atom_site_label
  _atom_site_symmetry_multiplicity
  _atom_site_fract_x
  _atom_site_fract_y
  _atom_site_fract_z
  _atom_site_occupancy
  Zn  Zn1       1.0  0.025479999999999985  0.36804  0.5345  1.0000
  Zn  Zn2       1.0  0.9738700000000001  0.8681300000000002  0.9653700000000001  1.0000
  Zn  Zn3       1.0  0.97452  0.6319600000000002  0.46551000000000003  1.0000
  Zn  Zn4       1.0  0.026130000000000004  0.13187000000000001  0.03463  1.0000
  H   H1        1.0  0.99285  0.70009  0.71772  1.0000
  H   H2        1.0  0.75627  0.9302000000000002  0.85455  1.0000
  H   H3        1.0  0.38017  0.16161000000000006  0.26724  1.0000
  H   H4        1.0  0.60197  0.23467  0.95094  1.0000
  H   H5        1.0  0.24361  0.4307900000000001  0.64508  1.0000
  H   H6        1.0  0.16628000000000007  0.98835  0.8892700000000002  1.0000
  H   H7        1.0  0.97695  0.06626  0.55437  1.0000
  H   H8        1.0  0.46121000000000006  0.06100000000000001  0.14722000000000002  1.0000
  H   H9        1.0  0.58154  0.7992800000000002  0.07845  1.0000
  H   H10       1.0  0.83468  0.4874300000000001  0.61138  1.0000
  H   H11       1.0  0.41846  0.20072000000000007  0.92155  1.0000
  H   H12       1.0  0.4006  0.73567  0.54888  1.0000
  H   H13       1.0  0.79491  0.7912000000000002  0.06714  1.0000
  H   H14       1.0  0.39803  0.7653300000000002  0.04906  1.0000
  H   H15       1.0  0.18038000000000004  0.7769900000000002  0.04513  1.0000
  H   H16       1.0  0.20509  0.2088  0.93287  1.0000
  H   H17       1.0  0.5994  0.26434  0.45112  1.0000
  H   H18       1.0  0.8174700000000001  0.2748300000000001  0.45625  1.0000
  H   H19       1.0  0.938  0.5801300000000003  0.26838  1.0000
  H   H20       1.0  0.53879  0.9390000000000002  0.85279  1.0000
  H   H21       1.0  0.81962  0.22301000000000007  0.95487  1.0000
  H   H22       1.0  0.005980000000000004  0.20102  0.78087  1.0000
  H   H23       1.0  0.031150000000000056  0.57069  0.9464100000000002  1.0000
  H   H24       1.0  0.7563899999999999  0.56921  0.35492  1.0000
  H   H25       1.0  0.24373000000000003  0.06981  0.14545  1.0000
  H   H26       1.0  0.023049999999999994  0.93374  0.44563  1.0000
  H   H27       1.0  0.8337099999999998  0.011650000000000004  0.11073  1.0000
  H   H28       1.0  0.61921  0.4891700000000001  0.6109100000000001  1.0000
  H   H29       1.0  0.53889  0.5605500000000002  0.35301  1.0000
  H   H30       1.0  0.16532  0.51257  0.38862  1.0000
  H   H31       1.0  0.94557  0.9190900000000002  0.77078  1.0000
  H   H32       1.0  0.007139999999999999  0.2999100000000001  0.28229  1.0000
  H   H33       1.0  0.41635  0.29976  0.42086  1.0000
  H   H34       1.0  0.9940200000000001  0.7989900000000002  0.21913  1.0000
  H   H35       1.0  0.38079  0.51083  0.38909  1.0000
  H   H36       1.0  0.46111  0.43946  0.64699  1.0000
  H   H37       1.0  0.20259  0.29191  0.4320800000000001  1.0000
  H   H38       1.0  0.37916000000000005  0.33283  0.76096  1.0000
  H   H39       1.0  0.9688500000000001  0.42931  0.05359  1.0000
  H   H40       1.0  0.62084  0.66719  0.23904  1.0000
  H   H41       1.0  0.18253  0.7251700000000002  0.54376  1.0000
  H   H42       1.0  0.61984  0.83838  0.73276  1.0000
  H   H43       1.0  0.7974100000000001  0.7080900000000001  0.56792  1.0000
  H   H44       1.0  0.58365  0.7002400000000002  0.57915  1.0000
  H   H45       1.0  0.06199999999999998  0.41987  0.73162  1.0000
  H   H46       1.0  0.05443  0.08091  0.22923  1.0000
  H   H47       1.0  0.3816899999999999  0.9891500000000002  0.88881  1.0000
  H   H48       1.0  0.61831  0.010860000000000003  0.11119  1.0000
  C   C1        1.0  0.22032  0.56066  0.42384  1.0000
  C   C2        1.0  0.01209  0.6446000000000002  0.83621  1.0000
  C   C3        1.0  0.9682100000000001  0.43247000000000013  0.11799000000000003  1.0000
  C   C4        1.0  0.28725  0.09814  0.09759  1.0000
  C   C5        1.0  0.71331  0.59759  0.40285  1.0000
  C   C6        1.0  0.31367  0.3309400000000001  0.80086  1.0000
  C   C7        1.0  0.38566000000000006  0.17108000000000007  0.97322  1.0000
  C   C8        1.0  0.3839600000000001  0.32937  0.4726  1.0000
  C   C9        1.0  0.9488099999999999  0.51697  0.23915  1.0000
  C   C10       1.0  0.042379999999999994  0.013580000000000004  0.34133  1.0000
  C   C11       1.0  0.22942  0.82258  0.01171  1.0000
  C   C12       1.0  0.98791  0.35541  0.16379  1.0000
  C   C13       1.0  0.58946  0.12403  0.03174  1.0000
  C   C14       1.0  0.4079  0.40747000000000005  0.59708  1.0000
  C   C15       1.0  0.58859  0.37561  0.53165  1.0000
  C   C16       1.0  0.9729  0.0604  0.78492  1.0000
  C   C17       1.0  0.3416900000000001  0.5608800000000003  0.42358  1.0000
  C   C18       1.0  0.96953  0.43947000000000014  0.28445  1.0000
  C   C19       1.0  0.35275  0.6840200000000002  0.51337  1.0000
  C   C20       1.0  0.77297  0.64568  0.16706  1.0000
  C   C21       1.0  0.28669  0.4024200000000001  0.59715  1.0000
  C   C22       1.0  0.26323  0.3261300000000001  0.47713  1.0000
  C   C23       1.0  0.41054  0.87597  0.96826  1.0000
  C   C24       1.0  0.64725  0.3159800000000001  0.48664  1.0000
  C   C25       1.0  0.008420000000000014  0.23035000000000005  0.62386  1.0000
  C   C26       1.0  0.5391800000000001  0.8706800000000002  0.9662600000000001  1.0000
  C   C27       1.0  0.9912699999999998  0.14311  0.66355  1.0000
  C   C28       1.0  0.65813  0.060480000000000006  0.07638  1.0000
  C   C29       1.0  0.051419999999999993  0.4890500000000001  0.84303  1.0000
  C   C30       1.0  0.6886000000000001  0.8344000000000003  0.69554  1.0000
  C   C31       1.0  0.051200000000000016  0.4830300000000001  0.76085  1.0000
  C   C32       1.0  0.41141  0.6244  0.46835  1.0000
  C   C33       1.0  0.9923999999999998  0.73116  0.87589  1.0000
  C   C34       1.0  0.9732399999999999  0.4433200000000001  0.37382  1.0000
  C   C35       1.0  0.68634  0.66907  0.19914  1.0000
  C   C36       1.0  0.04436  0.01819  0.25934  1.0000
  C   C37       1.0  0.5921000000000001  0.5925300000000002  0.40292  1.0000
  C   C38       1.0  0.26497999999999994  0.17442  0.9778099999999998  1.0000
  C   C39       1.0  0.7127500000000001  0.9018700000000002  0.90242  1.0000
  C   C40       1.0  0.61604  0.6706400000000002  0.5274  1.0000
  C   C41       1.0  0.02567  0.94295  0.12601  1.0000
  C   C42       1.0  0.86648  0.8460300000000002  0.61657  1.0000
  C   C43       1.0  0.73502  0.82558  0.0222  1.0000
  C   C44       1.0  0.4598  0.3709000000000001  0.53336  1.0000
  C   C45       1.0  0.61434  0.8289200000000002  0.02678  1.0000
  C   C46       1.0  0.46082  0.12932  0.03374  1.0000
  C   C47       1.0  0.02676  0.55668  0.62618  1.0000
  C   C48       1.0  0.7796800000000002  0.43935000000000013  0.57616  1.0000
  C   C49       1.0  0.99158  0.76966  0.37614  1.0000
  C   C50       1.0  0.007600000000000004  0.26885  0.12412  1.0000
  C   C51       1.0  0.97433  0.05705000000000001  0.87399  1.0000
  C   C52       1.0  0.76904  0.3210300000000001  0.48915  1.0000
  C   C53       1.0  0.65831  0.43913  0.57642  1.0000
  C   C54       1.0  0.95762  0.98642  0.65867  1.0000
  C   C55       1.0  0.22702  0.35433  0.83295  1.0000
  C   C56       1.0  0.23095  0.67898  0.51085  1.0000
  C   C57       1.0  0.008739999999999998  0.85689  0.33645  1.0000
  C   C58       1.0  0.9753  0.06474  0.61872  1.0000
  C   C59       1.0  0.22059000000000006  0.9402600000000002  0.9243400000000003  1.0000
  C   C60       1.0  0.31141  0.1656  0.30447  1.0000
  C   C61       1.0  0.94858  0.51096  0.15697000000000005  1.0000
  C   C62       1.0  0.7794099999999999  0.05974  0.07566  1.0000
  C   C63       1.0  0.98942  0.3594  0.24678  1.0000
  C   C64       1.0  0.95564  0.9818200000000002  0.74066  1.0000
  C   C65       1.0  0.649  0.18304  0.98632  1.0000
  C   C66       1.0  0.13351  0.15397  0.38344  1.0000
  C   C67       1.0  0.22161  0.14535000000000006  0.33461  1.0000
  C   C68       1.0  0.010579999999999987  0.6406  0.75322  1.0000
  C   C69       1.0  0.03046999999999999  0.56053  0.71555  1.0000
  C   C70       1.0  0.024699999999999996  0.9352700000000003  0.38128  1.0000
  C   C71       1.0  0.85684  0.6507400000000002  0.1148  1.0000
  C   C72       1.0  0.14316000000000004  0.3492600000000001  0.8852000000000002  1.0000
  C   C73       1.0  0.031790000000000034  0.56753  0.8820200000000002  1.0000
  C   C74       1.0  0.351  0.8169600000000002  0.013680000000000003  1.0000
  C   C75       1.0  0.008629999999999995  0.85971  0.25353  1.0000
  C   C76       1.0  0.77057  0.17742  0.9882900000000001  1.0000
  C   C77       1.0  0.59162  0.90704  0.90256  1.0000
  C   C78       1.0  0.73677  0.6738700000000002  0.5228700000000002  1.0000
  C   C79       1.0  0.027100000000000003  0.9396000000000002  0.21508  1.0000
  C   C80       1.0  0.40838  0.09297000000000002  0.09744  1.0000
  C   C81       1.0  0.34187  0.9395200000000002  0.92362  1.0000
  C   C82       1.0  0.9913700000000002  0.1403  0.74647  1.0000
  C   C83       1.0  0.5402  0.6291  0.46664  1.0000
  C   C84       1.0  0.7784  0.8546500000000001  0.6654000000000001  1.0000
  N   N1        1.0  0.21492000000000003  0.36288  0.53811  1.0000
  N   N2        1.0  0.16436999999999996  0.88277  0.9672199999999999  1.0000
  N   N3        1.0  0.16492  0.61867  0.46637  1.0000
  N   N4        1.0  0.78508  0.63713  0.46189  1.0000
  N   N5        1.0  0.8350800000000002  0.38133  0.53363  1.0000
  N   N6        1.0  0.78398  0.8623900000000002  0.96138  1.0000
  N   N7        1.0  0.21602  0.13761000000000007  0.03862  1.0000
  N   N8        1.0  0.83563  0.11724000000000002  0.03278  1.0000
  O   O1        1.0  0.02884  0.2006  0.16647  1.0000
  O   O2        1.0  0.0006399999999999991  0.26797  0.04744  1.0000
  O   O3        1.0  0.9887200000000002  0.6252800000000002  0.58742  1.0000
  O   O4        1.0  0.0004799999999999989  0.23176000000000005  0.54718  1.0000
  O   O5        1.0  0.028760000000000008  0.29885  0.66646  1.0000
  O   O6        1.0  0.99936  0.73203  0.95256  1.0000
  O   O7        1.0  0.06177  0.4867800000000001  0.59527  1.0000
  O   O8        1.0  0.05251000000000001  0.09320000000000003  0.38902  1.0000
  O   O9        1.0  0.06501  0.4109800000000001  0.89241  1.0000
  O   O10       1.0  0.061500000000000006  0.01289  0.09521  1.0000
  O   O11       1.0  0.93499  0.58902  0.10759  1.0000
  O   O12       1.0  0.97124  0.7011500000000003  0.33355  1.0000
  O   O13       1.0  0.94748  0.9068  0.61098  1.0000
  O   O14       1.0  0.9385  0.98712  0.90479  1.0000
  O   O15       1.0  0.011719999999999996  0.12617000000000006  0.91278  1.0000
  O   O16       1.0  0.9882799999999999  0.8738300000000002  0.08722  1.0000
  O   O17       1.0  0.011280000000000002  0.3747200000000001  0.41258  1.0000
  O   O18       1.0  0.9382400000000001  0.51323  0.40473  1.0000
  O   O19       1.0  0.97116  0.7994000000000002  0.83354  1.0000
  O   O20       1.0  0.9995199999999999  0.76825  0.45282  1.0000
