data_image0
_chemical_formula_structural       Co3H60C88O24
_chemical_formula_sum              "Co3 H60 C88 O24"
_cell_length_a       15.43402
_cell_length_b       15.63072
_cell_length_c       17.91319
_cell_angle_alpha    107.39002000000002
_cell_angle_beta     104.64468
_cell_angle_gamma    106.72641

_space_group_name_H-M_alt    "P 1"
_space_group_IT_number       1

loop_
  _space_group_symop_operation_xyz
  'x, y, z'

loop_
  _atom_site_type_symbol
  _atom_site_label
  _atom_site_symmetry_multiplicity
  _atom_site_fract_x
  _atom_site_fract_y
  _atom_site_fract_z
  _atom_site_occupancy
  Co  Co1       1.0  0.019279999999999988  0.17841  0.9154  1.0000
  Co  Co2       1.0  0.9790600000000005  0.8201800000000002  0.08533000000000003  1.0000
  Co  Co3       1.0  0.002610000000000001  0.0020500000000000006  0.0013300000000000005  1.0000
  H   H1        1.0  0.8495200000000006  0.8540900000000003  0.8349200000000002  1.0000
  H   H2        1.0  0.7836900000000004  0.67848  0.74149  1.0000
  H   H3        1.0  0.9257000000000002  0.7513100000000004  0.5774200000000003  1.0000
  H   H4        1.0  0.9911900000000001  0.9283600000000002  0.67229  1.0000
  H   H5        1.0  0.8800200000000001  0.5811600000000002  0.7230800000000002  1.0000
  H   H6        1.0  0.6848000000000002  0.67449  0.4346700000000001  1.0000
  H   H7        1.0  0.6978500000000003  0.6771300000000002  0.5376100000000003  1.0000
  H   H8        1.0  0.61523  0.56787  0.4453900000000001  1.0000
  H   H9        1.0  0.80226  0.18594000000000005  0.4635  1.0000
  H   H10       1.0  0.8891100000000002  0.2932700000000001  0.553  1.0000
  H   H11       1.0  0.8724100000000004  0.2894700000000002  0.4487700000000001  1.0000
  H   H12       1.0  0.7735200000000002  0.18396  0.70351  1.0000
  H   H13       1.0  0.7192100000000002  0.26578000000000007  0.61087  1.0000
  H   H14       1.0  0.9933900000000004  0.5134000000000002  0.7494600000000002  1.0000
  H   H15       1.0  0.04858000000000001  0.4286500000000001  0.83751  1.0000
  H   H16       1.0  0.9458300000000002  0.17179000000000008  0.20301000000000005  1.0000
  H   H17       1.0  0.8674900000000004  0.24893000000000012  0.2927700000000001  1.0000
  H   H18       1.0  0.78169  0.37814  0.12072000000000002  1.0000
  H   H19       1.0  0.8673900000000002  0.30667  0.0346  1.0000
  H   H20       1.0  0.020070000000000122  0.5183800000000002  0.4395000000000001  1.0000
  H   H21       1.0  0.9283800000000003  0.5646800000000001  0.45168000000000014  1.0000
  H   H22       1.0  0.93654  0.51987  0.35023  1.0000
  H   H23       1.0  0.6316000000000003  0.2906100000000001  0.14235000000000006  1.0000
  H   H24       1.0  0.4807600000000002  0.3599  0.4459100000000001  1.0000
  H   H25       1.0  0.5957  0.34898  0.47610000000000013  1.0000
  H   H26       1.0  0.49665000000000015  0.25720000000000015  0.3821600000000001  1.0000
  H   H27       1.0  0.50684  0.40006  0.13632  1.0000
  H   H28       1.0  0.3319700000000001  0.3264300000000001  0.03959  1.0000
  H   H29       1.0  0.27317000000000013  0.10786000000000003  0.14003000000000004  1.0000
  H   H30       1.0  0.44535000000000013  0.18434000000000003  0.23991000000000007  1.0000
  H   H31       1.0  0.15229  0.14740000000000003  0.16588000000000006  1.0000
  H   H32       1.0  0.21582  0.32255  0.25785000000000013  1.0000
  H   H33       1.0  0.07357000000000004  0.24973000000000004  0.4219100000000001  1.0000
  H   H34       1.0  0.009150000000000052  0.07320000000000007  0.3278700000000001  1.0000
  H   H35       1.0  0.12098000000000003  0.42128  0.27703  1.0000
  H   H36       1.0  0.3141200000000001  0.3263  0.56461  1.0000
  H   H37       1.0  0.30135000000000023  0.3242800000000001  0.4618500000000001  1.0000
  H   H38       1.0  0.38418000000000013  0.4330200000000001  0.55436  1.0000
  H   H39       1.0  0.1985300000000002  0.8161200000000003  0.5380700000000003  1.0000
  H   H40       1.0  0.11177000000000016  0.7087800000000003  0.4485000000000001  1.0000
  H   H41       1.0  0.13001000000000013  0.71168  0.5525900000000002  1.0000
  H   H42       1.0  0.21754000000000012  0.8155200000000002  0.29094  1.0000
  H   H43       1.0  0.27683  0.73892  0.3859400000000001  1.0000
  H   H44       1.0  0.006900000000000021  0.48537000000000013  0.25131  1.0000
  H   H45       1.0  0.9466200000000004  0.56426  0.16042000000000006  1.0000
  H   H46       1.0  0.0517300000000001  0.8246700000000002  0.7992900000000002  1.0000
  H   H47       1.0  0.1327400000000001  0.7523400000000001  0.7100900000000002  1.0000
  H   H48       1.0  0.22136000000000014  0.6215200000000001  0.8797300000000002  1.0000
  H   H49       1.0  0.13367000000000015  0.6885800000000002  0.9656700000000003  1.0000
  H   H50       1.0  0.9826800000000001  0.4846600000000001  0.56238  1.0000
  H   H51       1.0  0.07372000000000013  0.43738000000000016  0.5498000000000002  1.0000
  H   H52       1.0  0.06657000000000014  0.4834300000000003  0.6515500000000002  1.0000
  H   H53       1.0  0.3705600000000001  0.70945  0.8587100000000002  1.0000
  H   H54       1.0  0.5218600000000003  0.6413500000000001  0.5551400000000002  1.0000
  H   H55       1.0  0.40681000000000017  0.6520400000000002  0.5248800000000002  1.0000
  H   H56       1.0  0.50584  0.74406  0.61863  1.0000
  H   H57       1.0  0.4963400000000003  0.5999400000000004  0.8652500000000002  1.0000
  H   H58       1.0  0.67079  0.67225  0.9613100000000002  1.0000
  H   H59       1.0  0.7298300000000002  0.8912000000000002  0.86078  1.0000
  H   H60       1.0  0.55795  0.8152600000000001  0.7616000000000003  1.0000
  C   C1        1.0  0.96918  0.0036000000000000225  0.82081  1.0000
  C   C2        1.0  0.9258800000000001  0.9012700000000001  0.76035  1.0000
  C   C3        1.0  0.8655900000000002  0.8308300000000002  0.7785300000000003  1.0000
  C   C4        1.0  0.8295200000000003  0.73283  0.72635  1.0000
  C   C5        1.0  0.8529600000000002  0.7028400000000004  0.6545700000000002  1.0000
  C   C6        1.0  0.9089400000000001  0.7741600000000002  0.6337300000000002  1.0000
  C   C7        1.0  0.94541  0.87272  0.68628  1.0000
  C   C8        1.0  0.8250200000000005  0.5975500000000001  0.6080100000000003  1.0000
  C   C9        1.0  0.8455  0.54354  0.65486  1.0000
  C   C10       1.0  0.8252599999999999  0.44397  0.61797  1.0000
  C   C11       1.0  0.7833700000000003  0.3971500000000002  0.5292500000000002  1.0000
  C   C12       1.0  0.76172  0.44921  0.48010000000000014  1.0000
  C   C13       1.0  0.78159  0.54885  0.5197  1.0000
  C   C14       1.0  0.6849100000000001  0.6311500000000002  0.4727500000000001  1.0000
  C   C15       1.0  0.8361400000000001  0.2657100000000001  0.4887100000000001  1.0000
  C   C16       1.0  0.9485100000000001  0.24939000000000017  0.8254600000000002  1.0000
  C   C17       1.0  0.91471  0.30067  0.77464  1.0000
  C   C18       1.0  0.8209400000000002  0.2555600000000001  0.7118500000000002  1.0000
  C   C19       1.0  0.7908200000000002  0.30155000000000015  0.6608800000000002  1.0000
  C   C20       1.0  0.85315  0.3943200000000001  0.6727800000000003  1.0000
  C   C21       1.0  0.9451900000000003  0.44095000000000023  0.7386700000000003  1.0000
  C   C22       1.0  0.9763500000000005  0.39412000000000025  0.7883200000000002  1.0000
  C   C23       1.0  0.95474  0.1835100000000001  0.0583  1.0000
  C   C24       1.0  0.9113800000000002  0.23420000000000005  0.11321000000000003  1.0000
  C   C25       1.0  0.9117200000000003  0.21882000000000007  0.18652000000000005  1.0000
  C   C26       1.0  0.8672700000000001  0.2615800000000001  0.23630000000000007  1.0000
  C   C27       1.0  0.8173399999999998  0.3173400000000001  0.21217  1.0000
  C   C28       1.0  0.8189800000000004  0.33415000000000006  0.13950000000000007  1.0000
  C   C29       1.0  0.8665900000000002  0.29418  0.09103  1.0000
  C   C30       1.0  0.7555000000000002  0.3465600000000001  0.25713  1.0000
  C   C31       1.0  0.78656  0.3865300000000001  0.34559  1.0000
  C   C32       1.0  0.9453  0.5101100000000001  0.4095200000000001  1.0000
  C   C33       1.0  0.7223800000000001  0.40118000000000004  0.3866100000000001  1.0000
  C   C34       1.0  0.6241100000000003  0.37388000000000005  0.3378400000000001  1.0000
  C   C35       1.0  0.5916500000000002  0.33577  0.24936000000000005  1.0000
  C   C36       1.0  0.6582200000000001  0.32437  0.21077  1.0000
  C   C37       1.0  0.53241  0.3355200000000001  0.42265  1.0000
  C   C38       1.0  0.4874200000000002  0.2981200000000001  0.19548000000000004  1.0000
  C   C39       1.0  0.4551100000000001  0.3370900000000001  0.13793  1.0000
  C   C40       1.0  0.3578300000000001  0.2959300000000001  0.08361  1.0000
  C   C41       1.0  0.29193  0.21340000000000003  0.08464000000000003  1.0000
  C   C42       1.0  0.3242800000000001  0.17324000000000006  0.14116  1.0000
  C   C43       1.0  0.42056000000000016  0.21627000000000002  0.19682000000000005  1.0000
  C   C44       1.0  0.18756000000000006  0.16888000000000006  0.028270000000000007  1.0000
  C   C45       1.0  0.03288000000000011  0.9970100000000002  0.17926000000000006  1.0000
  C   C46       1.0  0.07530000000000008  0.09950000000000003  0.23997000000000002  1.0000
  C   C47       1.0  0.13542000000000004  0.17027000000000006  0.22189  1.0000
  C   C48       1.0  0.17046000000000006  0.26842  0.2735100000000001  1.0000
  C   C49       1.0  0.14692000000000005  0.2988400000000001  0.34521  1.0000
  C   C50       1.0  0.09101000000000005  0.22722000000000006  0.36592000000000013  1.0000
  C   C51       1.0  0.05511000000000004  0.12848000000000007  0.3136700000000001  1.0000
  C   C52       1.0  0.1752900000000001  0.40456000000000003  0.3919300000000001  1.0000
  C   C53       1.0  0.15542000000000006  0.45897  0.3452500000000001  1.0000
  C   C54       1.0  0.17584  0.5588  0.3821  1.0000
  C   C55       1.0  0.2186500000000001  0.6057300000000001  0.4709800000000001  1.0000
  C   C56       1.0  0.24041000000000004  0.55356  0.5202800000000002  1.0000
  C   C57       1.0  0.2189400000000001  0.45337  0.4803800000000001  1.0000
  C   C58       1.0  0.3143200000000002  0.3699500000000002  0.5268100000000002  1.0000
  C   C59       1.0  0.16540000000000002  0.7363300000000002  0.51251  1.0000
  C   C60       1.0  0.038290000000000005  0.74167  0.16806000000000004  1.0000
  C   C61       1.0  0.07784000000000009  0.6954400000000002  0.22088000000000005  1.0000
  C   C62       1.0  0.17184000000000008  0.7437200000000002  0.28361  1.0000
  C   C63       1.0  0.20493000000000008  0.7004700000000003  0.3362900000000001  1.0000
  C   C64       1.0  0.14567  0.60727  0.3264700000000001  1.0000
  C   C65       1.0  0.05323  0.55798  0.2608000000000001  1.0000
  C   C66       1.0  0.019070000000000104  0.6017300000000001  0.20940000000000006  1.0000
  C   C67       1.0  0.043650000000000085  0.8112900000000001  0.9440600000000002  1.0000
  C   C68       1.0  0.08753000000000008  0.7615  0.8883300000000002  1.0000
  C   C69       1.0  0.0870100000000002  0.7783000000000004  0.8155200000000002  1.0000
  C   C70       1.0  0.13309000000000018  0.73809  0.7658800000000002  1.0000
  C   C71       1.0  0.18446  0.68299  0.78909  1.0000
  C   C72       1.0  0.1830100000000001  0.66486  0.8612800000000003  1.0000
  C   C73       1.0  0.1340900000000001  0.7023900000000001  0.9097300000000003  1.0000
  C   C74       1.0  0.2470200000000001  0.6553000000000002  0.74395  1.0000
  C   C75       1.0  0.21633000000000016  0.6159000000000002  0.6553800000000002  1.0000
  C   C76       1.0  0.05739000000000012  0.49252000000000024  0.5919700000000002  1.0000
  C   C77       1.0  0.2805100000000001  0.6014200000000003  0.6141700000000002  1.0000
  C   C78       1.0  0.3786000000000001  0.6276700000000001  0.6631900000000002  1.0000
  C   C79       1.0  0.41088000000000025  0.66473  0.7517900000000002  1.0000
  C   C80       1.0  0.34416000000000035  0.6764900000000005  0.7902600000000002  1.0000
  C   C81       1.0  0.47018000000000026  0.6656800000000004  0.5783400000000002  1.0000
  C   C82       1.0  0.5153500000000001  0.7015700000000001  0.8058000000000002  1.0000
  C   C83       1.0  0.54808  0.6627300000000003  0.8634000000000002  1.0000
  C   C84       1.0  0.6456800000000001  0.7033700000000002  0.9175600000000003  1.0000
  C   C85       1.0  0.7119900000000005  0.7858800000000004  0.9166400000000002  1.0000
  C   C86       1.0  0.6791000000000003  0.82586  0.8599700000000002  1.0000
  C   C87       1.0  0.5826900000000004  0.7832000000000003  0.8045800000000002  1.0000
  C   C88       1.0  0.8170600000000003  0.8335800000000002  0.9728300000000002  1.0000
  O   O1        1.0  0.9707800000000002  0.11186000000000003  0.06818000000000003  1.0000
  O   O2        1.0  0.9733600000000002  0.21735000000000004  0.004  1.0000
  O   O3        1.0  0.9557500000000003  0.026450000000000147  0.8922400000000003  1.0000
  O   O4        1.0  0.017130000000000065  0.07338000000000007  0.8063000000000002  1.0000
  O   O5        1.0  0.8904500000000003  0.17285000000000017  0.8253600000000002  1.0000
  O   O6        1.0  0.040540000000000076  0.28266000000000013  0.87155  1.0000
  O   O7        1.0  0.15575000000000014  0.21578000000000017  0.9881700000000002  1.0000
  O   O8        1.0  0.13610000000000005  0.08690000000000003  0.02568000000000001  1.0000
  O   O9        1.0  0.7629800000000002  0.59813  0.46925  1.0000
  O   O10       1.0  0.7570800000000002  0.29827000000000004  0.48770000000000013  1.0000
  O   O11       1.0  0.5585700000000002  0.3911500000000001  0.37456  1.0000
  O   O12       1.0  0.8830400000000003  0.4125400000000001  0.3940700000000001  1.0000
  O   O13       1.0  0.02917000000000001  0.88401  0.93575  1.0000
  O   O14       1.0  0.025970000000000066  0.77506  0.9975700000000002  1.0000
  O   O15       1.0  0.048050000000000107  0.9745400000000002  0.10893000000000003  1.0000
  O   O16       1.0  0.9838300000000003  0.9268200000000002  0.19322  1.0000
  O   O17       1.0  0.09271000000000006  0.8184100000000002  0.16282  1.0000
  O   O18       1.0  0.9468700000000003  0.7089300000000002  0.12426000000000002  1.0000
  O   O19       1.0  0.8504300000000005  0.7884700000000002  0.015400000000000004  1.0000
  O   O20       1.0  0.8662300000000003  0.91434  0.9737500000000002  1.0000
  O   O21       1.0  0.23650000000000013  0.4034100000000001  0.5304500000000002  1.0000
  O   O22       1.0  0.24500000000000016  0.7047200000000002  0.5123200000000002  1.0000
  O   O23       1.0  0.44419000000000025  0.6102200000000001  0.6266000000000003  1.0000
  O   O24       1.0  0.11997000000000013  0.5896300000000002  0.6065200000000002  1.0000
