data_image0
_chemical_formula_structural       Zn12H16C80O64
_chemical_formula_sum              "Zn12 H16 C80 O64"
_cell_length_a       16.48466
_cell_length_b       16.48261
_cell_length_c       17.90509
_cell_angle_alpha    109.62268
_cell_angle_beta     109.64871999999998
_cell_angle_gamma    105.71076

_symmetry_space_group_name_H-M    'P 1'
_symmetry_Int_Tables_number       1

loop_
  _symmetry_equiv_pos_as_xyz
  'x,y,z'

loop_
  _atom_site_type_symbol
  _atom_site_label
  _atom_site_symmetry_multiplicity
  _atom_site_fract_x
  _atom_site_fract_y
  _atom_site_fract_z
  _atom_site_occupancy
  Zn  Zn1       1.0  0.38975  0.04253  0.09903  1.0000
  Zn  Zn2       1.0  0.7931299999999999  0.16273  0.12836  1.0000
  Zn  Zn3       1.0  0.78593  0.28366000000000025  0.99594  1.0000
  Zn  Zn4       1.0  0.9432099999999998  0.29032  0.90083  1.0000
  Zn  Zn5       1.0  0.035490000000000056  0.66606  0.8715600000000001  1.0000
  Zn  Zn6       1.0  0.28902  0.78975  0.00358  1.0000
  Zn  Zn7       1.0  0.54032  0.69318  0.40082  1.0000
  Zn  Zn8       1.0  0.9161100000000001  0.7854700000000003  0.37155  1.0000
  Zn  Zn9       1.0  0.03982  0.039020000000000006  0.50359  1.0000
  Zn  Zn10      1.0  0.29258999999999996  0.13971000000000006  0.59901  1.0000
  Zn  Zn11      1.0  0.41272999999999993  0.5431199999999999  0.6283699999999999  1.0000
  Zn  Zn12      1.0  0.5341399999999997  0.53601  0.49593  1.0000
  H   H1        1.0  0.31944  0.03430000000000001  0.84971  1.0000
  H   H2        1.0  0.49621  0.3498400000000001  0.24082  1.0000
  H   H3        1.0  0.79657  0.48213  0.22625  1.0000
  H   H4        1.0  0.018769999999999978  0.74682  0.60694  1.0000
  H   H5        1.0  0.18437999999999993  0.4699500000000001  0.15074999999999997  1.0000
  H   H6        1.0  0.10939000000000002  0.25495000000000023  0.75973  1.0000
  H   H7        1.0  0.25554000000000004  0.5699300000000003  0.77389  1.0000
  H   H8        1.0  0.13864  0.41134  0.39269  1.0000
  H   H9        1.0  0.71994  0.9344300000000002  0.65077  1.0000
  H   H10       1.0  0.5050999999999998  0.85957  0.2599  1.0000
  H   H11       1.0  0.8199899999999998  0.00554000000000002  0.27399  1.0000
  H   H12       1.0  0.6613099999999998  0.88854  0.89264  1.0000
  H   H13       1.0  0.28432  0.06942000000000005  0.34971  1.0000
  H   H14       1.0  0.59996  0.24622  0.7409  1.0000
  H   H15       1.0  0.7321599999999998  0.54661  0.72624  1.0000
  H   H16       1.0  0.99694  0.76864  0.10692  1.0000
  C   C1        1.0  0.24461  0.05288999999999998  0.70088  1.0000
  C   C2        1.0  0.2712199999999999  0.90351  0.90322  1.0000
  C   C3        1.0  0.25427999999999984  0.9711499999999998  0.79646  1.0000
  C   C4        1.0  0.2198700000000001  0.89454  0.81175  1.0000
  C   C5        1.0  0.1342999999999999  0.81237  0.74293  1.0000
  C   C6        1.0  0.09417999999999997  0.73013  0.75872  1.0000
  C   C7        1.0  0.5828399999999998  0.31898  0.17848  1.0000
  C   C8        1.0  0.51207  0.21627000000000005  0.12079  1.0000
  C   C9        1.0  0.71007  0.5132500000000002  0.28873  1.0000
  C   C10       1.0  0.5615899999999998  0.37949  0.23747  1.0000
  C   C11       1.0  0.7310199999999999  0.4526900000000001  0.22937  1.0000
  C   C12       1.0  0.66821  0.35634999999999994  0.17367  1.0000
  C   C13       1.0  0.7833400000000001  0.6151500000000002  0.34696  1.0000
  C   C14       1.0  0.08478999999999998  0.80936  0.65989  1.0000
  C   C15       1.0  0.20491999999999996  0.9683099999999999  0.71378  1.0000
  C   C16       1.0  0.11738999999999991  0.88776  0.64627  1.0000
  C   C17       1.0  0.69985  0.29673  0.11632  1.0000
  C   C18       1.0  0.62547  0.4754800000000001  0.29465  1.0000
  C   C19       1.0  0.5989599999999999  0.53417  0.35842  1.0000
  C   C20       1.0  0.05838000000000005  0.8894800000000002  0.56258  1.0000
  C   C21       1.0  0.35125  0.5428800000000003  0.29906  1.0000
  C   C22       1.0  8.00000000000088e-05  0.36804  0.09651  1.0000
  C   C23       1.0  0.17417000000000005  0.4580200000000001  0.20383  1.0000
  C   C24       1.0  0.08214999999999997  0.4084  0.18823  1.0000
  C   C25       1.0  0.06843000000000002  0.39141  0.25674  1.0000
  C   C26       1.0  0.97029  0.33550000000000013  0.24062  1.0000
  C   C27       1.0  0.14022000000000004  0.4040300000000001  0.82171  1.0000
  C   C28       1.0  0.09476999999999997  0.39119  0.87904  1.0000
  C   C29       1.0  0.2245899999999999  0.42095000000000005  0.7118399999999999  1.0000
  C   C30       1.0  0.14221999999999999  0.32383  0.76328  1.0000
  C   C31       1.0  0.22309999999999994  0.50122  0.77076  1.0000
  C   C32       1.0  0.18230999999999997  0.49409999999999993  0.82628  1.0000
  C   C33       1.0  0.26863  0.43578  0.65391  1.0000
  C   C34       1.0  0.14828999999999998  0.4249299999999999  0.3400099999999999  1.0000
  C   C35       1.0  0.2538  0.491  0.28653  1.0000
  C   C36       1.0  0.24048000000000003  0.47138000000000013  0.35408  1.0000
  C   C37       1.0  0.18087000000000003  0.58356  0.8837000000000002  1.0000
  C   C38       1.0  0.18091999999999997  0.33060999999999996  0.7061499999999999  1.0000
  C   C39       1.0  0.17493  0.24031000000000005  0.64173  1.0000
  C   C40       1.0  0.32579999999999987  0.49568  0.43782  1.0000
  C   C41       1.0  0.79288  0.10125000000000002  0.79907  1.0000
  C   C42       1.0  0.61806  0.7501  0.59651  1.0000
  C   C43       1.0  0.708  0.92418  0.70383  1.0000
  C   C44       1.0  0.65838  0.83215  0.68822  1.0000
  C   C45       1.0  0.6413899999999998  0.81838  0.75672  1.0000
  C   C46       1.0  0.58551  0.72025  0.74063  1.0000
  C   C47       1.0  0.65413  0.8903  0.32181  1.0000
  C   C48       1.0  0.64126  0.84478  0.3791  1.0000
  C   C49       1.0  0.6710100000000001  0.9746600000000002  0.21191  1.0000
  C   C50       1.0  0.57395  0.8923400000000001  0.26339  1.0000
  C   C51       1.0  0.7512699999999998  0.97314  0.27085  1.0000
  C   C52       1.0  0.74418  0.93233  0.32636  1.0000
  C   C53       1.0  0.68591  0.01872  0.15401  1.0000
  C   C54       1.0  0.6749100000000001  0.8982  0.83997  1.0000
  C   C55       1.0  0.74099  0.0037800000000000086  0.78653  1.0000
  C   C56       1.0  0.72136  0.9904000000000004  0.85406  1.0000
  C   C57       1.0  0.8336399999999999  0.93085  0.38372  1.0000
  C   C58       1.0  0.58066  0.93096  0.20616999999999996  1.0000
  C   C59       1.0  0.49031  0.92489  0.14172  1.0000
  C   C60       1.0  0.74561  0.07566000000000002  0.93775  1.0000
  C   C61       1.0  0.30291000000000007  0.99472  0.20094000000000004  1.0000
  C   C62       1.0  0.15356  0.02119  0.4032  1.0000
  C   C63       1.0  0.2212  0.004240000000000001  0.29649  1.0000
  C   C64       1.0  0.1445900000000001  0.9697700000000005  0.31176  1.0000
  C   C65       1.0  0.06244999999999999  0.88418  0.24292  1.0000
  C   C66       1.0  0.98016  0.84407  0.25861  1.0000
  C   C67       1.0  0.56903  0.3328700000000001  0.67854  1.0000
  C   C68       1.0  0.46629999999999994  0.26211000000000007  0.6208300000000001  1.0000
  C   C69       1.0  0.76328  0.4601  0.7888  1.0000
  C   C70       1.0  0.62955  0.3115899999999999  0.7375099999999999  1.0000
  C   C71       1.0  0.7027499999999999  0.48108  0.72943  1.0000
  C   C72       1.0  0.60641  0.41824999999999996  0.6737199999999999  1.0000
  C   C73       1.0  0.86518  0.53333  0.84701  1.0000
  C   C74       1.0  0.05945000000000007  0.8346800000000002  0.15991  1.0000
  C   C75       1.0  0.21836000000000005  0.95492  0.21383  1.0000
  C   C76       1.0  0.13784000000000002  0.86737  0.14632  1.0000
  C   C77       1.0  0.54679  0.44986000000000004  0.61631  1.0000
  C   C78       1.0  0.72552  0.3754900000000001  0.79473  1.0000
  C   C79       1.0  0.78423  0.34896  0.85852  1.0000
  C   C80       1.0  0.13963  0.80844  0.0627  1.0000
  O   O1        1.0  0.70701  0.22724000000000003  0.12907  1.0000
  O   O2        1.0  0.72188  0.32583  0.06551  1.0000
  O   O3        1.0  0.8075899999999999  0.6527700000000002  0.42884  1.0000
  O   O4        1.0  0.8197  0.6529300000000001  0.30657000000000006  1.0000
  O   O5        1.0  0.05658000000000003  0.74412  0.81164  1.0000
  O   O6        1.0  0.09963000000000001  0.65522  0.71924  1.0000
  O   O7        1.0  0.26285  0.82612  0.90729  1.0000
  O   O8        1.0  0.3177300000000001  0.98802  0.96765  1.0000
  O   O9        1.0  0.26383999999999996  0.038929999999999965  0.63479  1.0000
  O   O10       1.0  0.4694599999999999  0.17980000000000004  0.15831  1.0000
  O   O11       1.0  0.60272  0.6122900000000002  0.35952  1.0000
  O   O12       1.0  0.57138  0.4962600000000002  0.40197  1.0000
  O   O13       1.0  0.010450000000000006  0.81108  0.49026  1.0000
  O   O14       1.0  0.06103999999999994  0.9709799999999998  0.5741  1.0000
  O   O15       1.0  0.49654  0.17549  0.04146  1.0000
  O   O16       1.0  0.25623  0.13088000000000005  0.75617  1.0000
  O   O17       1.0  0.09898000000000007  0.5791200000000002  0.87087  1.0000
  O   O18       1.0  0.26134  0.6558  0.93465  1.0000
  O   O19       1.0  0.22501000000000002  0.37796  0.57209  1.0000
  O   O20       1.0  0.3467400000000001  0.5127000000000003  0.69453  1.0000
  O   O21       1.0  0.93122  0.24485000000000007  0.18833  1.0000
  O   O22       1.0  0.93535  0.3813600000000001  0.27998  1.0000
  O   O23       1.0  0.9182  0.3540200000000001  0.09182  1.0000
  O   O24       1.0  0.020670000000000036  0.3513900000000001  0.03246  1.0000
  O   O25       1.0  0.40369999999999984  0.6282700000000001  0.36524  1.0000
  O   O26       1.0  0.021410000000000026  0.3105700000000001  0.84186  1.0000
  O   O27       1.0  0.25197  0.24234000000000006  0.64115  1.0000
  O   O28       1.0  0.09272999999999999  0.17008  0.59698  1.0000
  O   O29       1.0  0.3201199999999999  0.52055  0.5103  1.0000
  O   O30       1.0  0.39536000000000004  0.48575000000000007  0.4262  1.0000
  O   O31       1.0  0.1327  0.45602  0.95784  1.0000
  O   O32       1.0  0.3735200000000002  0.4990900000000002  0.2435  1.0000
  O   O33       1.0  0.82918  0.84895  0.37088  1.0000
  O   O34       1.0  0.90589  0.011309999999999994  0.43462  1.0000
  O   O35       1.0  0.62804  0.97513  0.0722  1.0000
  O   O36       1.0  0.76292  0.09675000000000003  0.19461  1.0000
  O   O37       1.0  0.49484  0.6812  0.68834  1.0000
  O   O38       1.0  0.6313399999999998  0.6853  0.78002  1.0000
  O   O39       1.0  0.60402  0.66821  0.59184  1.0000
  O   O40       1.0  0.60148  0.7707  0.53246  1.0000
  O   O41       1.0  0.8782699999999999  0.15367999999999998  0.8652599999999999  1.0000
  O   O42       1.0  0.5606  0.77147  0.34189  1.0000
  O   O43       1.0  0.49232  0.001980000000000005  0.14121  1.0000
  O   O44       1.0  0.42011  0.84268  0.09691  1.0000
  O   O45       1.0  0.77055  0.07008  0.01029  1.0000
  O   O46       1.0  0.73552  0.14512  0.92596  1.0000
  O   O47       1.0  0.70612  0.8825700000000002  0.45788  1.0000
  O   O48       1.0  0.7491  0.12355000000000003  0.7435000000000002  1.0000
  O   O49       1.0  0.47734000000000004  0.45707000000000014  0.62908  1.0000
  O   O50       1.0  0.57587  0.47179  0.56545  1.0000
  O   O51       1.0  0.90282  0.55755  0.92889  1.0000
  O   O52       1.0  0.9029099999999999  0.56966  0.80658  1.0000
  O   O53       1.0  0.99405  0.80645  0.31154  1.0000
  O   O54       1.0  0.9053099999999997  0.8495600000000002  0.21899  1.0000
  O   O55       1.0  0.07618000000000003  0.012779999999999984  0.40728  1.0000
  O   O56       1.0  0.23811  0.06782000000000003  0.46760000000000007  1.0000
  O   O57       1.0  0.28904  0.014200000000000015  0.135  1.0000
  O   O58       1.0  0.42981  0.21953999999999999  0.65835  1.0000
  O   O59       1.0  0.8623000000000001  0.35270000000000007  0.85951  1.0000
  O   O60       1.0  0.74641  0.3214  0.90211  1.0000
  O   O61       1.0  0.06123000000000007  0.7603  0.99036  1.0000
  O   O62       1.0  0.22127  0.81145  0.07434  1.0000
  O   O63       1.0  0.42558  0.24657000000000012  0.54148  1.0000
  O   O64       1.0  0.38092000000000004  0.006249999999999983  0.25619  1.0000
