data_image0
_chemical_formula_structural       Ni4H48C96N24O48
_chemical_formula_sum              "Ni4 H48 C96 N24 O48"
_cell_length_a       11.14907
_cell_length_b       11.14854
_cell_length_c       30.27097
_cell_angle_alpha    89.91989
_cell_angle_beta     90.07942
_cell_angle_gamma    125.00057999999999

_space_group_name_H-M_alt    "P 1"
_space_group_IT_number       1

loop_
  _space_group_symop_operation_xyz
  'x, y, z'

loop_
  _atom_site_type_symbol
  _atom_site_label
  _atom_site_symmetry_multiplicity
  _atom_site_fract_x
  _atom_site_fract_y
  _atom_site_fract_z
  _atom_site_occupancy
  Ni  Ni1       1.0  0.23158000000000006  0.68983  0.41891  1.0000
  Ni  Ni2       1.0  0.18626000000000015  0.7218300000000002  0.91879  1.0000
  Ni  Ni3       1.0  0.6898499999999999  0.23159  0.58109  1.0000
  Ni  Ni4       1.0  0.7218099999999997  0.18626  0.08121000000000003  1.0000
  H   H1        1.0  0.13937999999999995  0.42795  0.2810800000000001  1.0000
  H   H2        1.0  0.31317  0.88734  0.2803700000000001  1.0000
  H   H3        1.0  0.42968999999999996  0.74039  0.05122000000000001  1.0000
  H   H4        1.0  0.9850600000000002  0.6109900000000003  0.058790000000000016  1.0000
  H   H5        1.0  0.31894  0.50164  0.38505  1.0000
  H   H6        1.0  0.5423099999999998  0.50024  0.3845400000000001  1.0000
  H   H7        1.0  0.7508999999999998  0.8817800000000001  0.4688500000000001  1.0000
  H   H8        1.0  0.51863  0.86743  0.4656900000000001  1.0000
  H   H9        1.0  0.9516200000000001  0.9307700000000001  0.4125  1.0000
  H   H10       1.0  0.16869999999999993  0.9204899999999999  0.40607  1.0000
  H   H11       1.0  0.91746  0.4738200000000001  0.42931  1.0000
  H   H12       1.0  0.68886  0.46354000000000006  0.43647000000000014  1.0000
  H   H13       1.0  0.9253099999999997  0.63618  0.78059  1.0000
  H   H14       1.0  0.38466999999999996  0.81036  0.7812  1.0000
  H   H15       1.0  0.24392999999999995  0.93188  0.5515000000000002  1.0000
  H   H16       1.0  0.11741  0.48822000000000004  0.5587200000000002  1.0000
  H   H17       1.0  0.9977799999999998  0.8099099999999999  0.8853300000000001  1.0000
  H   H18       1.0  0.9975799999999999  0.03376  0.8846100000000002  1.0000
  H   H19       1.0  0.37906  0.24109  0.9691200000000002  1.0000
  H   H20       1.0  0.36329999999999996  0.00803  0.9662100000000002  1.0000
  H   H21       1.0  0.42738  0.44209000000000004  0.91247  1.0000
  H   H22       1.0  0.41742999999999997  0.6594600000000002  0.9057700000000002  1.0000
  H   H23       1.0  0.9703799999999999  0.40784  0.92838  1.0000
  H   H24       1.0  0.9602099999999999  0.17939  0.9359400000000002  1.0000
  H   H25       1.0  0.42797999999999997  0.13943  0.7189  1.0000
  H   H26       1.0  0.88729  0.31305  0.7196400000000002  1.0000
  H   H27       1.0  0.74036  0.42963  0.94877  1.0000
  H   H28       1.0  0.6110299999999999  0.9849800000000001  0.94122  1.0000
  H   H29       1.0  0.50164  0.31892  0.6149600000000002  1.0000
  H   H30       1.0  0.5002799999999998  0.54234  0.6154700000000002  1.0000
  H   H31       1.0  0.88181  0.75092  0.53116  1.0000
  H   H32       1.0  0.8674199999999997  0.51862  0.5343100000000001  1.0000
  H   H33       1.0  0.9307799999999998  0.95163  0.5875100000000002  1.0000
  H   H34       1.0  0.9205099999999998  0.16872999999999996  0.5939400000000002  1.0000
  H   H35       1.0  0.4738800000000001  0.9175100000000002  0.57071  1.0000
  H   H36       1.0  0.4635599999999999  0.68889  0.56355  1.0000
  H   H37       1.0  0.6362  0.92535  0.21941000000000005  1.0000
  H   H38       1.0  0.8104299999999998  0.38478000000000007  0.21882000000000001  1.0000
  H   H39       1.0  0.93189  0.24388  0.44849  1.0000
  H   H40       1.0  0.48826  0.11738000000000001  0.44128  1.0000
  H   H41       1.0  0.8098899999999998  0.99777  0.11468000000000003  1.0000
  H   H42       1.0  0.03372000000000004  0.9975500000000002  0.11540000000000003  1.0000
  H   H43       1.0  0.24106  0.37905  0.030890000000000008  1.0000
  H   H44       1.0  0.008010000000000001  0.3633  0.03379  1.0000
  H   H45       1.0  0.4420599999999999  0.4274  0.08754000000000003  1.0000
  H   H46       1.0  0.65942  0.41745  0.09423000000000001  1.0000
  H   H47       1.0  0.4078200000000001  0.9703700000000001  0.07162000000000003  1.0000
  H   H48       1.0  0.1794000000000001  0.9602100000000001  0.06406  1.0000
  C   C1        1.0  0.22609000000000007  0.66375  0.3362500000000001  1.0000
  C   C2        1.0  0.2254  0.65775  0.28686  1.0000
  C   C3        1.0  0.17735  0.52931  0.2636800000000001  1.0000
  C   C4        1.0  0.17848  0.53044  0.21760000000000004  1.0000
  C   C5        1.0  0.22070999999999985  0.65553  0.19251000000000004  1.0000
  C   C6        1.0  0.26821  0.78223  0.21735000000000004  1.0000
  C   C7        1.0  0.27392  0.78544  0.26319  1.0000
  C   C8        1.0  0.21433999999999997  0.65625  0.14315  1.0000
  C   C9        1.0  0.33347  0.69108  0.1161  1.0000
  C   C10       1.0  0.33255  0.7060500000000002  0.0704  1.0000
  C   C11       1.0  0.20729  0.67851  0.04951000000000001  1.0000
  C   C12       1.0  0.0841700000000001  0.6354800000000002  0.07474  1.0000
  C   C13       1.0  0.09042999999999998  0.62952  0.12047000000000002  1.0000
  C   C14       1.0  0.20357999999999998  0.6991000000000002  0.0008500000000000002  1.0000
  C   C15       1.0  0.41718999999999995  0.58349  0.4030900000000001  1.0000
  C   C16       1.0  0.5413999999999999  0.58287  0.40334  1.0000
  C   C17       1.0  0.6662599999999997  0.69242  0.4264100000000001  1.0000
  C   C18       1.0  0.65843  0.79658  0.44951  1.0000
  C   C19       1.0  0.52985  0.78949  0.4480000000000001  1.0000
  C   C20       1.0  0.8009499999999999  0.6966  0.42501  1.0000
  C   C21       1.0  0.9387899999999999  0.82699  0.4169700000000001  1.0000
  C   C22       1.0  0.06045999999999997  0.82223  0.4130100000000001  1.0000
  C   C23       1.0  0.9194  0.57178  0.42571  1.0000
  C   C24       1.0  0.7928999999999998  0.56717  0.42981000000000014  1.0000
  C   C25       1.0  0.16083  0.7203500000000002  0.83624  1.0000
  C   C26       1.0  0.15546000000000004  0.72248  0.7869400000000002  1.0000
  C   C27       1.0  0.027460000000000012  0.67502  0.7635700000000002  1.0000
  C   C28       1.0  0.03005999999999994  0.67748  0.7175100000000002  1.0000
  C   C29       1.0  0.1556299999999999  0.72016  0.6926000000000002  1.0000
  C   C30       1.0  0.28187999999999996  0.76719  0.71772  1.0000
  C   C31       1.0  0.2834999999999999  0.77128  0.76356  1.0000
  C   C32       1.0  0.15744  0.71435  0.64321  1.0000
  C   C33       1.0  0.1924099999999999  0.83363  0.61611  1.0000
  C   C34       1.0  0.20978999999999995  0.83429  0.5704800000000002  1.0000
  C   C35       1.0  0.18491000000000007  0.71029  0.5495700000000002  1.0000
  C   C36       1.0  0.14088000000000006  0.5866600000000001  0.57479  1.0000
  C   C37       1.0  0.13234  0.59124  0.6205100000000002  1.0000
  C   C38       1.0  0.20930000000000004  0.7080400000000001  0.50102  1.0000
  C   C39       1.0  0.07982000000000002  0.90793  0.9034000000000002  1.0000
  C   C40       1.0  0.07981999999999999  0.03243000000000001  0.9035500000000002  1.0000
  C   C41       1.0  0.18958  0.15712  0.9265900000000002  1.0000
  C   C42       1.0  0.29345999999999994  0.14886  0.94982  1.0000
  C   C43       1.0  0.28578  0.01993  0.9484300000000002  1.0000
  C   C44       1.0  0.19354000000000002  0.2916500000000001  0.92496  1.0000
  C   C45       1.0  0.32381  0.42948  0.9169000000000003  1.0000
  C   C46       1.0  0.31914  0.55117  0.9127500000000002  1.0000
  C   C47       1.0  0.06845  0.40979  0.9251300000000002  1.0000
  C   C48       1.0  0.06396000000000004  0.28339000000000003  0.9294400000000003  1.0000
  C   C49       1.0  0.66373  0.22605  0.6637400000000002  1.0000
  C   C50       1.0  0.65773  0.22538  0.7131400000000002  1.0000
  C   C51       1.0  0.5292999999999998  0.17736  0.7363100000000002  1.0000
  C   C52       1.0  0.5304199999999999  0.17844  0.78239  1.0000
  C   C53       1.0  0.6554799999999998  0.22059000000000004  0.8074800000000002  1.0000
  C   C54       1.0  0.78218  0.26808  0.7826400000000002  1.0000
  C   C55       1.0  0.7853899999999998  0.2738  0.73681  1.0000
  C   C56       1.0  0.6561799999999999  0.21421  0.8568500000000002  1.0000
  C   C57       1.0  0.69102  0.33335  0.8839  1.0000
  C   C58       1.0  0.70603  0.33247  0.9296000000000002  1.0000
  C   C59       1.0  0.67852  0.20721  0.9504900000000002  1.0000
  C   C60       1.0  0.63547  0.08408  0.9252600000000002  1.0000
  C   C61       1.0  0.6294699999999999  0.09031  0.8795300000000003  1.0000
  C   C62       1.0  0.6991199999999999  0.20349  0.9991500000000001  1.0000
  C   C63       1.0  0.58349  0.41718  0.59691  1.0000
  C   C64       1.0  0.58288  0.54141  0.5966600000000002  1.0000
  C   C65       1.0  0.6924399999999999  0.66628  0.5736000000000002  1.0000
  C   C66       1.0  0.79659  0.65845  0.5504900000000003  1.0000
  C   C67       1.0  0.78948  0.52985  0.5520000000000003  1.0000
  C   C68       1.0  0.6966199999999999  0.80097  0.5750000000000002  1.0000
  C   C69       1.0  0.8270099999999999  0.93881  0.5830300000000003  1.0000
  C   C70       1.0  0.8222599999999998  0.06049  0.5870000000000002  1.0000
  C   C71       1.0  0.57182  0.91944  0.57431  1.0000
  C   C72       1.0  0.5672  0.79292  0.5702  1.0000
  C   C73       1.0  0.72034  0.16096  0.16377000000000005  1.0000
  C   C74       1.0  0.7225099999999998  0.15554  0.21306000000000005  1.0000
  C   C75       1.0  0.67505  0.02752  0.23642000000000005  1.0000
  C   C76       1.0  0.6775099999999998  0.030090000000000002  0.28249  1.0000
  C   C77       1.0  0.7201699999999998  0.15566  0.3074  1.0000
  C   C78       1.0  0.7672199999999999  0.28193  0.2822900000000001  1.0000
  C   C79       1.0  0.7713399999999999  0.28358  0.23645000000000005  1.0000
  C   C80       1.0  0.71437  0.15745  0.3567900000000001  1.0000
  C   C81       1.0  0.8336299999999998  0.19238  0.3838800000000001  1.0000
  C   C82       1.0  0.8342999999999999  0.20976  0.42951000000000006  1.0000
  C   C83       1.0  0.7103199999999998  0.18488  0.4504300000000001  1.0000
  C   C84       1.0  0.5866999999999999  0.14088  0.4252100000000001  1.0000
  C   C85       1.0  0.59128  0.13238  0.3794900000000001  1.0000
  C   C86       1.0  0.7080699999999999  0.20927  0.4989800000000001  1.0000
  C   C87       1.0  0.9079199999999998  0.07982  0.09661  1.0000
  C   C88       1.0  0.03239999999999999  0.0798  0.09646  1.0000
  C   C89       1.0  0.15708999999999998  0.18957000000000002  0.07342  1.0000
  C   C90       1.0  0.14883  0.29345  0.050190000000000005  1.0000
  C   C91       1.0  0.019909999999999997  0.28577  0.051580000000000015  1.0000
  C   C92       1.0  0.29162  0.19354  0.07505  1.0000
  C   C93       1.0  0.42944999999999994  0.32381  0.08311000000000003  1.0000
  C   C94       1.0  0.55114  0.31916000000000005  0.08725000000000002  1.0000
  C   C95       1.0  0.4097799999999999  0.06845  0.07487000000000003  1.0000
  C   C96       1.0  0.28339  0.06397000000000001  0.07056  1.0000
  N   N1        1.0  0.31094  0.91951  0.19561000000000006  1.0000
  N   N2        1.0  0.13074999999999995  0.39262  0.19514000000000006  1.0000
  N   N3        1.0  0.4647899999999999  0.7086700000000001  0.13543  1.0000
  N   N4        1.0  0.96414  0.60679  0.14477000000000007  1.0000
  N   N5        1.0  0.4114599999999999  0.68603  0.42468  1.0000
  N   N6        1.0  0.05101000000000001  0.6965  0.4171400000000001  1.0000
  N   N7        1.0  0.42060999999999993  0.8122  0.69647  1.0000
  N   N8        1.0  0.8927899999999999  0.63131  0.69496  1.0000
  N   N9        1.0  0.20865999999999996  0.9643200000000001  0.63525  1.0000
  N   N10       1.0  0.11023999999999995  0.46468  0.6447000000000003  1.0000
  N   N11       1.0  0.1821700000000001  0.9018300000000001  0.92507  1.0000
  N   N12       1.0  0.19325999999999996  0.5414400000000001  0.9167000000000002  1.0000
  N   N13       1.0  0.9195099999999998  0.3109  0.8043800000000002  1.0000
  N   N14       1.0  0.3926  0.13071  0.8048500000000002  1.0000
  N   N15       1.0  0.70854  0.46464  0.86457  1.0000
  N   N16       1.0  0.6067299999999999  0.96399  0.8552300000000003  1.0000
  N   N17       1.0  0.686  0.41144  0.5753100000000002  1.0000
  N   N18       1.0  0.69654  0.05105  0.58287  1.0000
  N   N19       1.0  0.81221  0.42066000000000003  0.30353000000000013  1.0000
  N   N20       1.0  0.6313499999999999  0.89281  0.30503  1.0000
  N   N21       1.0  0.96432  0.20862  0.36475  1.0000
  N   N22       1.0  0.46473999999999993  0.11029  0.3553100000000001  1.0000
  N   N23       1.0  0.90181  0.18216  0.07494  1.0000
  N   N24       1.0  0.5414199999999999  0.19327  0.08329  1.0000
  O   O1        1.0  0.30377999999999994  0.78952  0.3547400000000001  1.0000
  O   O2        1.0  0.15063999999999994  0.54639  0.3591  1.0000
  O   O3        1.0  0.32403  0.77487  0.97969  1.0000
  O   O4        1.0  0.0789  0.64096  0.9823400000000002  1.0000
  O   O5        1.0  0.24839999999999995  0.91023  0.16038  1.0000
  O   O6        1.0  0.40414  0.03555  0.21424000000000007  1.0000
  O   O7        1.0  0.05686999999999997  0.27751  0.21660000000000004  1.0000
  O   O8        1.0  0.16796999999999998  0.39995  0.1559  1.0000
  O   O9        1.0  0.47881  0.71672  0.17614000000000005  1.0000
  O   O10       1.0  0.55229  0.71119  0.10939  1.0000
  O   O11       1.0  0.96076  0.59234  0.18538000000000004  1.0000
  O   O12       1.0  0.87052  0.60795  0.1229  1.0000
  O   O13       1.0  0.28658  0.79538  0.8548500000000001  1.0000
  O   O14       1.0  0.043119999999999936  0.64453  0.8588700000000002  1.0000
  O   O15       1.0  0.28612000000000004  0.8286  0.47993000000000013  1.0000
  O   O16       1.0  0.15242999999999998  0.58367  0.48246  1.0000
  O   O17       1.0  0.4144  0.7543500000000001  0.6606000000000002  1.0000
  O   O18       1.0  0.5350200000000002  0.9029600000000001  0.71629  1.0000
  O   O19       1.0  0.77731  0.55836  0.7163000000000003  1.0000
  O   O20       1.0  0.9013199999999999  0.66972  0.65579  1.0000
  O   O21       1.0  0.21847  0.97964  0.67591  1.0000
  O   O22       1.0  0.20869999999999997  0.05029  0.6090800000000002  1.0000
  O   O23       1.0  0.09678000000000002  0.46048000000000006  0.6853400000000002  1.0000
  O   O24       1.0  0.11137000000000007  0.3714800000000001  0.62265  1.0000
  O   O25       1.0  0.78949  0.30375  0.6452600000000001  1.0000
  O   O26       1.0  0.54637  0.15059  0.6409000000000002  1.0000
  O   O27       1.0  0.77492  0.32396  0.0203  1.0000
  O   O28       1.0  0.64094  0.07880000000000001  0.01767  1.0000
  O   O29       1.0  0.9102699999999999  0.24847  0.8396300000000002  1.0000
  O   O30       1.0  0.035510000000000035  0.40409000000000006  0.78574  1.0000
  O   O31       1.0  0.27752  0.05687  0.7833900000000003  1.0000
  O   O32       1.0  0.39989999999999987  0.16786  0.8440900000000002  1.0000
  O   O33       1.0  0.71666  0.47872  0.82386  1.0000
  O   O34       1.0  0.71096  0.5521  0.8906100000000002  1.0000
  O   O35       1.0  0.5918399999999998  0.96034  0.8146400000000003  1.0000
  O   O36       1.0  0.6083199999999999  0.8706  0.8771  1.0000
  O   O37       1.0  0.7955399999999998  0.28672000000000003  0.14515000000000006  1.0000
  O   O38       1.0  0.6442799999999999  0.04326  0.14113  1.0000
  O   O39       1.0  0.82862  0.2862  0.52007  1.0000
  O   O40       1.0  0.5836999999999999  0.15233  0.5175400000000001  1.0000
  O   O41       1.0  0.75435  0.41446  0.3394100000000001  1.0000
  O   O42       1.0  0.9029599999999999  0.53508  0.28371  1.0000
  O   O43       1.0  0.55838  0.77731  0.28371  1.0000
  O   O44       1.0  0.66979  0.90134  0.3442  1.0000
  O   O45       1.0  0.9796499999999995  0.21839  0.3240800000000001  1.0000
  O   O46       1.0  0.050280000000000026  0.20868000000000003  0.39092  1.0000
  O   O47       1.0  0.46057  0.09687  0.31466  1.0000
  O   O48       1.0  0.37151999999999996  0.11137  0.37735000000000013  1.0000
