data_image0
_chemical_formula_structural       Cd4H72C104S8O24
_chemical_formula_sum              "Cd4 H72 C104 S8 O24"
_cell_length_a       7.26648
_cell_length_b       16.70449
_cell_length_c       22.87742
_cell_angle_alpha    89.93055
_cell_angle_beta     90.04592
_cell_angle_gamma    89.83854

_space_group_name_H-M_alt    "P 1"
_space_group_IT_number       1

loop_
  _space_group_symop_operation_xyz
  'x, y, z'

loop_
  _atom_site_type_symbol
  _atom_site_label
  _atom_site_symmetry_multiplicity
  _atom_site_fract_x
  _atom_site_fract_y
  _atom_site_fract_z
  _atom_site_occupancy
  Cd  Cd1       1.0  0.41790000000000005  0.7504500000000002  0.94205  1.0000
  Cd  Cd2       1.0  0.08808000000000003  0.24905  0.44126  1.0000
  Cd  Cd3       1.0  0.58128  0.25187  0.55862  1.0000
  Cd  Cd4       1.0  0.91676  0.7506300000000002  0.05932  1.0000
  H   H1        1.0  0.30645  0.57272  0.5851  1.0000
  H   H2        1.0  0.72584  0.78902  0.53876  1.0000
  H   H3        1.0  0.54972  0.46753  0.43123000000000006  1.0000
  H   H4        1.0  0.46852  0.52526  0.8188000000000001  1.0000
  H   H5        1.0  0.6447  0.2800600000000001  0.79762  1.0000
  H   H6        1.0  0.0015600000000000002  0.56759  0.53818  1.0000
  H   H7        1.0  0.51126  0.38797  0.85972  1.0000
  H   H8        1.0  0.24189  0.45905  0.38518  1.0000
  H   H9        1.0  0.73998  0.6289100000000001  0.79179  1.0000
  H   H10       1.0  0.6868300000000003  0.72245  0.7577200000000001  1.0000
  H   H11       1.0  0.7226900000000003  0.30616  0.6945  1.0000
  H   H12       1.0  0.25324  0.67589  0.65006  1.0000
  H   H13       1.0  0.04394  0.82802  0.51307  1.0000
  H   H14       1.0  0.93567  0.6337600000000002  0.67496  1.0000
  H   H15       1.0  0.9791700000000002  0.44355  0.58557  1.0000
  H   H16       1.0  0.0014999999999999998  0.35626  0.63065  1.0000
  H   H17       1.0  0.30854  0.77217  0.56904  1.0000
  H   H18       1.0  0.9654800000000002  0.51249  0.43811  1.0000
  H   H19       1.0  0.19559000000000007  0.42612  0.08403  1.0000
  H   H20       1.0  0.77505  0.2104  0.03889  1.0000
  H   H21       1.0  0.95113  0.53306  0.93072  1.0000
  H   H22       1.0  0.028600000000000007  0.47547  0.31942  1.0000
  H   H23       1.0  0.85563  0.7209100000000003  0.29662  1.0000
  H   H24       1.0  0.5002  0.43146  0.037  1.0000
  H   H25       1.0  0.98663  0.6130400000000003  0.35942  1.0000
  H   H26       1.0  0.25848  0.54167  0.8845000000000001  1.0000
  H   H27       1.0  0.75812  0.36956  0.29134  1.0000
  H   H28       1.0  0.81404  0.27673000000000003  0.25693  1.0000
  H   H29       1.0  0.7787900000000002  0.6943700000000003  0.19346  1.0000
  H   H30       1.0  0.24806  0.3246  0.14942  1.0000
  H   H31       1.0  0.45695  0.17149  0.01334  1.0000
  H   H32       1.0  0.56569  0.36675  0.17419  1.0000
  H   H33       1.0  0.5245  0.55498  0.08616  1.0000
  H   H34       1.0  0.50473  0.6414100000000003  0.13199  1.0000
  H   H35       1.0  0.19255  0.22742000000000007  0.06914  1.0000
  H   H36       1.0  0.53518  0.48747  0.93704  1.0000
  H   H37       1.0  0.6954600000000002  0.07359000000000003  0.91574  1.0000
  H   H38       1.0  0.2738100000000001  0.28998  0.96105  1.0000
  H   H39       1.0  0.45213  0.9678200000000001  0.06931  1.0000
  H   H40       1.0  0.53029  0.02504  0.68082  1.0000
  H   H41       1.0  0.3606100000000001  0.7796900000000002  0.70352  1.0000
  H   H42       1.0  0.0002300000000000004  0.06808000000000003  0.9628600000000002  1.0000
  H   H43       1.0  0.4907900000000001  0.88735  0.64086  1.0000
  H   H44       1.0  0.7596  0.95924  0.11567000000000001  1.0000
  H   H45       1.0  0.25735  0.13179  0.70869  1.0000
  H   H46       1.0  0.31199  0.22407  0.74357  1.0000
  H   H47       1.0  0.2817500000000001  0.8063200000000003  0.80643  1.0000
  H   H48       1.0  0.7473500000000002  0.17549  0.85096  1.0000
  H   H49       1.0  0.9553  0.3288900000000001  0.98681  1.0000
  H   H50       1.0  0.0654  0.13372  0.82582  1.0000
  H   H51       1.0  0.024159999999999997  0.94471  0.91353  1.0000
  H   H52       1.0  0.00816  0.85666  0.86909  1.0000
  H   H53       1.0  0.6911600000000002  0.27270000000000005  0.93121  1.0000
  H   H54       1.0  0.03579  0.01296  0.0631  1.0000
  H   H55       1.0  0.80591  0.92561  0.41654  1.0000
  H   H56       1.0  0.2269  0.7097600000000002  0.46159  1.0000
  H   H57       1.0  0.04920000000000001  0.03160000000000002  0.56997  1.0000
  H   H58       1.0  0.9696200000000001  0.97574  0.18159  1.0000
  H   H59       1.0  0.14462  0.22051  0.2035  1.0000
  H   H60       1.0  0.50185  0.92943  0.46405  1.0000
  H   H61       1.0  0.01149  0.11317  0.14123  1.0000
  H   H62       1.0  0.74234  0.03894  0.61657  1.0000
  H   H63       1.0  0.24432000000000006  0.86832  0.21094  1.0000
  H   H64       1.0  0.18452000000000002  0.77615  0.24547  1.0000
  H   H65       1.0  0.22544  0.19355  0.30633  1.0000
  H   H66       1.0  0.7522300000000002  0.8243400000000002  0.35103  1.0000
  H   H67       1.0  0.54557  0.6705800000000002  0.48704000000000003  1.0000
  H   H68       1.0  0.4340000000000001  0.8665000000000003  0.32627000000000006  1.0000
  H   H69       1.0  0.47834  0.052460000000000014  0.41592  1.0000
  H   H70       1.0  0.5028  0.13974  0.37083  1.0000
  H   H71       1.0  0.80913  0.72678  0.43125000000000013  1.0000
  H   H72       1.0  0.4664100000000001  0.98439  0.5642  1.0000
  C   C1        1.0  0.29353  0.54848  0.54143  1.0000
  C   C2        1.0  0.67458  0.44722  0.6373600000000001  1.0000
  C   C3        1.0  0.64758  0.52276  0.61331  1.0000
  C   C4        1.0  0.64056  0.43099  0.69734  1.0000
  C   C5        1.0  0.59547  0.58775  0.65119  1.0000
  C   C6        1.0  0.8412600000000002  0.7647  0.56332  1.0000
  C   C7        1.0  0.42933  0.49005  0.4541  1.0000
  C   C8        1.0  0.52547  0.4771100000000001  0.79246  1.0000
  C   C9        1.0  0.44858  0.52252  0.51034  1.0000
  C   C10       1.0  0.81097  0.70959  0.60863  1.0000
  C   C11       1.0  0.62473  0.33951  0.77947  1.0000
  C   C12       1.0  0.55486  0.57268  0.70964  1.0000
  C   C13       1.0  0.5718  0.4941  0.73358  1.0000
  C   C14       1.0  0.12141  0.54465  0.5146  1.0000
  C   C15       1.0  0.55024  0.40092  0.81478  1.0000
  C   C16       1.0  0.25575  0.4861  0.42817  1.0000
  C   C17       1.0  0.54629  0.70039  0.8386400000000002  1.0000
  C   C18       1.0  0.62803  0.6711300000000002  0.78128  1.0000
  C   C19       1.0  0.66871  0.35398  0.7217700000000001  1.0000
  C   C20       1.0  0.13741000000000006  0.70029  0.62523  1.0000
  C   C21       1.0  0.020340000000000004  0.7868  0.5491  1.0000
  C   C22       1.0  0.9591000000000002  0.6765100000000002  0.63996  1.0000
  C   C23       1.0  0.92872  0.38249  0.59284  1.0000
  C   C24       1.0  0.16908  0.75514  0.58026  1.0000
  C   C25       1.0  0.10106000000000001  0.51449  0.45806  1.0000
  C   C26       1.0  0.97281  0.33373  0.53931  1.0000
  C   C27       1.0  0.20834000000000003  0.45083  0.04047  1.0000
  C   C28       1.0  0.82969  0.55315  0.13666  1.0000
  C   C29       1.0  0.8558000000000001  0.47747  0.11294000000000001  1.0000
  C   C30       1.0  0.8613800000000001  0.56956  0.19676  1.0000
  C   C31       1.0  0.90597  0.41249000000000013  0.15111  1.0000
  C   C32       1.0  0.65993  0.23499  0.06336  1.0000
  C   C33       1.0  0.07169  0.51023  0.9534500000000001  1.0000
  C   C34       1.0  0.97275  0.52345  0.29253  1.0000
  C   C35       1.0  0.05309  0.47729  0.0096  1.0000
  C   C36       1.0  0.6903700000000003  0.29038  0.10844000000000001  1.0000
  C   C37       1.0  0.8753200000000002  0.6613100000000002  0.27873  1.0000
  C   C38       1.0  0.94491  0.42764000000000013  0.20969  1.0000
  C   C39       1.0  0.92808  0.5063  0.23348000000000002  1.0000
  C   C40       1.0  0.38016  0.45469  0.013560000000000001  1.0000
  C   C41       1.0  0.94845  0.5998500000000002  0.31443  1.0000
  C   C42       1.0  0.24501  0.5142  0.92741  1.0000
  C   C43       1.0  0.9556300000000002  0.29927  0.33824  1.0000
  C   C44       1.0  0.87139  0.3280200000000001  0.28089  1.0000
  C   C45       1.0  0.83255  0.64662  0.22097  1.0000
  C   C46       1.0  0.36384  0.29983  0.12485  1.0000
  C   C47       1.0  0.48072  0.21284000000000006  0.04922  1.0000
  C   C48       1.0  0.54219  0.3237  0.13947  1.0000
  C   C49       1.0  0.57382  0.61626  0.09323  1.0000
  C   C50       1.0  0.33204  0.24461  0.08023000000000001  1.0000
  C   C51       1.0  0.39987  0.48535000000000006  0.9571000000000002  1.0000
  C   C52       1.0  0.52424  0.66557  0.040400000000000005  1.0000
  C   C53       1.0  0.70849  0.04915000000000001  0.9593900000000001  1.0000
  C   C54       1.0  0.33074  0.9476300000000001  0.86347  1.0000
  C   C55       1.0  0.35602  0.023430000000000006  0.8869500000000001  1.0000
  C   C56       1.0  0.36316  0.9311200000000001  0.80336  1.0000
  C   C57       1.0  0.40576  0.08829  0.84872  1.0000
  C   C58       1.0  0.15871000000000002  0.26542  0.93666  1.0000
  C   C59       1.0  0.57238  0.99044  0.04653  1.0000
  C   C60       1.0  0.47504000000000013  0.97704  0.70765  1.0000
  C   C61       1.0  0.55336  0.02313  0.99029  1.0000
  C   C62       1.0  0.18946000000000005  0.21012  0.89153  1.0000
  C   C63       1.0  0.3794400000000001  0.8392700000000002  0.72144  1.0000
  C   C64       1.0  0.44544  0.07311  0.79023  1.0000
  C   C65       1.0  0.42963  0.99433  0.76659  1.0000
  C   C66       1.0  0.88036  0.045240000000000016  0.98638  1.0000
  C   C67       1.0  0.45209  0.9006200000000001  0.68578  1.0000
  C   C68       1.0  0.7457700000000003  0.9864500000000002  0.07266  1.0000
  C   C69       1.0  0.45242  0.20254  0.66195  1.0000
  C   C70       1.0  0.37032000000000004  0.17313000000000003  0.71933  1.0000
  C   C71       1.0  0.3356  0.85407  0.77911  1.0000
  C   C72       1.0  0.86299  0.20041  0.87541  1.0000
  C   C73       1.0  0.97937  0.28751  0.95093  1.0000
  C   C74       1.0  0.04149000000000001  0.17671  0.8605900000000001  1.0000
  C   C75       1.0  0.0765  0.8836000000000003  0.90735  1.0000
  C   C76       1.0  0.8308300000000002  0.25561  0.9200600000000001  1.0000
  C   C77       1.0  0.90043  0.014970000000000002  0.04297  1.0000
  C   C78       1.0  0.028050000000000002  0.8355400000000002  0.96091  1.0000
  C   C79       1.0  0.7930200000000001  0.94975  0.46023  1.0000
  C   C80       1.0  0.17426000000000003  0.052440000000000014  0.36368000000000006  1.0000
  C   C81       1.0  0.14640000000000003  0.97691  0.38754  1.0000
  C   C82       1.0  0.14159  0.0691  0.3036  1.0000
  C   C83       1.0  0.09473000000000002  0.91222  0.3495  1.0000
  C   C84       1.0  0.3417  0.7343300000000003  0.43708  1.0000
  C   C85       1.0  0.92911  0.00861  0.5472800000000001  1.0000
  C   C86       1.0  0.026640000000000007  0.02353  0.2082  1.0000
  C   C87       1.0  0.9480100000000002  0.97623  0.491  1.0000
  C   C88       1.0  0.31048  0.7898600000000002  0.39202000000000004  1.0000
  C   C89       1.0  0.12542  0.16095  0.22152000000000002  1.0000
  C   C90       1.0  0.05495  0.92771  0.29103  1.0000
  C   C91       1.0  0.07274  0.00626  0.26715  1.0000
  C   C92       1.0  0.62148  0.95281  0.48741  1.0000
  C   C93       1.0  0.05099  0.09980000000000003  0.1861  1.0000
  C   C94       1.0  0.7560400000000002  0.011870000000000004  0.57356  1.0000
  C   C95       1.0  0.049770000000000016  0.7987000000000001  0.16298  1.0000
  C   C96       1.0  0.12961  0.82752  0.2208  1.0000
  C   C97       1.0  0.17027  0.14602  0.27914  1.0000
  C   C98       1.0  0.63682  0.7994300000000002  0.37558  1.0000
  C   C99       1.0  0.52119  0.7120700000000002  0.4511600000000001  1.0000
  C   C100      1.0  0.4581500000000001  0.82333  0.3609800000000001  1.0000
  C   C101      1.0  0.43009  0.11402000000000001  0.4087400000000001  1.0000
  C   C102      1.0  0.6694  0.744  0.42017  1.0000
  C   C103      1.0  0.6016100000000002  0.98283  0.54401  1.0000
  C   C104      1.0  0.47737000000000007  0.16222  0.4621800000000001  1.0000
  S   S1        1.0  0.67801  0.53593  0.53658  1.0000
  S   S2        1.0  0.57723  0.68704  0.62454  1.0000
  S   S3        1.0  0.8242800000000002  0.46382  0.03627  1.0000
  S   S4        1.0  0.924  0.3131  0.12465  1.0000
  S   S5        1.0  0.32452  0.037260000000000015  0.96359  1.0000
  S   S6        1.0  0.42312  0.18764  0.87511  1.0000
  S   S7        1.0  0.1771  0.96304  0.46426000000000006  1.0000
  S   S8        1.0  0.07661  0.8128000000000002  0.37592  1.0000
  O   O1        1.0  0.48996  0.63286  0.7455300000000001  1.0000
  O   O2        1.0  0.73154  0.38322  0.60282  1.0000
  O   O3        1.0  0.38696  0.6777500000000002  0.8544800000000001  1.0000
  O   O4        1.0  0.6470100000000002  0.7468  0.86918  1.0000
  O   O5        1.0  0.12997  0.34117  0.51734  1.0000
  O   O6        1.0  0.85212  0.28578  0.51731  1.0000
  O   O7        1.0  0.00923  0.36741  0.24568  1.0000
  O   O8        1.0  0.77185  0.6164500000000003  0.10146  1.0000
  O   O9        1.0  0.11155  0.32563  0.35433000000000003  1.0000
  O   O10       1.0  0.8617200000000003  0.2497  0.36851000000000006  1.0000
  O   O11       1.0  0.37018  0.6546700000000001  0.01728  1.0000
  O   O12       1.0  0.63914  0.71781  0.02011  1.0000
  O   O13       1.0  0.50903  0.13357  0.7543600000000001  1.0000
  O   O14       1.0  0.27495000000000014  0.88453  0.89924  1.0000
  O   O15       1.0  0.61075  0.17839000000000005  0.64594  1.0000
  O   O16       1.0  0.35341  0.25021  0.6315  1.0000
  O   O17       1.0  0.8712600000000001  0.84462  0.98271  1.0000
  O   O18       1.0  0.14657999999999996  0.7860300000000002  0.9829  1.0000
  O   O19       1.0  0.99031  0.8680300000000002  0.25483  1.0000
  O   O20       1.0  0.23248000000000002  0.1155  0.3989  1.0000
  O   O21       1.0  0.89424  0.82513  0.14574000000000004  1.0000
  O   O22       1.0  0.14642  0.74923  0.13366  1.0000
  O   O23       1.0  0.6307900000000002  0.15122  0.48567  1.0000
  O   O24       1.0  0.36101  0.21425  0.48236  1.0000
