data_image0
_chemical_formula_structural       Cu8H60C84N12O32
_chemical_formula_sum              "Cu8 H60 C84 N12 O32"
_cell_length_a       14.14127
_cell_length_b       16.93188
_cell_length_c       16.93389
_cell_angle_alpha    49.72645
_cell_angle_beta     65.01319
_cell_angle_gamma    65.01549

_space_group_name_H-M_alt    "P 1"
_space_group_IT_number       1

loop_
  _space_group_symop_operation_xyz
  'x, y, z'

loop_
  _atom_site_type_symbol
  _atom_site_label
  _atom_site_symmetry_multiplicity
  _atom_site_fract_x
  _atom_site_fract_y
  _atom_site_fract_z
  _atom_site_occupancy
  Cu  Cu1       1.0  0.4281299999999999  0.05609999999999998  0.9450700000000001  1.0000
  Cu  Cu2       1.0  0.5718599999999999  0.9439  0.05494  1.0000
  Cu  Cu3       1.0  0.07183999999999996  0.5549  0.44393  1.0000
  Cu  Cu4       1.0  0.92815  0.44509  0.55607  1.0000
  Cu  Cu5       1.0  0.2502899999999999  0.5883099999999999  0.91152  1.0000
  Cu  Cu6       1.0  0.24998999999999985  0.9120300000000001  0.58795  1.0000
  Cu  Cu7       1.0  0.7496799999999998  0.41172  0.08846  1.0000
  Cu  Cu8       1.0  0.75001  0.08794999999999999  0.41207  1.0000
  H   H1        1.0  0.5736599999999998  0.38219  0.23637  1.0000
  H   H2        1.0  0.64626  0.44253  0.22806  1.0000
  H   H3        1.0  0.6099199999999999  0.6281100000000002  0.13998  1.0000
  H   H4        1.0  0.46425999999999984  0.48654  0.09261  1.0000
  H   H5        1.0  0.3763599999999999  0.82299  0.9466  1.0000
  H   H6        1.0  0.8045499999999998  0.23603000000000002  0.38346  1.0000
  H   H7        1.0  0.6794399999999998  0.22708999999999993  0.44378000000000006  1.0000
  H   H8        1.0  0.6179799999999999  0.14067  0.62952  1.0000
  H   H9        1.0  0.9541799999999999  0.09195999999999999  0.48656  1.0000
  H   H10       1.0  0.8518699999999998  0.9460099999999999  0.8229700000000001  1.0000
  H   H11       1.0  0.9260699999999997  0.26397  0.1179  1.0000
  H   H12       1.0  0.8534999999999998  0.27207000000000003  0.05768  1.0000
  H   H13       1.0  0.8900099999999995  0.35996000000000006  0.87215  1.0000
  H   H14       1.0  0.03549999999999997  0.40754  0.01362  1.0000
  H   H15       1.0  0.12358000000000002  0.5534100000000001  0.6772  1.0000
  H   H16       1.0  0.6955699999999999  0.11647000000000002  0.26393  1.0000
  H   H17       1.0  0.8206899999999998  0.05616000000000001  0.27291  1.0000
  H   H18       1.0  0.8821599999999999  0.8702899999999999  0.35959  1.0000
  H   H19       1.0  0.54591  0.013330000000000014  0.40806  1.0000
  H   H20       1.0  0.6482200000000001  0.6768699999999999  0.5541  1.0000
  H   H21       1.0  0.4263199999999997  0.6178100000000001  0.76362  1.0000
  H   H22       1.0  0.35371999999999953  0.55747  0.77193  1.0000
  H   H23       1.0  0.39005999999999996  0.37188000000000004  0.86004  1.0000
  H   H24       1.0  0.53574  0.51348  0.90737  1.0000
  H   H25       1.0  0.6236399999999999  0.17703  0.05339  1.0000
  H   H26       1.0  0.19546999999999998  0.7639300000000001  0.61656  1.0000
  H   H27       1.0  0.32058000000000003  0.7728999999999999  0.55622  1.0000
  H   H28       1.0  0.3820199999999999  0.8593200000000001  0.37049  1.0000
  H   H29       1.0  0.04581999999999996  0.9080200000000002  0.51347  1.0000
  H   H30       1.0  0.14812999999999998  0.05401000000000001  0.17704  1.0000
  H   H31       1.0  0.07390999999999981  0.73606  0.88209  1.0000
  H   H32       1.0  0.14648999999999995  0.72794  0.9423200000000002  1.0000
  H   H33       1.0  0.10998999999999994  0.64002  0.12785  1.0000
  H   H34       1.0  0.9644699999999995  0.5924799999999999  0.9863700000000001  1.0000
  H   H35       1.0  0.8764099999999997  0.44659000000000004  0.3227900000000001  1.0000
  H   H36       1.0  0.3044099999999998  0.88351  0.7361000000000001  1.0000
  H   H37       1.0  0.17928999999999987  0.9438200000000001  0.7271  1.0000
  H   H38       1.0  0.11782999999999988  0.12969  0.64042  1.0000
  H   H39       1.0  0.4540800000000001  0.9866500000000001  0.59196  1.0000
  H   H40       1.0  0.3517700000000001  0.32311  0.44589  1.0000
  H   H41       1.0  0.22811999999999985  0.001470000000000018  0.9993300000000002  1.0000
  H   H42       1.0  0.06702000000000002  0.07303999999999998  0.9261300000000001  1.0000
  H   H43       1.0  0.05502000000000002  0.24901999999999988  0.7490300000000001  1.0000
  H   H44       1.0  0.20343999999999987  0.3442  0.65442  1.0000
  H   H45       1.0  0.35858999999999996  0.26062  0.73934  1.0000
  H   H46       1.0  0.7718699999999997  0.9985400000000001  0.0006900000000000001  1.0000
  H   H47       1.0  0.93298  0.92696  0.07387  1.0000
  H   H48       1.0  0.9449899999999997  0.75096  0.25096  1.0000
  H   H49       1.0  0.79656  0.65579  0.34558  1.0000
  H   H50       1.0  0.6413999999999997  0.73938  0.26067  1.0000
  H   H51       1.0  0.27191999999999983  0.50056  0.49848  1.0000
  H   H52       1.0  0.43300000000000005  0.5737999999999998  0.4269300000000001  1.0000
  H   H53       1.0  0.44502999999999987  0.7509000000000002  0.25094  1.0000
  H   H54       1.0  0.29663999999999985  0.8454700000000003  0.15573  1.0000
  H   H55       1.0  0.14156999999999997  0.76045  0.23927000000000007  1.0000
  H   H56       1.0  0.72808  0.49942  0.50151  1.0000
  H   H57       1.0  0.5669799999999999  0.4262000000000001  0.57309  1.0000
  H   H58       1.0  0.5549299999999998  0.24911999999999995  0.74909  1.0000
  H   H59       1.0  0.7033399999999997  0.15454000000000004  0.84428  1.0000
  H   H60       1.0  0.8584400000000003  0.23953000000000002  0.76072  1.0000
  C   C1        1.0  0.34129  0.67064  0.95849  1.0000
  C   C2        1.0  0.49189999999999995  0.73412  0.04435  1.0000
  C   C3        1.0  0.55435  0.63455  0.10618  1.0000
  C   C4        1.0  0.5443099999999997  0.54518  0.12412  1.0000
  C   C5        1.0  0.47264999999999985  0.55547  0.07925  1.0000
  C   C6        1.0  0.41328  0.65606  0.01373  1.0000
  C   C7        1.0  0.4228299999999999  0.7452499999999999  0.99664  1.0000
  C   C8        1.0  0.49634999999999985  0.82842  0.03179  1.0000
  C   C9        1.0  0.027819999999999966  0.9586800000000001  0.67021  1.0000
  C   C10       1.0  0.7263599999999999  0.04388000000000002  0.7352300000000002  1.0000
  C   C11       1.0  0.70125  0.1062  0.63586  1.0000
  C   C12       1.0  0.7831499999999998  0.12372  0.54627  1.0000
  C   C13       1.0  0.8900300000000001  0.07868  0.55582  1.0000
  C   C14       1.0  0.9145999999999994  0.013419999999999982  0.6560400000000001  1.0000
  C   C15       1.0  0.8326400000000003  0.9962  0.74554  1.0000
  C   C16       1.0  0.6405  0.030810000000000032  0.83022  1.0000
  C   C17       1.0  0.15870999999999966  0.5414600000000005  0.82952  1.0000
  C   C18       1.0  0.008059999999999916  0.4556700000000001  0.7660100000000001  1.0000
  C   C19       1.0  0.9455699999999999  0.39382999999999996  0.8656200000000001  1.0000
  C   C20       1.0  0.9554599999999998  0.3760200000000001  0.95497  1.0000
  C   C21       1.0  0.02712  0.4208700000000001  0.94469  1.0000
  C   C22       1.0  0.08657000000000005  0.48634  0.84412  1.0000
  C   C23       1.0  0.07711999999999986  0.5033300000000002  0.75495  1.0000
  C   C24       1.0  0.0036399999999998755  0.46822  0.6716700000000001  1.0000
  C   C25       1.0  0.47219999999999973  0.8296700000000004  0.5414  1.0000
  C   C26       1.0  0.7737099999999998  0.76472  0.45624  1.0000
  C   C27       1.0  0.7988299999999999  0.8640600000000002  0.39398  1.0000
  C   C28       1.0  0.7169399999999997  0.9536500000000001  0.37635  1.0000
  C   C29       1.0  0.61003  0.9440499999999998  0.4214200000000001  1.0000
  C   C30       1.0  0.5854699999999997  0.84381  0.4867100000000001  1.0000
  C   C31       1.0  0.6674299999999995  0.75431  0.50397  1.0000
  C   C32       1.0  0.8595300000000001  0.66978  0.46921  1.0000
  C   C33       1.0  0.65871  0.32937  0.04148  1.0000
  C   C34       1.0  0.5080899999999999  0.26588000000000006  0.95565  1.0000
  C   C35       1.0  0.44563999999999987  0.3654400000000001  0.89382  1.0000
  C   C36       1.0  0.4556700000000001  0.45483  0.87588  1.0000
  C   C37       1.0  0.52734  0.44451999999999997  0.92074  1.0000
  C   C38       1.0  0.5866999999999999  0.3439599999999998  0.9862700000000002  1.0000
  C   C39       1.0  0.57716  0.25475  0.003350000000000001  1.0000
  C   C40       1.0  0.5036399999999996  0.1715800000000002  0.96822  1.0000
  C   C41       1.0  0.9721699999999999  0.041310000000000006  0.3298  1.0000
  C   C42       1.0  0.27363  0.95612  0.26479  1.0000
  C   C43       1.0  0.29874  0.8938  0.36414  1.0000
  C   C44       1.0  0.2168500000000001  0.8762699999999999  0.45375  1.0000
  C   C45       1.0  0.10996999999999979  0.9213000000000001  0.4441900000000001  1.0000
  C   C46       1.0  0.08539999999999999  0.98657  0.34399  1.0000
  C   C47       1.0  0.16734999999999997  0.003810000000000012  0.25447  1.0000
  C   C48       1.0  0.35947  0.9692100000000001  0.16977  1.0000
  C   C49       1.0  0.8412499999999996  0.45855000000000024  0.17047  1.0000
  C   C50       1.0  0.9919199999999997  0.5443299999999999  0.23399000000000003  1.0000
  C   C51       1.0  0.054409999999999986  0.60618  0.13438  1.0000
  C   C52       1.0  0.04451999999999998  0.62398  0.04502  1.0000
  C   C53       1.0  0.9728500000000001  0.57914  0.0553  1.0000
  C   C54       1.0  0.9134200000000001  0.51366  0.15586  1.0000
  C   C55       1.0  0.9228599999999998  0.4966800000000002  0.24505000000000002  1.0000
  C   C56       1.0  0.9963499999999996  0.53177  0.32833  1.0000
  C   C57       1.0  0.52779  0.17029  0.45863  1.0000
  C   C58       1.0  0.2262799999999998  0.23526000000000002  0.54377  1.0000
  C   C59       1.0  0.20116999999999993  0.13593000000000008  0.60602  1.0000
  C   C60       1.0  0.28305  0.04634000000000001  0.62366  1.0000
  C   C61       1.0  0.38996  0.05592999999999999  0.57859  1.0000
  C   C62       1.0  0.4145199999999997  0.15618000000000004  0.51329  1.0000
  C   C63       1.0  0.3325699999999999  0.24567000000000003  0.49603  1.0000
  C   C64       1.0  0.14048  0.33021999999999996  0.53078  1.0000
  C   C65       1.0  0.21850999999999993  0.07705000000000005  0.92338  1.0000
  C   C66       1.0  0.12962999999999997  0.11732999999999999  0.88211  1.0000
  C   C67       1.0  0.12302000000000006  0.21459  0.78411  1.0000
  C   C68       1.0  0.20577999999999994  0.26814  0.7308  1.0000
  C   C69       1.0  0.29188  0.22241999999999992  0.7774600000000002  1.0000
  C   C70       1.0  0.78147  0.92295  0.07663  1.0000
  C   C71       1.0  0.8703599999999999  0.88266  0.1179  1.0000
  C   C72       1.0  0.8769899999999996  0.7854  0.21589000000000005  1.0000
  C   C73       1.0  0.7942200000000001  0.73185  0.2692  1.0000
  C   C74       1.0  0.70811  0.77758  0.22255  1.0000
  C   C75       1.0  0.28153999999999996  0.57649  0.42289000000000004  1.0000
  C   C76       1.0  0.37041999999999997  0.6177899999999998  0.3826100000000001  1.0000
  C   C77       1.0  0.37704999999999983  0.71579  0.28535  1.0000
  C   C78       1.0  0.29432  0.7690700000000001  0.23178  1.0000
  C   C79       1.0  0.20823999999999987  0.7223700000000001  0.27749  1.0000
  C   C80       1.0  0.71845  0.42349000000000003  0.57711  1.0000
  C   C81       1.0  0.6295699999999995  0.3822100000000001  0.6174  1.0000
  C   C82       1.0  0.6229299999999998  0.2842100000000001  0.71466  1.0000
  C   C83       1.0  0.7056599999999998  0.23092999999999997  0.76823  1.0000
  C   C84       1.0  0.79176  0.27761999999999987  0.7225100000000001  1.0000
  N   N1        1.0  0.6122699999999998  0.44439  0.18366000000000002  1.0000
  N   N2        1.0  0.75662  0.18302000000000002  0.44573  1.0000
  N   N3        1.0  0.8874  0.3166000000000001  0.05575  1.0000
  N   N4        1.0  0.7434799999999998  0.054220000000000004  0.31695  1.0000
  N   N5        1.0  0.38770999999999994  0.55561  0.81634  1.0000
  N   N6        1.0  0.24339000000000005  0.81696  0.55428  1.0000
  N   N7        1.0  0.11257999999999992  0.6834099999999999  0.9442500000000001  1.0000
  N   N8        1.0  0.2565100000000002  0.9457699999999999  0.68306  1.0000
  N   N9        1.0  0.2982  0.12861999999999987  0.8720600000000002  1.0000
  N   N10       1.0  0.70178  0.87139  0.12795  1.0000
  N   N11       1.0  0.20187999999999984  0.6277800000000002  0.3713100000000001  1.0000
  N   N12       1.0  0.7981199999999999  0.37220000000000003  0.6286800000000001  1.0000
  O   O1        1.0  0.33017  0.58372  0.9844900000000001  1.0000
  O   O2        1.0  0.4330800000000001  0.9151699999999999  0.97906  1.0000
  O   O3        1.0  0.56002  0.81488  0.07699  1.0000
  O   O4        1.0  0.29657  0.7622099999999999  0.89208  1.0000
  O   O5        1.0  0.10034999999999993  0.9833700000000001  0.58337  1.0000
  O   O6        1.0  0.67117  0.97653  0.91655  1.0000
  O   O7        1.0  0.5443699999999998  0.07691000000000005  0.81777  1.0000
  O   O8        1.0  0.047290000000000054  0.8937999999999999  0.7617  1.0000
  O   O9        1.0  0.17046999999999995  0.51507  0.91636  1.0000
  O   O10       1.0  0.06698000000000001  0.5209  0.5849  1.0000
  O   O11       1.0  0.9399699999999999  0.42305  0.6852  1.0000
  O   O12       1.0  0.20314000000000004  0.60813  0.73791  1.0000
  O   O13       1.0  0.39971999999999974  0.9165600000000002  0.51672  1.0000
  O   O14       1.0  0.8288399999999999  0.58346  0.52354  1.0000
  O   O15       1.0  0.9556799999999996  0.68225  0.42303  1.0000
  O   O16       1.0  0.4527  0.7381999999999999  0.60628  1.0000
  O   O17       1.0  0.6698199999999997  0.4163000000000001  0.015490000000000004  1.0000
  O   O18       1.0  0.5669199999999996  0.08483000000000003  0.02094  1.0000
  O   O19       1.0  0.43996999999999997  0.18511  0.9230300000000001  1.0000
  O   O20       1.0  0.7034199999999999  0.2378  0.10791  1.0000
  O   O21       1.0  0.89964  0.01662000000000001  0.41665  1.0000
  O   O22       1.0  0.32881  0.023479999999999997  0.08346  1.0000
  O   O23       1.0  0.4556199999999998  0.92308  0.18223000000000003  1.0000
  O   O24       1.0  0.9526999999999998  0.10619  0.23832  1.0000
  O   O25       1.0  0.8295  0.48494999999999994  0.08363  1.0000
  O   O26       1.0  0.9330099999999997  0.4790899999999999  0.4150900000000001  1.0000
  O   O27       1.0  0.06000999999999981  0.5769400000000002  0.3148  1.0000
  O   O28       1.0  0.7968399999999999  0.39188000000000006  0.26207  1.0000
  O   O29       1.0  0.60028  0.08342  0.4833  1.0000
  O   O30       1.0  0.17117000000000002  0.41653  0.47646  1.0000
  O   O31       1.0  0.04432  0.31773999999999997  0.57698  1.0000
  O   O32       1.0  0.5472999999999998  0.26179  0.39374  1.0000
