data_image0
_chemical_formula_structural       Cu12H72C84N48O4
_chemical_formula_sum              "Cu12 H72 C84 N48 O4"
_cell_length_a       18.7241
_cell_length_b       18.72577
_cell_length_c       18.66694
_cell_angle_alpha    109.68128
_cell_angle_beta     109.31162000000002
_cell_angle_gamma    109.59934

_space_group_name_H-M_alt    "P 1"
_space_group_IT_number       1

loop_
  _space_group_symop_operation_xyz
  'x, y, z'

loop_
  _atom_site_type_symbol
  _atom_site_label
  _atom_site_symmetry_multiplicity
  _atom_site_fract_x
  _atom_site_fract_y
  _atom_site_fract_z
  _atom_site_occupancy
  Cu  Cu1       1.0  0.36165999999999987  0.88806  0.8959999999999998  1.0000
  Cu  Cu2       1.0  0.64079  0.53028  0.53392  1.0000
  Cu  Cu3       1.0  0.99406  0.10521000000000001  0.4666  1.0000
  Cu  Cu4       1.0  0.005989999999999989  0.47271  0.11091999999999998  1.0000
  Cu  Cu5       1.0  0.4670899999999998  0.10617999999999986  0.9977599999999998  1.0000
  Cu  Cu6       1.0  0.11080000000000002  0.47224000000000005  0.005659999999999998  1.0000
  Cu  Cu7       1.0  0.53371  0.52897  0.63913  1.0000
  Cu  Cu8       1.0  0.88843  0.8944  0.36136  1.0000
  Cu  Cu9       1.0  0.46720000000000006  0.9957  0.10647  1.0000
  Cu  Cu10      1.0  0.10673999999999995  0.9997399999999999  0.4682499999999999  1.0000
  Cu  Cu11      1.0  0.8933699999999998  0.3616999999999999  0.8932699999999998  1.0000
  Cu  Cu12      1.0  0.53201  0.63975  0.53117  1.0000
  H   H1        1.0  0.27963  0.8633799999999999  0.68039  1.0000
  H   H2        1.0  0.7183199999999998  0.39905  0.57995  1.0000
  H   H3        1.0  0.81785  0.13780999999999993  0.4200299999999999  1.0000
  H   H4        1.0  0.18286  0.6018399999999999  0.3209  1.0000
  H   H5        1.0  0.60024  0.31755  0.178  1.0000
  H   H6        1.0  0.13609999999999983  0.41648999999999986  0.8180199999999997  1.0000
  H   H7        1.0  0.39966999999999986  0.5791099999999998  0.7174499999999998  1.0000
  H   H8        1.0  0.86337  0.681  0.28  1.0000
  H   H9        1.0  0.42133  0.82014  0.13976999999999995  1.0000
  H   H10       1.0  0.3180499999999999  0.17811999999999995  0.6006299999999998  1.0000
  H   H11       1.0  0.68116  0.28224000000000005  0.85922  1.0000
  H   H12       1.0  0.5774  0.71662  0.3992599999999999  1.0000
  H   H13       1.0  0.28087999999999985  0.6791999999999998  0.8627199999999998  1.0000
  H   H14       1.0  0.71843  0.5812099999999999  0.40045  1.0000
  H   H15       1.0  0.8177200000000001  0.41659  0.13688  1.0000
  H   H16       1.0  0.18214999999999992  0.3185699999999999  0.5989699999999998  1.0000
  H   H17       1.0  0.5986799999999999  0.18035  0.31775  1.0000
  H   H18       1.0  0.14000000000000004  0.8224700000000001  0.42333  1.0000
  H   H19       1.0  0.39934999999999987  0.7173499999999999  0.5781899999999998  1.0000
  H   H20       1.0  0.8595199999999997  0.28298999999999985  0.6815799999999997  1.0000
  H   H21       1.0  0.42325  0.14015999999999998  0.82226  1.0000
  H   H22       1.0  0.32036  0.60127  0.18256  1.0000
  H   H23       1.0  0.6796000000000001  0.8619000000000001  0.28145  1.0000
  H   H24       1.0  0.57959  0.3982999999999998  0.7176199999999998  1.0000
  H   H25       1.0  0.20911  0.0012400000000000113  0.62839  1.0000
  H   H26       1.0  0.2596999999999999  0.99943  0.4255199999999999  1.0000
  H   H27       1.0  0.39697  0.99966  0.49617  1.0000
  H   H28       1.0  0.44434  0.0009699999999999889  0.64258  1.0000
  H   H29       1.0  0.7913699999999999  0.4194599999999999  0.7911999999999998  1.0000
  H   H30       1.0  0.74004  0.16651  0.73995  1.0000
  H   H31       1.0  0.6022  0.09874999999999984  0.6022899999999998  1.0000
  H   H32       1.0  0.5553699999999999  0.19760999999999995  0.55555  1.0000
  H   H33       1.0  0.62985  0.0012099999999999724  0.21052999999999994  1.0000
  H   H34       1.0  0.42662  0.0008199999999999961  0.25893  1.0000
  H   H35       1.0  0.49487000000000003  0.99949  0.39652  1.0000
  H   H36       1.0  0.64024  0.99925  0.44454  1.0000
  H   H37       1.0  0.37286  0.58213  0.37254  1.0000
  H   H38       1.0  0.57586  0.83527  0.57553  1.0000
  H   H39       1.0  0.50592  0.90298  0.5058199999999999  1.0000
  H   H40       1.0  0.35948  0.8041999999999999  0.35987  1.0000
  H   H41       1.0  0.58037  0.37338  0.37116  1.0000
  H   H42       1.0  0.8327900000000001  0.57373  0.57396  1.0000
  H   H43       1.0  0.8995199999999997  0.50284  0.50322  1.0000
  H   H44       1.0  0.8010099999999999  0.35724999999999996  0.35686  1.0000
  H   H45       1.0  6.999999999998395e-05  0.20882999999999993  0.62849  1.0000
  H   H46       1.0  0.0009299999999999816  0.25871  0.4264199999999999  1.0000
  H   H47       1.0  0.9990200000000001  0.39554  0.4956099999999999  1.0000
  H   H48       1.0  0.9985  0.4432999999999999  0.6414199999999998  1.0000
  H   H49       1.0  0.42102  0.79525  0.79214  1.0000
  H   H50       1.0  0.16954999999999998  0.74338  0.74238  1.0000
  H   H51       1.0  0.10169999999999998  0.60293  0.60467  1.0000
  H   H52       1.0  0.19961  0.5587  0.55578  1.0000
  H   H53       1.0  0.9988100000000001  0.62784  0.20788  1.0000
  H   H54       1.0  0.9976899999999997  0.42558999999999997  0.25701999999999997  1.0000
  H   H55       1.0  0.9999  0.4965899999999999  0.39628  1.0000
  H   H56       1.0  0.001939999999999894  0.6431799999999999  0.44540999999999986  1.0000
  H   H57       1.0  0.20942999999999995  0.6283899999999999  0.9985399999999999  1.0000
  H   H58       1.0  0.25749  0.42575999999999997  0.9986599999999999  1.0000
  H   H59       1.0  0.39615  0.4956  0.0002799999999999999  1.0000
  H   H60       1.0  0.44502  0.64177  0.00119  1.0000
  H   H61       1.0  0.3729199999999999  0.37263999999999997  0.5804499999999999  1.0000
  H   H62       1.0  0.57349  0.57463  0.83394  1.0000
  H   H63       1.0  0.5036499999999999  0.50345  0.9010099999999998  1.0000
  H   H64       1.0  0.35863999999999996  0.35724  0.80216  1.0000
  H   H65       1.0  0.6265299999999999  0.20765999999999993  0.9987999999999999  1.0000
  H   H66       1.0  0.42686  0.26014  0.00091  1.0000
  H   H67       1.0  0.49712  0.39714  0.00020999999999999995  1.0000
  H   H68       1.0  0.6419299999999998  0.44352999999999987  0.9988299999999999  1.0000
  H   H69       1.0  0.79234  0.79136  0.42126999999999987  1.0000
  H   H70       1.0  0.74217  0.74075  0.16838999999999996  1.0000
  H   H71       1.0  0.60347  0.60372  0.10029999999999997  1.0000
  H   H72       1.0  0.55567  0.55679  0.19860999999999998  1.0000
  C   C1        1.0  0.3169900000000001  0.9303  0.73427  1.0000
  C   C2        1.0  0.68263  0.41647  0.61105  1.0000
  C   C3        1.0  0.8047399999999999  0.07135  0.38692  1.0000
  C   C4        1.0  0.19605  0.58234  0.26751  1.0000
  C   C5        1.0  0.58401  0.2649  0.19242  1.0000
  C   C6        1.0  0.06935000000000002  0.38678  0.8047  1.0000
  C   C7        1.0  0.4141  0.60817  0.67913  1.0000
  C   C8        1.0  0.9301699999999998  0.7345799999999999  0.31707  1.0000
  C   C9        1.0  0.38879  0.8059799999999999  0.07273  1.0000
  C   C10       1.0  0.26569000000000004  0.19286999999999996  0.58431  1.0000
  C   C11       1.0  0.73379  0.31837  0.92664  1.0000
  C   C12       1.0  0.60808  0.68014  0.4153999999999999  1.0000
  C   C13       1.0  0.31582  0.73328  0.9294  1.0000
  C   C14       1.0  0.6813699999999999  0.61093  0.41660999999999987  1.0000
  C   C15       1.0  0.8039200000000001  0.38688  0.06971999999999998  1.0000
  C   C16       1.0  0.1958899999999999  0.2654699999999999  0.5829199999999998  1.0000
  C   C17       1.0  0.58333  0.19484  0.26499  1.0000
  C   C18       1.0  0.07279000000000001  0.80768  0.39178  1.0000
  C   C19       1.0  0.41403  0.67908  0.6072  1.0000
  C   C20       1.0  0.9267099999999999  0.3186  0.73435  1.0000
  C   C21       1.0  0.3918899999999999  0.07305999999999986  0.8076899999999998  1.0000
  C   C22       1.0  0.26711  0.58203  0.19572999999999993  1.0000
  C   C23       1.0  0.73302  0.92837  0.3151  1.0000
  C   C24       1.0  0.61092  0.41614  0.68225  1.0000
  C   C25       1.0  0.25164  0.0010399999999999704  0.60022  1.0000
  C   C26       1.0  0.2804499999999999  0.9998799999999999  0.48761  1.0000
  C   C27       1.0  0.35727  0.00012000000000000434  0.52759  1.0000
  C   C28       1.0  0.38474999999999987  0.0010299999999999155  0.6087099999999998  1.0000
  C   C29       1.0  0.32795  0.0019400000000000283  0.64331  1.0000
  C   C30       1.0  0.7486299999999998  0.34870999999999985  0.7483299999999998  1.0000
  C   C31       1.0  0.7193600000000001  0.20753999999999995  0.7192499999999997  1.0000
  C   C32       1.0  0.6421900000000003  0.16999  0.64216  1.0000
  C   C33       1.0  0.61524  0.2233999999999999  0.6152099999999998  1.0000
  C   C34       1.0  0.6722699999999999  0.3148799999999999  0.6721299999999998  1.0000
  C   C35       1.0  0.60139  0.0006499999999999941  0.25284  1.0000
  C   C36       1.0  0.48825  0.00042999999999999457  0.28046  1.0000
  C   C37       1.0  0.52689  0.99973  0.35725  1.0000
  C   C38       1.0  0.6072600000000001  0.9996499999999999  0.38484  1.0000
  C   C39       1.0  0.64288  3.999999999994271e-05  0.3288999999999999  1.0000
  C   C40       1.0  0.40086  0.6529  0.4007099999999999  1.0000
  C   C41       1.0  0.51378  0.79445  0.51357  1.0000
  C   C42       1.0  0.47419  0.83174  0.4740899999999999  1.0000
  C   C43       1.0  0.39310999999999996  0.7781099999999999  0.3933899999999999  1.0000
  C   C44       1.0  0.35831  0.68655  0.3585399999999999  1.0000
  C   C45       1.0  0.65075  0.4006199999999999  0.3991999999999999  1.0000
  C   C46       1.0  0.7916400000000002  0.51198  0.51168  1.0000
  C   C47       1.0  0.8284799999999999  0.47179999999999994  0.4718099999999999  1.0000
  C   C48       1.0  0.77509  0.39134  0.39075  1.0000
  C   C49       1.0  0.68398  0.35780999999999996  0.35641  1.0000
  C   C50       1.0  0.9996499999999999  0.25102  0.60024  1.0000
  C   C51       1.0  0.00025999999999989974  0.2795699999999999  0.48803999999999986  1.0000
  C   C52       1.0  0.9993799999999999  0.35624999999999996  0.52737  1.0000
  C   C53       1.0  0.9987299999999999  0.3834199999999998  0.6077499999999998  1.0000
  C   C54       1.0  0.9981899999999999  0.32657999999999987  0.6420399999999998  1.0000
  C   C55       1.0  0.3506899999999999  0.75103  0.7492599999999998  1.0000
  C   C56       1.0  0.20978999999999998  0.72161  0.721  1.0000
  C   C57       1.0  0.17257  0.64399  0.64433  1.0000
  C   C58       1.0  0.2256599999999999  0.6174699999999999  0.6164799999999998  1.0000
  C   C59       1.0  0.31705999999999995  0.6747  0.67326  1.0000
  C   C60       1.0  0.9998900000000001  0.60052  0.251  1.0000
  C   C61       1.0  0.9991199999999999  0.48802999999999996  0.27894999999999986  1.0000
  C   C62       1.0  0.0003599999999999378  0.52829  0.3569099999999999  1.0000
  C   C63       1.0  0.0019299999999998997  0.6095299999999998  0.3852399999999999  1.0000
  C   C64       1.0  0.0018800000000000231  0.64402  0.32851  1.0000
  C   C65       1.0  0.25189  0.6004  0.9993599999999999  1.0000
  C   C66       1.0  0.27913  0.48774000000000006  0.99909  1.0000
  C   C67       1.0  0.35693  0.52739  0.00018  1.0000
  C   C68       1.0  0.38495  0.60815  0.0009299999999999998  1.0000
  C   C69       1.0  0.32905999999999996  0.64328  0.00086  1.0000
  C   C70       1.0  0.40059000000000006  0.40021  0.65111  1.0000
  C   C71       1.0  0.51197  0.5124599999999999  0.7925799999999997  1.0000
  C   C72       1.0  0.47247000000000006  0.47226  0.82972  1.0000
  C   C73       1.0  0.39235  0.39122  0.77604  1.0000
  C   C74       1.0  0.35849  0.35691999999999996  0.68456  1.0000
  C   C75       1.0  0.59892  0.25037  0.99901  1.0000
  C   C76       1.0  0.48816  0.28026  0.00023999999999999998  1.0000
  C   C77       1.0  0.52784  0.35695999999999994  0.9998  1.0000
  C   C78       1.0  0.6079199999999999  0.3837099999999999  0.9988799999999999  1.0000
  C   C79       1.0  0.64131  0.32599  0.99816  1.0000
  C   C80       1.0  0.7493799999999999  0.7490699999999999  0.3504599999999999  1.0000
  C   C81       1.0  0.72081  0.72022  0.2093  1.0000
  C   C82       1.0  0.64319  0.64349  0.17159999999999995  1.0000
  C   C83       1.0  0.61567  0.61661  0.22480999999999998  1.0000
  C   C84       1.0  0.67242  0.67334  0.3162599999999999  1.0000
  N   N1        1.0  0.3400699999999998  0.9553799999999998  0.8173799999999998  1.0000
  N   N2        1.0  0.66154  0.4782600000000001  0.6157  1.0000
  N   N3        1.0  0.8611599999999999  0.045649999999999934  0.37863999999999987  1.0000
  N   N4        1.0  0.13903000000000004  0.51785  0.18482  1.0000
  N   N5        1.0  0.52565  0.18088  0.13536  1.0000
  N   N6        1.0  0.04393999999999992  0.38465  0.86252  1.0000
  N   N7        1.0  0.46934  0.6057  0.65036  1.0000
  N   N8        1.0  0.95551  0.81767  0.34024  1.0000
  N   N9        1.0  0.38113  0.86228  0.04663999999999999  1.0000
  N   N10       1.0  0.18188  0.13618  0.52512  1.0000
  N   N11       1.0  0.81735  0.34243  0.95383  1.0000
  N   N12       1.0  0.6098799999999999  0.6550599999999999  0.4740499999999999  1.0000
  N   N13       1.0  0.33419  0.8157  0.9547999999999998  1.0000
  N   N14       1.0  0.65646  0.61169  0.47521  1.0000
  N   N15       1.0  0.86154  0.3851499999999999  0.04416  1.0000
  N   N16       1.0  0.13791  0.18198  0.52381  1.0000
  N   N17       1.0  0.52477  0.1369  0.18121  1.0000
  N   N18       1.0  0.04560999999999994  0.86391  0.3879999999999999  1.0000
  N   N19       1.0  0.4690899999999999  0.6500399999999998  0.60501  1.0000
  N   N20       1.0  0.9538600000000002  0.3421399999999999  0.8181399999999998  1.0000
  N   N21       1.0  0.3883799999999999  0.04571999999999989  0.8639599999999997  1.0000
  N   N22       1.0  0.18463  0.51756  0.13873  1.0000
  N   N23       1.0  0.8151  0.95386  0.33238  1.0000
  N   N24       1.0  0.61558  0.4779399999999999  0.6611799999999998  1.0000
  N   N25       1.0  0.22521  0.00016999999999997678  0.52199  1.0000
  N   N26       1.0  0.34721  0.0022399999999999634  0.72473  1.0000
  N   N27       1.0  0.7746799999999999  0.2971899999999999  0.7743699999999999  1.0000
  N   N28       1.0  0.65287  0.37665  0.65277  1.0000
  N   N29       1.0  0.52398  0.001090000000000006  0.22634  1.0000
  N   N30       1.0  0.7237799999999999  0.9999100000000001  0.3477599999999999  1.0000
  N   N31       1.0  0.47887999999999986  0.7047499999999999  0.47871999999999987  1.0000
  N   N32       1.0  0.27702  0.62383  0.27715  1.0000
  N   N33       1.0  0.7024  0.47828999999999994  0.4771299999999999  1.0000
  N   N34       1.0  0.62197  0.27667  0.27511  1.0000
  N   N35       1.0  0.0009000000000000224  0.22502000000000003  0.52296  1.0000
  N   N36       1.0  0.9976699999999998  0.3455999999999999  0.7229899999999998  1.0000
  N   N37       1.0  0.29933999999999994  0.77759  0.7748999999999998  1.0000
  N   N38       1.0  0.3778200000000001  0.65414  0.65348  1.0000
  N   N39       1.0  0.999  0.52244  0.22384999999999994  1.0000
  N   N40       1.0  0.0018999999999999167  0.72509  0.34782999999999986  1.0000
  N   N41       1.0  0.22457  0.52245  0.9985699999999998  1.0000
  N   N42       1.0  0.34853  0.72449  0.0012199999999999995  1.0000
  N   N43       1.0  0.47775  0.47847999999999996  0.7029499999999997  1.0000
  N   N44       1.0  0.27756999999999993  0.2755799999999999  0.6223899999999998  1.0000
  N   N45       1.0  0.52189  0.22483  0.00012999999999999993  1.0000
  N   N46       1.0  0.72219  0.34477999999999986  0.9978  1.0000
  N   N47       1.0  0.7760799999999999  0.77502  0.2991  1.0000
  N   N48       1.0  0.6528100000000001  0.6538699999999998  0.3777799999999999  1.0000
  O   O1        1.0  0.44487  0.00081  0.00063  1.0000
  O   O2        1.0  0.56066  0.56053  0.56038  1.0000
  O   O3        1.0  0.9991199999999999  0.00032999999999999935  0.44561  1.0000
  O   O4        1.0  0.0007500000000000009  0.44581  0.0008399999999999998  1.0000
