data_image0
_chemical_formula_structural       Cd6H66C102N18O24
_chemical_formula_sum              "Cd6 H66 C102 N18 O24"
_cell_length_a       13.85234
_cell_length_b       18.01392
_cell_length_c       17.99644
_cell_angle_alpha    113.70471
_cell_angle_beta     104.83805
_cell_angle_gamma    104.86798

_symmetry_space_group_name_H-M    'P 1'
_symmetry_Int_Tables_number       1

loop_
  _symmetry_equiv_pos_as_xyz
  'x,y,z'

loop_
  _atom_site_type_symbol
  _atom_site_label
  _atom_site_symmetry_multiplicity
  _atom_site_fract_x
  _atom_site_fract_y
  _atom_site_fract_z
  _atom_site_occupancy
  Cd  Cd1       1.0  0.14923  0.59507  0.22695000000000007  1.0000
  Cd  Cd2       1.0  0.5535999999999998  0.63163  0.40501  1.0000
  Cd  Cd3       1.0  0.92181  0.77302  0.36835000000000007  1.0000
  Cd  Cd4       1.0  0.8507699999999998  0.4049300000000001  0.7730400000000002  1.0000
  Cd  Cd5       1.0  0.4464000000000002  0.36837000000000014  0.5949900000000002  1.0000
  Cd  Cd6       1.0  0.07819999999999999  0.22698  0.63165  1.0000
  H   H1        1.0  0.27561  0.50254  0.47095  1.0000
  H   H2        1.0  0.92536  0.42541  0.3649000000000001  1.0000
  H   H3        1.0  0.95173  0.50138  0.2778400000000001  1.0000
  H   H4        1.0  0.93647  0.29983  0.3808900000000001  1.0000
  H   H5        1.0  0.24592  0.5112  0.59341  1.0000
  H   H6        1.0  0.23382000000000014  0.4267700000000001  0.6725600000000003  1.0000
  H   H7        1.0  0.24948000000000004  0.44991000000000003  0.19045000000000006  1.0000
  H   H8        1.0  0.21511  0.29665  0.07884  1.0000
  H   H9        1.0  0.04552000000000011  0.21212000000000014  0.9364400000000003  1.0000
  H   H10       1.0  0.9176099999999998  0.28698000000000007  0.91302  1.0000
  H   H11       1.0  0.9648699999999997  0.43921  0.030500000000000006  1.0000
  H   H12       1.0  0.7726399999999999  0.9684400000000001  0.4975700000000001  1.0000
  H   H13       1.0  0.49937000000000004  0.93932  0.5746700000000002  1.0000
  H   H14       1.0  0.4500200000000001  0.7765100000000001  0.4988200000000001  1.0000
  H   H15       1.0  0.6370699999999998  0.08186999999999998  0.70089  1.0000
  H   H16       1.0  0.73456  0.08221000000000003  0.4889300000000001  1.0000
  H   H17       1.0  0.80682  0.24562  0.57336  1.0000
  H   H18       1.0  0.7988399999999998  0.7404100000000001  0.5498500000000002  1.0000
  H   H19       1.0  0.9182  0.7823400000000001  0.7032300000000001  1.0000
  H   H20       1.0  0.8332599999999998  0.7241700000000001  0.7876100000000001  1.0000
  H   H21       1.0  0.6304  0.6259  0.7127000000000002  1.0000
  H   H22       1.0  0.52479  0.5911200000000001  0.5604700000000001  1.0000
  H   H23       1.0  0.8047299999999998  0.52907  0.03147  1.0000
  H   H24       1.0  0.56091  0.63545  0.061350000000000016  1.0000
  H   H25       1.0  0.67506  0.72259  0.22418000000000005  1.0000
  H   H26       1.0  0.55517  0.6188100000000001  0.9187500000000002  1.0000
  H   H27       1.0  0.6517800000000002  0.4063600000000001  0.9173900000000003  1.0000
  H   H28       1.0  0.5612200000000002  0.3277800000000002  0.7538700000000003  1.0000
  H   H29       1.0  0.05900000000000004  0.8094  0.2598  1.0000
  H   H30       1.0  0.13601  0.92068  0.21774000000000004  1.0000
  H   H31       1.0  0.10887000000000001  0.06295  0.27575000000000005  1.0000
  H   H32       1.0  0.004350000000000016  0.08637000000000006  0.37414000000000003  1.0000
  H   H33       1.0  0.9340899999999998  0.9690999999999999  0.40904  1.0000
  H   H34       1.0  0.7244000000000002  0.4974600000000001  0.5290500000000002  1.0000
  H   H35       1.0  0.07464000000000014  0.5745900000000003  0.6350900000000003  1.0000
  H   H36       1.0  0.04827000000000002  0.49862000000000006  0.72216  1.0000
  H   H37       1.0  0.06353999999999999  0.7001800000000001  0.6191000000000001  1.0000
  H   H38       1.0  0.7540799999999998  0.4888000000000001  0.4065900000000001  1.0000
  H   H39       1.0  0.7661799999999998  0.57323  0.32744  1.0000
  H   H40       1.0  0.7505299999999999  0.5500900000000001  0.8095500000000002  1.0000
  H   H41       1.0  0.78489  0.7033600000000002  0.9211600000000002  1.0000
  H   H42       1.0  0.9544799999999998  0.78788  0.06356000000000003  1.0000
  H   H43       1.0  0.08240000000000003  0.71303  0.08698000000000003  1.0000
  H   H44       1.0  0.03513000000000011  0.5607900000000002  0.9695000000000003  1.0000
  H   H45       1.0  0.22736999999999996  0.03155999999999996  0.50242  1.0000
  H   H46       1.0  0.5006400000000001  0.06068000000000008  0.4253300000000001  1.0000
  H   H47       1.0  0.5499800000000001  0.22349000000000005  0.50118  1.0000
  H   H48       1.0  0.3629299999999999  0.91813  0.2991100000000001  1.0000
  H   H49       1.0  0.26544999999999996  0.91779  0.51107  1.0000
  H   H50       1.0  0.19318  0.7543800000000002  0.4266300000000001  1.0000
  H   H51       1.0  0.20115999999999995  0.25959  0.45014  1.0000
  H   H52       1.0  0.08181000000000005  0.2176600000000001  0.2967700000000001  1.0000
  H   H53       1.0  0.16674000000000003  0.27583  0.21239000000000005  1.0000
  H   H54       1.0  0.36961  0.3741  0.2873000000000001  1.0000
  H   H55       1.0  0.47521  0.40888  0.4395300000000001  1.0000
  H   H56       1.0  0.19527000000000008  0.4709300000000001  0.9685300000000002  1.0000
  H   H57       1.0  0.43909000000000004  0.3645500000000001  0.9386400000000003  1.0000
  H   H58       1.0  0.32495  0.27742  0.77582  1.0000
  H   H59       1.0  0.44484  0.38119  0.08125  1.0000
  H   H60       1.0  0.34821999999999986  0.59365  0.08261  1.0000
  H   H61       1.0  0.43878  0.67222  0.24613000000000004  1.0000
  H   H62       1.0  0.94101  0.1906000000000001  0.7402000000000002  1.0000
  H   H63       1.0  0.8639899999999999  0.0793300000000001  0.7822600000000002  1.0000
  H   H64       1.0  0.8911299999999999  0.9370499999999999  0.72425  1.0000
  H   H65       1.0  0.9956599999999998  0.91363  0.62586  1.0000
  H   H66       1.0  0.06590999999999998  0.030899999999999962  0.59096  1.0000
  C   C1        1.0  0.2079300000000001  0.5398400000000001  0.3778800000000001  1.0000
  C   C2        1.0  0.20100000000000004  0.50079  0.4302400000000001  1.0000
  C   C3        1.0  0.09871  0.45768  0.42658  1.0000
  C   C4        1.0  0.006910000000000014  0.45708  0.3701000000000001  1.0000
  C   C5        1.0  0.021010000000000098  0.49949000000000005  0.3212800000000001  1.0000
  C   C6        1.0  0.3174800000000001  0.5825100000000001  0.3781500000000001  1.0000
  C   C7        1.0  0.005260000000000039  0.28809000000000007  0.4942200000000001  1.0000
  C   C8        1.0  0.003750000000000091  0.33234000000000014  0.44574000000000014  1.0000
  C   C9        1.0  0.09118000000000001  0.4131600000000001  0.47942  1.0000
  C   C10       1.0  0.1751300000000001  0.4490200000000001  0.5632900000000002  1.0000
  C   C11       1.0  0.1692299999999999  0.40209  0.60835  1.0000
  C   C12       1.0  0.9154100000000002  0.19597000000000006  0.4555400000000001  1.0000
  C   C13       1.0  0.177  0.41074  0.12806  1.0000
  C   C14       1.0  0.15704999999999994  0.32532  0.06566000000000002  1.0000
  C   C15       1.0  0.06300000000000008  0.27888000000000013  0.9866200000000003  1.0000
  C   C16       1.0  0.9923299999999998  0.31956000000000007  0.9728400000000003  1.0000
  C   C17       1.0  0.018240000000000003  0.40541  0.03854  1.0000
  C   C18       1.0  0.6677099999999998  0.8379499999999999  0.46021  1.0000
  C   C19       1.0  0.6997699999999998  0.9293899999999999  0.49924000000000013  1.0000
  C   C20       1.0  0.6406799999999998  0.96893  0.54248  1.0000
  C   C21       1.0  0.54947  0.91307  0.54309  1.0000
  C   C22       1.0  0.52116  0.82184  0.50066  1.0000
  C   C23       1.0  0.73474  0.79543  0.4177200000000001  1.0000
  C   C24       1.0  0.7173899999999999  0.20650000000000002  0.7122900000000001  1.0000
  C   C25       1.0  0.67151  0.11378999999999995  0.66801  1.0000
  C   C26       1.0  0.6777999999999998  0.06634000000000013  0.5870400000000002  1.0000
  C   C27       1.0  0.7260100000000002  0.1142400000000001  0.5511900000000002  1.0000
  C   C28       1.0  0.7670399999999999  0.20623000000000014  0.5981200000000002  1.0000
  C   C29       1.0  0.7202599999999999  0.2599200000000002  0.8047000000000002  1.0000
  C   C30       1.0  0.76571  0.71721  0.58908  1.0000
  C   C31       1.0  0.8314300000000001  0.7403600000000001  0.6745100000000003  1.0000
  C   C32       1.0  0.78385  0.70762  0.7208600000000002  1.0000
  C   C33       1.0  0.6724199999999998  0.65315  0.68011  1.0000
  C   C34       1.0  0.61213  0.63291  0.5943  1.0000
  C   C35       1.0  0.8307699999999999  0.62239  0.16202000000000005  1.0000
  C   C36       1.0  0.7709299999999998  0.56979  0.07055000000000003  1.0000
  C   C37       1.0  0.67215  0.57336  0.031220000000000008  1.0000
  C   C38       1.0  0.6371799999999997  0.63  0.08739000000000002  1.0000
  C   C39       1.0  0.7005000000000002  0.6789600000000001  0.17859000000000005  1.0000
  C   C40       1.0  0.94039  0.62246  0.20443000000000006  1.0000
  C   C41       1.0  0.51066  0.50569  0.79367  1.0000
  C   C42       1.0  0.55767  0.55406  0.8864800000000003  1.0000
  C   C43       1.0  0.6115000000000002  0.5205300000000002  0.9337300000000002  1.0000
  C   C44       1.0  0.6113900000000001  0.43668  0.88552  1.0000
  C   C45       1.0  0.5608  0.3918800000000001  0.7934500000000002  1.0000
  C   C46       1.0  0.45924999999999994  0.5444200000000001  0.7404300000000003  1.0000
  C   C47       1.0  0.04887999999999999  0.8717  0.2829600000000001  1.0000
  C   C48       1.0  0.09123000000000005  0.9339  0.25975000000000004  1.0000
  C   C49       1.0  0.07621000000000006  0.012870000000000045  0.2924000000000001  1.0000
  C   C50       1.0  0.019300000000000067  0.026620000000000074  0.3469200000000001  1.0000
  C   C51       1.0  0.9795499999999999  0.9611200000000001  0.3672200000000001  1.0000
  C   C52       1.0  0.7920799999999999  0.46017000000000013  0.6221200000000001  1.0000
  C   C53       1.0  0.7990099999999998  0.49922000000000016  0.5697600000000003  1.0000
  C   C54       1.0  0.9012999999999999  0.5423200000000002  0.5734200000000003  1.0000
  C   C55       1.0  0.9930900000000005  0.54292  0.6299  1.0000
  C   C56       1.0  0.97899  0.50051  0.67872  1.0000
  C   C57       1.0  0.68253  0.41749000000000014  0.6218500000000002  1.0000
  C   C58       1.0  0.9947499999999998  0.71191  0.50578  1.0000
  C   C59       1.0  0.9962599999999999  0.66767  0.55426  1.0000
  C   C60       1.0  0.9088299999999999  0.5868400000000001  0.5205800000000002  1.0000
  C   C61       1.0  0.8248699999999998  0.55098  0.43671000000000004  1.0000
  C   C62       1.0  0.8307799999999996  0.5979100000000002  0.3916400000000001  1.0000
  C   C63       1.0  0.08459999999999995  0.80403  0.54445  1.0000
  C   C64       1.0  0.8229999999999997  0.58926  0.87194  1.0000
  C   C65       1.0  0.8429599999999999  0.67468  0.93434  1.0000
  C   C66       1.0  0.93701  0.72112  0.01338  1.0000
  C   C67       1.0  0.007670000000000028  0.68045  0.027160000000000007  1.0000
  C   C68       1.0  0.9817599999999997  0.5945900000000001  0.9614600000000002  1.0000
  C   C69       1.0  0.33229  0.16205000000000014  0.5397900000000002  1.0000
  C   C70       1.0  0.3002299999999998  0.07061  0.50076  1.0000
  C   C71       1.0  0.35932999999999987  0.031069999999999997  0.45752  1.0000
  C   C72       1.0  0.45054  0.08694000000000006  0.4569100000000001  1.0000
  C   C73       1.0  0.47885  0.1781600000000001  0.4993400000000001  1.0000
  C   C74       1.0  0.26526  0.20458  0.58228  1.0000
  C   C75       1.0  0.28261  0.7935000000000001  0.28771000000000013  1.0000
  C   C76       1.0  0.32849000000000006  0.8862100000000002  0.3319900000000001  1.0000
  C   C77       1.0  0.32221  0.93367  0.4129600000000001  1.0000
  C   C78       1.0  0.2739999999999999  0.88576  0.4488  1.0000
  C   C79       1.0  0.23296999999999998  0.79377  0.4018800000000001  1.0000
  C   C80       1.0  0.27974  0.74008  0.1953  1.0000
  C   C81       1.0  0.2343  0.28279000000000004  0.4109200000000001  1.0000
  C   C82       1.0  0.16858  0.25964  0.32549000000000006  1.0000
  C   C83       1.0  0.21615  0.29238  0.27914  1.0000
  C   C84       1.0  0.32758  0.34686  0.31989  1.0000
  C   C85       1.0  0.3878799999999999  0.36709  0.4057  1.0000
  C   C86       1.0  0.16923000000000005  0.3776100000000001  0.8379800000000002  1.0000
  C   C87       1.0  0.22907000000000008  0.43021000000000015  0.9294400000000003  1.0000
  C   C88       1.0  0.32785  0.42664000000000013  0.9687800000000002  1.0000
  C   C89       1.0  0.36282999999999993  0.37  0.91261  1.0000
  C   C90       1.0  0.29950000000000004  0.3210400000000001  0.8214100000000002  1.0000
  C   C91       1.0  0.05962000000000013  0.3775500000000001  0.7955700000000002  1.0000
  C   C92       1.0  0.48934999999999995  0.49431  0.20633  1.0000
  C   C93       1.0  0.44233  0.44593999999999995  0.11352  1.0000
  C   C94       1.0  0.3885  0.47947000000000006  0.06627  1.0000
  C   C95       1.0  0.3886199999999999  0.56332  0.11448000000000003  1.0000
  C   C96       1.0  0.4392  0.60812  0.20655000000000007  1.0000
  C   C97       1.0  0.54075  0.4555800000000001  0.25957000000000013  1.0000
  C   C98       1.0  0.9511199999999999  0.12830000000000008  0.7170400000000002  1.0000
  C   C99       1.0  0.9087699999999999  0.06610000000000014  0.7402500000000002  1.0000
  C   C100      1.0  0.9237999999999997  0.98713  0.7076000000000002  1.0000
  C   C101      1.0  0.9807099999999999  0.9733800000000001  0.6530800000000002  1.0000
  C   C102      1.0  0.020460000000000096  0.038890000000000105  0.6327800000000002  1.0000
  N   N1        1.0  0.11935000000000004  0.53941  0.3241300000000001  1.0000
  N   N2        1.0  0.08715000000000007  0.3229800000000001  0.5738300000000002  1.0000
  N   N3        1.0  0.10889  0.45029  0.11493000000000003  1.0000
  N   N4        1.0  0.5795600000000001  0.78471  0.46072000000000013  1.0000
  N   N5        1.0  0.76421  0.25108  0.67729  1.0000
  N   N6        1.0  0.6580100000000002  0.66449  0.5495300000000002  1.0000
  N   N7        1.0  0.7959699999999997  0.6760600000000002  0.21549000000000004  1.0000
  N   N8        1.0  0.5131400000000002  0.42625000000000013  0.7487900000000002  1.0000
  N   N9        1.0  0.99394  0.88483  0.33574  1.0000
  N   N10       1.0  0.8806599999999998  0.4605900000000002  0.6758700000000002  1.0000
  N   N11       1.0  0.91285  0.67702  0.4261700000000001  1.0000
  N   N12       1.0  0.89111  0.54971  0.8850700000000002  1.0000
  N   N13       1.0  0.4204499999999999  0.21528999999999998  0.53928  1.0000
  N   N14       1.0  0.23579999999999998  0.74892  0.3227100000000001  1.0000
  N   N15       1.0  0.34199000000000007  0.33551000000000003  0.45047000000000004  1.0000
  N   N16       1.0  0.20404000000000005  0.3239400000000001  0.7845100000000003  1.0000
  N   N17       1.0  0.4868699999999999  0.57375  0.25121  1.0000
  N   N18       1.0  0.0060699999999999895  0.11516999999999994  0.66426  1.0000
  O   O1        1.0  0.31995  0.60647  0.32132  1.0000
  O   O2        1.0  0.40071  0.59001  0.4359900000000001  1.0000
  O   O3        1.0  0.9334600000000001  0.15198000000000003  0.4953900000000001  1.0000
  O   O4        1.0  0.8332599999999998  0.17069  0.38833  1.0000
  O   O5        1.0  0.7141499999999998  0.715  0.39500000000000013  1.0000
  O   O6        1.0  0.8096399999999998  0.8453099999999999  0.40912  1.0000
  O   O7        1.0  0.7810799999999999  0.3440000000000001  0.8482700000000002  1.0000
  O   O8        1.0  0.66528  0.21759000000000014  0.8306900000000003  1.0000
  O   O9        1.0  0.9994999999999999  0.67899  0.2854  1.0000
  O   O10       1.0  0.9659499999999998  0.56492  0.15382  1.0000
  O   O11       1.0  0.43538000000000004  0.5037800000000001  0.6561800000000001  1.0000
  O   O12       1.0  0.44591  0.6123  0.7830000000000001  1.0000
  O   O13       1.0  0.68006  0.39353  0.67868  1.0000
  O   O14       1.0  0.5992999999999998  0.40999  0.564  1.0000
  O   O15       1.0  0.06654000000000002  0.84803  0.50461  1.0000
  O   O16       1.0  0.16674000000000003  0.82931  0.61167  1.0000
  O   O17       1.0  0.28586  0.285  0.60499  1.0000
  O   O18       1.0  0.19037000000000007  0.15469000000000005  0.5908800000000002  1.0000
  O   O19       1.0  0.21891999999999998  0.6559999999999999  0.15173  1.0000
  O   O20       1.0  0.33473  0.78241  0.16931000000000004  1.0000
  O   O21       1.0  0.0005100000000000191  0.32101  0.7146  1.0000
  O   O22       1.0  0.034050000000000115  0.4350900000000001  0.8461800000000003  1.0000
  O   O23       1.0  0.5646199999999999  0.49622999999999995  0.3438100000000001  1.0000
  O   O24       1.0  0.5540899999999999  0.3877  0.21699000000000004  1.0000
