data_image0
_chemical_formula_structural       Cd8H40C74O40
_chemical_formula_sum              "Cd8 H40 C74 O40"
_cell_length_a       12.57832
_cell_length_b       18.64028
_cell_length_c       19.11683
_cell_angle_alpha    89.95889
_cell_angle_beta     90.0
_cell_angle_gamma    90.0

_space_group_name_H-M_alt    "P 1"
_space_group_IT_number       1

loop_
  _space_group_symop_operation_xyz
  'x, y, z'

loop_
  _atom_site_type_symbol
  _atom_site_label
  _atom_site_symmetry_multiplicity
  _atom_site_fract_x
  _atom_site_fract_y
  _atom_site_fract_z
  _atom_site_occupancy
  Cd  Cd1       1.0  0.37940000000000007  0.72576  0.74677  1.0000
  Cd  Cd2       1.0  0.5400200000000001  0.8106999999999999  0.66972  1.0000
  Cd  Cd3       1.0  0.37940000000000007  0.27424  0.25323  1.0000
  Cd  Cd4       1.0  0.5400200000000001  0.1893  0.33029000000000003  1.0000
  Cd  Cd5       1.0  0.6212  0.77534  0.24650000000000002  1.0000
  Cd  Cd6       1.0  0.46196  0.68994  0.16963  1.0000
  Cd  Cd7       1.0  0.6212  0.22465  0.7535  1.0000
  Cd  Cd8       1.0  0.46196  0.31005  0.83037  1.0000
  H   H1        1.0  0.7254300000000002  0.6315399999999998  0.61507  1.0000
  H   H2        1.0  0.8183900000000002  0.4108399999999999  0.6489100000000001  1.0000
  H   H3        1.0  0.54772  0.49767999999999996  0.75663  1.0000
  H   H4        1.0  0.88498  0.4318199999999999  0.54746  1.0000
  H   H5        1.0  0.9812000000000001  0.4651  0.60808  1.0000
  H   H6        1.0  0.4579500000000001  0.75586  0.44321000000000005  1.0000
  H   H7        1.0  0.23326000000000002  0.61342  0.34486  1.0000
  H   H8        1.0  0.21081  0.65852  0.56608  1.0000
  H   H9        1.0  0.026040000000000004  0.60968  0.53813  1.0000
  H   H10       1.0  0.13228000000000004  0.54869  0.55791  1.0000
  H   H11       1.0  0.7254300000000002  0.36845  0.38493  1.0000
  H   H12       1.0  0.8183900000000002  0.58916  0.3511  1.0000
  H   H13       1.0  0.54772  0.50232  0.24338000000000004  1.0000
  H   H14       1.0  0.88498  0.56817  0.45254  1.0000
  H   H15       1.0  0.9812000000000001  0.53489  0.39192000000000005  1.0000
  H   H16       1.0  0.4579500000000001  0.24413999999999997  0.55679  1.0000
  H   H17       1.0  0.23326000000000002  0.38658  0.65514  1.0000
  H   H18       1.0  0.21081  0.34148  0.43393  1.0000
  H   H19       1.0  0.026040000000000004  0.3903199999999999  0.46187000000000006  1.0000
  H   H20       1.0  0.13228000000000004  0.45131  0.44209000000000004  1.0000
  H   H21       1.0  0.27434  0.8688  0.11509  1.0000
  H   H22       1.0  0.18208000000000002  0.08953  0.1491  1.0000
  H   H23       1.0  0.45264  0.00208  0.25669  1.0000
  H   H24       1.0  0.11531000000000002  0.06896  0.04696  1.0000
  H   H25       1.0  0.019110000000000002  0.03578  0.10775  1.0000
  H   H26       1.0  0.54347  0.74466  0.94144  1.0000
  H   H27       1.0  0.7693500000000002  0.8872899999999999  0.84466  1.0000
  H   H28       1.0  0.78801  0.84247  0.06617  1.0000
  H   H29       1.0  0.97512  0.88997  0.03728  1.0000
  H   H30       1.0  0.86965  0.95085  0.058910000000000004  1.0000
  H   H31       1.0  0.27434  0.1312  0.88491  1.0000
  H   H32       1.0  0.18208000000000002  0.91047  0.85091  1.0000
  H   H33       1.0  0.45264  0.99792  0.7433100000000001  1.0000
  H   H34       1.0  0.11531000000000002  0.93104  0.95304  1.0000
  H   H35       1.0  0.019110000000000002  0.96422  0.89225  1.0000
  H   H36       1.0  0.54347  0.25534  0.05856  1.0000
  H   H37       1.0  0.7693500000000002  0.11271  0.15534  1.0000
  H   H38       1.0  0.78801  0.15753  0.9338300000000002  1.0000
  H   H39       1.0  0.97512  0.11003  0.96272  1.0000
  H   H40       1.0  0.86965  0.04915  0.9411  1.0000
  C   C1        1.0  0.5566900000000001  0.6344999999999998  0.70015  1.0000
  C   C2        1.0  0.62847  0.57128  0.68719  1.0000
  C   C3        1.0  0.7134  0.5801399999999999  0.64063  1.0000
  C   C4        1.0  0.7824700000000002  0.5231  0.62634  1.0000
  C   C5        1.0  0.76703  0.45651  0.6587000000000001  1.0000
  C   C6        1.0  0.6823  0.44803999999999994  0.7058  1.0000
  C   C7        1.0  0.61303  0.50504  0.72024  1.0000
  C   C8        1.0  0.93226  0.47897  0.56251  1.0000
  C   C9        1.0  0.66188  0.37711  0.74005  1.0000
  C   C10       1.0  0.38107000000000013  0.74393  0.57592  1.0000
  C   C11       1.0  0.33783  0.71076  0.5104  1.0000
  C   C12       1.0  0.38868  0.72131  0.44636000000000003  1.0000
  C   C13       1.0  0.35055000000000003  0.68619  0.3864  1.0000
  C   C14       1.0  0.26215  0.64118  0.39104  1.0000
  C   C15       1.0  0.21129000000000006  0.63088  0.45563  1.0000
  C   C16       1.0  0.24833  0.66565  0.51541  1.0000
  C   C17       1.0  0.40729  0.6962599999999998  0.31807  1.0000
  C   C18       1.0  0.07372  0.5647  0.51817  1.0000
  C   C19       1.0  0.5566900000000001  0.36549999999999994  0.29985  1.0000
  C   C20       1.0  0.62847  0.42872  0.31281  1.0000
  C   C21       1.0  0.7134  0.41985  0.35937  1.0000
  C   C22       1.0  0.7824700000000002  0.4769  0.37366  1.0000
  C   C23       1.0  0.76703  0.54348  0.34131  1.0000
  C   C24       1.0  0.68229  0.55195  0.29421  1.0000
  C   C25       1.0  0.61303  0.49496  0.27976  1.0000
  C   C26       1.0  0.93226  0.52103  0.43749000000000005  1.0000
  C   C27       1.0  0.66188  0.62288  0.25995  1.0000
  C   C28       1.0  0.38107000000000013  0.25606999999999996  0.42408  1.0000
  C   C29       1.0  0.33783  0.28924  0.48960999999999993  1.0000
  C   C30       1.0  0.38868  0.27869  0.55365  1.0000
  C   C31       1.0  0.35055000000000003  0.31381  0.61361  1.0000
  C   C32       1.0  0.26215  0.3588199999999999  0.6089600000000001  1.0000
  C   C33       1.0  0.21129000000000006  0.3691199999999999  0.54437  1.0000
  C   C34       1.0  0.24833  0.3343399999999999  0.4845900000000001  1.0000
  C   C35       1.0  0.40729  0.30374  0.68194  1.0000
  C   C36       1.0  0.07372  0.43529999999999996  0.48184  1.0000
  C   C37       1.0  0.4437900000000001  0.86626  0.2  1.0000
  C   C38       1.0  0.3715  0.9290399999999999  0.18716  1.0000
  C   C39       1.0  0.28652000000000005  0.9201699999999999  0.14067  1.0000
  C   C40       1.0  0.21774000000000004  0.9774099999999999  0.12647  1.0000
  C   C41       1.0  0.23325  0.04379  0.15901  1.0000
  C   C42       1.0  0.31781000000000004  0.05202  0.20631  1.0000
  C   C43       1.0  0.387  0.9950199999999999  0.22051  1.0000
  C   C44       1.0  0.06826  0.02179  0.06232  1.0000
  C   C45       1.0  0.33825  0.12296  0.24019  1.0000
  C   C46       1.0  0.61928  0.7564499999999997  0.0753  1.0000
  C   C47       1.0  0.66254  0.7896399999999998  0.009710000000000002  1.0000
  C   C48       1.0  0.61273  0.77914  0.9453400000000001  1.0000
  C   C49       1.0  0.6517  0.81459  0.8857299999999999  1.0000
  C   C50       1.0  0.73983  0.85962  0.89077  1.0000
  C   C51       1.0  0.78931  0.8700399999999999  0.9557  1.0000
  C   C52       1.0  0.75154  0.83514  0.015230000000000002  1.0000
  C   C53       1.0  0.59576  0.8050299999999999  0.81724  1.0000
  C   C54       1.0  0.92727  0.9353999999999999  0.01843  1.0000
  C   C55       1.0  0.4437900000000001  0.13374  0.80001  1.0000
  C   C56       1.0  0.3715  0.07096  0.81284  1.0000
  C   C57       1.0  0.28652000000000005  0.07983  0.85933  1.0000
  C   C58       1.0  0.21774000000000004  0.02259  0.8735400000000001  1.0000
  C   C59       1.0  0.23325  0.9562099999999999  0.8409900000000001  1.0000
  C   C60       1.0  0.31781000000000004  0.9479799999999998  0.79369  1.0000
  C   C61       1.0  0.387  0.00498  0.77949  1.0000
  C   C62       1.0  0.06826  0.97821  0.9376899999999999  1.0000
  C   C63       1.0  0.33825  0.8770399999999999  0.75982  1.0000
  C   C64       1.0  0.61928  0.24355  0.9247  1.0000
  C   C65       1.0  0.66254  0.21036  0.99029  1.0000
  C   C66       1.0  0.61273  0.22086  0.05466000000000001  1.0000
  C   C67       1.0  0.6517  0.18541  0.11427  1.0000
  C   C68       1.0  0.73983  0.14038  0.10924000000000002  1.0000
  C   C69       1.0  0.7893  0.12996  0.04431  1.0000
  C   C70       1.0  0.75154  0.16485  0.98477  1.0000
  C   C71       1.0  0.59576  0.19497  0.18277  1.0000
  C   C72       1.0  0.92727  0.0646  0.9815800000000001  1.0000
  C   C73       1.0  0.00248  0.5  0.5  1.0000
  C   C74       1.0  0.99836  0.0  0.0  1.0000
  O   O1        1.0  0.33403  0.72718  0.63259  1.0000
  O   O2        1.0  0.46249  0.7854199999999999  0.56975  1.0000
  O   O3        1.0  0.47105  0.62485  0.73592  1.0000
  O   O4        1.0  0.58704  0.69369  0.6738  1.0000
  O   O5        1.0  0.36804  0.6650899999999998  0.26354  1.0000
  O   O6        1.0  0.4905  0.73462  0.31942  1.0000
  O   O7        1.0  0.59774  0.3777799999999999  0.79152  1.0000
  O   O8        1.0  0.7083400000000002  0.32072  0.71554  1.0000
  O   O9        1.0  0.12622  0.58483  0.45405  1.0000
  O   O10       1.0  0.86273  0.5378399999999999  0.57951  1.0000
  O   O11       1.0  0.33403  0.27282  0.36741  1.0000
  O   O12       1.0  0.46249  0.21458  0.4302500000000001  1.0000
  O   O13       1.0  0.47105  0.37515  0.26409  1.0000
  O   O14       1.0  0.58704  0.30631  0.32621  1.0000
  O   O15       1.0  0.36804  0.3349  0.73646  1.0000
  O   O16       1.0  0.4905  0.26538  0.68059  1.0000
  O   O17       1.0  0.59774  0.62221  0.20848  1.0000
  O   O18       1.0  0.7083400000000002  0.67928  0.28447  1.0000
  O   O19       1.0  0.12622  0.41517  0.54595  1.0000
  O   O20       1.0  0.86273  0.46216  0.42049000000000003  1.0000
  O   O21       1.0  0.6653500000000002  0.7742  0.13208  1.0000
  O   O22       1.0  0.53894  0.71401  0.06937  1.0000
  O   O23       1.0  0.52939  0.87639  0.23563  1.0000
  O   O24       1.0  0.41361  0.8070099999999999  0.17371000000000003  1.0000
  O   O25       1.0  0.63514  0.83654  0.7629  1.0000
  O   O26       1.0  0.51263  0.76673  0.81827  1.0000
  O   O27       1.0  0.40243  0.12347999999999999  0.29156  1.0000
  O   O28       1.0  0.29133  0.17888  0.21513  1.0000
  O   O29       1.0  0.87359  0.91661  0.95446  1.0000
  O   O30       1.0  0.13772000000000004  0.96316  0.0795  1.0000
  O   O31       1.0  0.6653500000000002  0.22578999999999996  0.86793  1.0000
  O   O32       1.0  0.53894  0.28599  0.93063  1.0000
  O   O33       1.0  0.52939  0.12360999999999998  0.76437  1.0000
  O   O34       1.0  0.41361  0.19298  0.82629  1.0000
  O   O35       1.0  0.63514  0.16346  0.2371  1.0000
  O   O36       1.0  0.51263  0.23326999999999998  0.18174  1.0000
  O   O37       1.0  0.40243  0.8765199999999999  0.70845  1.0000
  O   O38       1.0  0.29133  0.82112  0.78488  1.0000
  O   O39       1.0  0.87359  0.08338999999999998  0.04554  1.0000
  O   O40       1.0  0.13772000000000004  0.03684  0.9205  1.0000
