data_image0
_chemical_formula_structural       Zn4H80C88N24O16
_chemical_formula_sum              "Zn4 H80 C88 N24 O16"
_cell_length_a       7.3305
_cell_length_b       19.38277
_cell_length_c       19.72869
_cell_angle_alpha    90.00683
_cell_angle_beta     89.99681
_cell_angle_gamma    89.77114

_space_group_name_H-M_alt    "P 1"
_space_group_IT_number       1

loop_
  _space_group_symop_operation_xyz
  'x, y, z'

loop_
  _atom_site_type_symbol
  _atom_site_label
  _atom_site_symmetry_multiplicity
  _atom_site_fract_x
  _atom_site_fract_y
  _atom_site_fract_z
  _atom_site_occupancy
  Zn  Zn1       1.0  0.51132  0.50511  0.50259  1.0000
  Zn  Zn2       1.0  0.49431999999999987  0.49511  0.0023  1.0000
  Zn  Zn3       1.0  0.48759999999999987  0.00748  0.50232  1.0000
  Zn  Zn4       1.0  0.5079299999999998  0.9946400000000001  0.00192  1.0000
  H   H1        1.0  0.57784  0.73913  0.47838  1.0000
  H   H2        1.0  0.8128499999999997  0.6505900000000001  0.44891  1.0000
  H   H3        1.0  0.23354999999999995  0.8041000000000003  0.47687  1.0000
  H   H4        1.0  0.9934199999999997  0.89352  0.49579  1.0000
  H   H5        1.0  0.9791599999999998  0.5628200000000002  0.52165  1.0000
  H   H6        1.0  0.05349000000000001  0.63098  0.57603  1.0000
  H   H7        1.0  0.17913999999999997  0.55151  0.57241  1.0000
  H   H8        1.0  0.39279999999999987  0.7802100000000002  0.3721  1.0000
  H   H9        1.0  0.20167999999999994  0.7456200000000002  0.32873  1.0000
  H   H10       1.0  0.42670999999999987  0.7143100000000002  0.31013  1.0000
  H   H11       1.0  0.32534  0.5305  0.7652  1.0000
  H   H12       1.0  0.08559  0.54305  0.67641  1.0000
  H   H13       1.0  0.6691899999999998  0.5152700000000001  0.8286999999999999  1.0000
  H   H14       1.0  0.90986  0.5092400000000002  0.91764  1.0000
  H   H15       1.0  0.7346799999999998  0.40521000000000007  0.58442  1.0000
  H   H16       1.0  0.82655  0.4031  0.66881  1.0000
  H   H17       1.0  0.94779  0.44551  0.6032  1.0000
  H   H18       1.0  0.4813899999999999  0.6844  0.72298  1.0000
  H   H19       1.0  0.7082  0.6716500000000001  0.7541  1.0000
  H   H20       1.0  0.52513  0.6250900000000001  0.79089  1.0000
  H   H21       1.0  0.42263999999999996  0.26028  0.9789700000000001  1.0000
  H   H22       1.0  0.1889  0.34933  0.9491299999999999  1.0000
  H   H23       1.0  0.76563  0.19684  0.97673  1.0000
  H   H24       1.0  0.004109999999999999  0.10696000000000001  0.9965899999999999  1.0000
  H   H25       1.0  0.02503  0.43735000000000007  0.0214  1.0000
  H   H26       1.0  0.9483199999999998  0.36963  0.07585  1.0000
  H   H27       1.0  0.82459  0.4495  0.07168  1.0000
  H   H28       1.0  0.60617  0.22003  0.87313  1.0000
  H   H29       1.0  0.7970599999999998  0.25385  0.82905  1.0000
  H   H30       1.0  0.5722699999999997  0.28553  0.81079  1.0000
  H   H31       1.0  0.6760699999999997  0.46873  0.26521  1.0000
  H   H32       1.0  0.9151  0.45648  0.17603  1.0000
  H   H33       1.0  0.33295999999999987  0.48406  0.32795  1.0000
  H   H34       1.0  0.09333999999999998  0.4900300000000001  0.41708  1.0000
  H   H35       1.0  0.26757  0.59416  0.0835  1.0000
  H   H36       1.0  0.17791999999999997  0.59686  0.16818  1.0000
  H   H37       1.0  0.05453  0.55438  0.10318999999999999  1.0000
  H   H38       1.0  0.51849  0.3149  0.2227  1.0000
  H   H39       1.0  0.29149999999999987  0.32804  0.25355  1.0000
  H   H40       1.0  0.4748999999999999  0.3742800000000001  0.29057  1.0000
  H   H41       1.0  0.42194999999999994  0.23841000000000004  0.4794399999999999  1.0000
  H   H42       1.0  0.18789  0.15005  0.44974  1.0000
  H   H43       1.0  0.7655199999999998  0.30428  0.47576  1.0000
  H   H44       1.0  0.004309999999999997  0.3934700000000001  0.4952  1.0000
  H   H45       1.0  0.01765  0.06285  0.52288  1.0000
  H   H46       1.0  0.94281  0.13183  0.57645  1.0000
  H   H47       1.0  0.8159699999999998  0.05305  0.57297  1.0000
  H   H48       1.0  0.61002  0.2808900000000001  0.36994  1.0000
  H   H49       1.0  0.80266  0.24546000000000004  0.32778  1.0000
  H   H50       1.0  0.57849  0.21461  0.30831  1.0000
  H   H51       1.0  0.6750199999999997  0.030720000000000004  0.76608  1.0000
  H   H52       1.0  0.9138799999999999  0.04409000000000001  0.6771  1.0000
  H   H53       1.0  0.33255  0.014800000000000002  0.8284  1.0000
  H   H54       1.0  0.09338999999999997  0.008160000000000002  0.91764  1.0000
  H   H55       1.0  0.2667599999999999  0.90793  0.58255  1.0000
  H   H56       1.0  0.17612999999999995  0.90465  0.66706  1.0000
  H   H57       1.0  0.05287  0.94784  0.60222  1.0000
  H   H58       1.0  0.5146399999999998  0.18526  0.72478  1.0000
  H   H59       1.0  0.28866999999999987  0.17173  0.75623  1.0000
  H   H60       1.0  0.4735999999999999  0.12474000000000002  0.79178  1.0000
  H   H61       1.0  0.57874  0.7615100000000002  0.9799699999999999  1.0000
  H   H62       1.0  0.8121399999999999  0.8503400000000001  0.95097  1.0000
  H   H63       1.0  0.23558999999999994  0.6963500000000002  0.9762299999999999  1.0000
  H   H64       1.0  0.99767  0.60688  0.99569  1.0000
  H   H65       1.0  0.9794199999999997  0.93757  0.02355  1.0000
  H   H66       1.0  0.05634999999999998  0.8689400000000002  0.07715  1.0000
  H   H67       1.0  0.18102999999999994  0.94822  0.07341  1.0000
  H   H68       1.0  0.3916999999999999  0.71986  0.8720100000000001  1.0000
  H   H69       1.0  0.19918999999999995  0.7546000000000003  0.82911  1.0000
  H   H70       1.0  0.4233699999999999  0.78564  0.80985  1.0000
  H   H71       1.0  0.32382999999999995  0.9687200000000001  0.26545  1.0000
  H   H72       1.0  0.08492999999999998  0.95548  0.17633  1.0000
  H   H73       1.0  0.66661  0.98473  0.32773  1.0000
  H   H74       1.0  0.9057299999999998  0.99138  0.4169999999999999  1.0000
  H   H75       1.0  0.73197  0.09233000000000001  0.08242  1.0000
  H   H76       1.0  0.8212699999999997  0.09577000000000002  0.16711  1.0000
  H   H77       1.0  0.9455699999999998  0.05260000000000001  0.10252  1.0000
  H   H78       1.0  0.4845299999999999  0.81454  0.22382  1.0000
  H   H79       1.0  0.7107199999999998  0.82814  0.25502  1.0000
  H   H80       1.0  0.52581  0.87473  0.29111  1.0000
  C   C1        1.0  0.6264  0.87501  0.50413  1.0000
  C   C2        1.0  0.77051  0.8217700000000002  0.48856999999999995  1.0000
  C   C3        1.0  0.72121  0.75314  0.47607  1.0000
  C   C4        1.0  0.8529599999999998  0.70328  0.46081  1.0000
  C   C5        1.0  0.03670999999999998  0.7227200000000003  0.46115  1.0000
  C   C6        1.0  0.08954999999999999  0.7906  0.47452  1.0000
  C   C7        1.0  0.9554699999999999  0.8402200000000002  0.48671  1.0000
  C   C8        1.0  0.09961  0.5888400000000003  0.54295  1.0000
  C   C9        1.0  0.21593999999999994  0.61561  0.48771999999999993  1.0000
  C   C10       1.0  0.3196799999999999  0.67774  0.40236  1.0000
  C   C11       1.0  0.33549  0.7327  0.35031  1.0000
  C   C12       1.0  0.2823299999999999  0.51693  0.89852  1.0000
  C   C13       1.0  0.13311999999999996  0.5188400000000001  0.84679  1.0000
  C   C14       1.0  0.18162  0.52777  0.77857  1.0000
  C   C15       1.0  0.04817999999999999  0.53396  0.7289  1.0000
  C   C16       1.0  0.8644299999999998  0.52927  0.74772  1.0000
  C   C17       1.0  0.81277  0.51891  0.8150099999999999  1.0000
  C   C18       1.0  0.9482599999999998  0.51461  0.8646900000000001  1.0000
  C   C19       1.0  0.81062  0.4345200000000001  0.62286  1.0000
  C   C20       1.0  0.70878  0.49872000000000005  0.6386  1.0000
  C   C21       1.0  0.60215  0.59129  0.69126  1.0000
  C   C22       1.0  0.5778899999999998  0.6462100000000001  0.74294  1.0000
  C   C23       1.0  0.3702799999999999  0.12427  0.00427  1.0000
  C   C24       1.0  0.22814999999999994  0.17824  0.98935  1.0000
  C   C25       1.0  0.27898  0.24664  0.97664  1.0000
  C   C26       1.0  0.14815999999999993  0.29673  0.96109  1.0000
  C   C27       1.0  0.9641999999999997  0.27762  0.96119  1.0000
  C   C28       1.0  0.9098999999999998  0.20999  0.9747599999999998  1.0000
  C   C29       1.0  0.04289  0.16015  0.9874000000000002  1.0000
  C   C30       1.0  0.9036499999999997  0.41178  0.04251  1.0000
  C   C31       1.0  0.78721  0.3851200000000001  0.9872499999999998  1.0000
  C   C32       1.0  0.6813099999999997  0.3226  0.9024700000000001  1.0000
  C   C33       1.0  0.6638699999999997  0.2672500000000001  0.85088  1.0000
  C   C34       1.0  0.7213199999999997  0.48283  0.39868  1.0000
  C   C35       1.0  0.8692  0.48039000000000004  0.34649  1.0000
  C   C36       1.0  0.81994  0.47147  0.27837  1.0000
  C   C37       1.0  0.9529699999999998  0.46545000000000003  0.2285  1.0000
  C   C38       1.0  0.13688  0.47016  0.24712  1.0000
  C   C39       1.0  0.18924999999999992  0.48042000000000007  0.31436  1.0000
  C   C40       1.0  0.054249999999999986  0.48469000000000007  0.36419  1.0000
  C   C41       1.0  0.19233999999999996  0.56515  0.12234999999999999  1.0000
  C   C42       1.0  0.2936499999999999  0.50084  0.13812  1.0000
  C   C43       1.0  0.3990899999999999  0.40819  0.1909  1.0000
  C   C44       1.0  0.4222599999999999  0.35323  0.24256999999999998  1.0000
  C   C45       1.0  0.37058999999999986  0.37461  0.50428  1.0000
  C   C46       1.0  0.22790999999999995  0.3213  0.48891  1.0000
  C   C47       1.0  0.2784  0.25256  0.47682  1.0000
  C   C48       1.0  0.14739999999999998  0.20288000000000006  0.4613499999999999  1.0000
  C   C49       1.0  0.9635399999999997  0.22265000000000001  0.46097  1.0000
  C   C50       1.0  0.9096899999999998  0.29064  0.4739399999999999  1.0000
  C   C51       1.0  0.042859999999999995  0.34006  0.48646  1.0000
  C   C52       1.0  0.8970199999999999  0.08967000000000003  0.54351  1.0000
  C   C53       1.0  0.7826399999999998  0.11657  0.48762  1.0000
  C   C54       1.0  0.6820099999999998  0.17841  0.40134  1.0000
  C   C55       1.0  0.6681699999999998  0.23304000000000002  0.34882  1.0000
  C   C56       1.0  0.72182  0.015570000000000002  0.90008  1.0000
  C   C57       1.0  0.8686699999999998  0.01863  0.8474799999999999  1.0000
  C   C58       1.0  0.8188899999999998  0.028060000000000005  0.7794  1.0000
  C   C59       1.0  0.9517199999999998  0.03461  0.72952  1.0000
  C   C60       1.0  0.13586  0.02974  0.7479  1.0000
  C   C61       1.0  0.18874  0.01876  0.8149799999999999  1.0000
  C   C62       1.0  0.05403  0.01415  0.86486  1.0000
  C   C63       1.0  0.19054999999999994  0.93671  0.62152  1.0000
  C   C64       1.0  0.29069  0.00078  0.638  1.0000
  C   C65       1.0  0.39569  0.0926  0.6918  1.0000
  C   C66       1.0  0.4194999999999999  0.14664  0.74431  1.0000
  C   C67       1.0  0.6300399999999998  0.62569  0.0042  1.0000
  C   C68       1.0  0.77324  0.67888  0.9894099999999999  1.0000
  C   C69       1.0  0.7224699999999998  0.7476  0.97745  1.0000
  C   C70       1.0  0.8530699999999998  0.7975  0.96234  1.0000
  C   C71       1.0  0.036989999999999995  0.77782  0.96195  1.0000
  C   C72       1.0  0.09129999999999999  0.70985  0.9746899999999998  1.0000
  C   C73       1.0  0.9584499999999998  0.6602500000000001  0.98709  1.0000
  C   C74       1.0  0.10081  0.9112100000000001  0.04411  1.0000
  C   C75       1.0  0.21549999999999994  0.8845500000000001  0.9882100000000001  1.0000
  C   C76       1.0  0.31788999999999995  0.8224400000000001  0.9023399999999999  1.0000
  C   C77       1.0  0.3332799999999999  0.7674  0.8502999999999998  1.0000
  C   C78       1.0  0.27816999999999986  0.9842700000000001  0.39863  1.0000
  C   C79       1.0  0.13018999999999994  0.98104  0.34658  1.0000
  C   C80       1.0  0.17986  0.9714900000000001  0.27855  1.0000
  C   C81       1.0  0.04706999999999998  0.96496  0.22872  1.0000
  C   C82       1.0  0.8630899999999998  0.96989  0.24722999999999998  1.0000
  C   C83       1.0  0.8103699999999999  0.9808300000000002  0.31432  1.0000
  C   C84       1.0  0.9450499999999997  0.9854900000000002  0.36418  1.0000
  C   C85       1.0  0.80757  0.06366000000000001  0.12156  1.0000
  C   C86       1.0  0.70708  0.9996000000000002  0.1378  1.0000
  C   C87       1.0  0.6023599999999998  0.9075600000000001  0.19122  1.0000
  C   C88       1.0  0.57957  0.85315  0.24343  1.0000
  N   N1        1.0  0.3706799999999999  0.5881400000000001  0.46525  1.0000
  N   N2        1.0  0.43587  0.62638  0.4113  1.0000
  N   N3        1.0  0.17866999999999994  0.67295  0.44916  1.0000
  N   N4        1.0  0.5797  0.52793  0.60098  1.0000
  N   N5        1.0  0.51193  0.5859500000000001  0.63358  1.0000
  N   N6        1.0  0.7274899999999997  0.5376000000000001  0.69645  1.0000
  N   N7        1.0  0.6325899999999998  0.41265  0.96486  1.0000
  N   N8        1.0  0.5658399999999999  0.3741900000000001  0.91136  1.0000
  N   N9        1.0  0.8231899999999998  0.32756  0.9489000000000001  1.0000
  N   N10       1.0  0.4233799999999999  0.47167000000000003  0.10078  1.0000
  N   N11       1.0  0.49042999999999987  0.4136000000000001  0.13347  1.0000
  N   N12       1.0  0.2736599999999999  0.46184  0.19582  1.0000
  N   N13       1.0  0.6279299999999998  0.08976  0.46492  1.0000
  N   N14       1.0  0.5646599999999998  0.1278  0.41040000000000004  1.0000
  N   N15       1.0  0.8219  0.17326  0.4486200000000001  1.0000
  N   N16       1.0  0.4181999999999999  0.030750000000000006  0.60051  1.0000
  N   N17       1.0  0.48488  0.08832  0.63381  1.0000
  N   N18       1.0  0.27197999999999994  0.03869  0.6965  1.0000
  N   N19       1.0  0.36918  0.9118800000000001  0.9651700000000001  1.0000
  N   N20       1.0  0.4335699999999999  0.87367  0.91094  1.0000
  N   N21       1.0  0.17800999999999995  0.8273800000000001  0.94964  1.0000
  N   N22       1.0  0.57854  0.9701500000000001  0.10044  1.0000
  N   N23       1.0  0.51192  0.91244  0.13352  1.0000
  N   N24       1.0  0.7266899999999997  0.9612300000000001  0.19594  1.0000
  O   O1        1.0  0.6858899999999999  0.93796  0.50864  1.0000
  O   O2        1.0  0.4635299999999999  0.8577000000000001  0.51161  1.0000
  O   O3        1.0  0.24476999999999996  0.49323  0.95858  1.0000
  O   O4        1.0  0.43778  0.53837  0.8827  1.0000
  O   O5        1.0  0.30724  0.062340000000000007  0.01303  1.0000
  O   O6        1.0  0.53607  0.13928  0.00683  1.0000
  O   O7        1.0  0.7620399999999998  0.50685  0.4583  1.0000
  O   O8        1.0  0.5644999999999998  0.46175000000000005  0.384  1.0000
  O   O9        1.0  0.30941999999999986  0.43754000000000004  0.50857  1.0000
  O   O10       1.0  0.53422  0.35758000000000006  0.51163  1.0000
  O   O11       1.0  0.7636499999999998  0.9927800000000001  0.95994  1.0000
  O   O12       1.0  0.563  0.03511  0.88549  1.0000
  O   O13       1.0  0.6917699999999998  0.56323  0.0128  1.0000
  O   O14       1.0  0.4650199999999999  0.64216  0.00703  1.0000
  O   O15       1.0  0.23662999999999995  0.00727  0.4586  1.0000
  O   O16       1.0  0.4364399999999999  0.9648700000000001  0.38362  1.0000
