data_image0
_chemical_formula_structural       Ag8H64C96N16
_chemical_formula_sum              "Ag8 H64 C96 N16"
_cell_length_a       7.29266
_cell_length_b       7.29304
_cell_length_c       46.70691
_cell_angle_alpha    89.98985
_cell_angle_beta     90.00854999999999
_cell_angle_gamma    115.15853999999999

_symmetry_space_group_name_H-M    'P 1'
_symmetry_Int_Tables_number       1

loop_
  _symmetry_equiv_pos_as_xyz
  'x,y,z'

loop_
  _atom_site_type_symbol
  _atom_site_label
  _atom_site_symmetry_multiplicity
  _atom_site_fract_x
  _atom_site_fract_y
  _atom_site_fract_z
  _atom_site_occupancy
  Ag  Ag1       1.0  0.2884199999999999  0.05219  0.00104  1.0000
  Ag  Ag2       1.0  0.71131  0.9476899999999999  0.50107  1.0000
  Ag  Ag3       1.0  0.9477999999999999  0.71157  0.49892999999999993  1.0000
  Ag  Ag4       1.0  0.05194999999999998  0.28818  0.99896  1.0000
  Ag  Ag5       1.0  0.025429999999999904  0.9750699999999998  0.75001  1.0000
  Ag  Ag6       1.0  0.26073999999999997  0.74034  0.75005  1.0000
  Ag  Ag7       1.0  0.97497  0.025319999999999995  0.24998  1.0000
  Ag  Ag8       1.0  0.7401099999999999  0.26048  0.24995  1.0000
  H   H1        1.0  0.40458  0.35115  0.76165  1.0000
  H   H2        1.0  0.6178  0.53499  0.80431  1.0000
  H   H3        1.0  0.50116  0.39826  0.85332  1.0000
  H   H4        1.0  0.99058  0.90474  0.8139  1.0000
  H   H5        1.0  0.27874999999999994  0.13617  0.93714  1.0000
  H   H6        1.0  0.7602999999999998  0.62808  0.90164  1.0000
  H   H7        1.0  0.6695499999999998  0.4952999999999999  0.95119  1.0000
  H   H8        1.0  0.90056  0.68678  0.9921  1.0000
  H   H9        1.0  0.8928799999999997  0.36607  0.75486  1.0000
  H   H10       1.0  0.6779299999999998  0.11656  0.79258  1.0000
  H   H11       1.0  0.77666  0.18322  0.84357  1.0000
  H   H12       1.0  0.2808299999999999  0.74113  0.81688  1.0000
  H   H13       1.0  0.011619999999999998  0.31471  0.93325  1.0000
  H   H14       1.0  0.51429  0.87594  0.90726  1.0000
  H   H15       1.0  0.61845  0.93364  0.95817  1.0000
  H   H16       1.0  0.40675999999999995  0.67812  0.99552  1.0000
  H   H17       1.0  0.5956199999999998  0.64944  0.26163  1.0000
  H   H18       1.0  0.38256  0.4657899999999999  0.30431  1.0000
  H   H19       1.0  0.49954  0.60265  0.3533  1.0000
  H   H20       1.0  0.009970000000000007  0.09602  0.31383  1.0000
  H   H21       1.0  0.7213099999999999  0.8636699999999999  0.43718  1.0000
  H   H22       1.0  0.23967999999999995  0.37195  0.4017  1.0000
  H   H23       1.0  0.33004999999999995  0.50466  0.45126  1.0000
  H   H24       1.0  0.0989  0.31323  0.49215  1.0000
  H   H25       1.0  0.10767  0.63517  0.25479  1.0000
  H   H26       1.0  0.32254  0.88433  0.29256  1.0000
  H   H27       1.0  0.22375999999999988  0.8172  0.34353  1.0000
  H   H28       1.0  0.71981  0.25943  0.31678  1.0000
  H   H29       1.0  0.9884499999999998  0.68528  0.43324  1.0000
  H   H30       1.0  0.48570999999999986  0.12430999999999998  0.40718  1.0000
  H   H31       1.0  0.38124  0.06653  0.45807000000000003  1.0000
  H   H32       1.0  0.59291  0.32168  0.49545999999999996  1.0000
  H   H33       1.0  0.64962  0.59555  0.73838  1.0000
  H   H34       1.0  0.4658  0.38256999999999997  0.69571  1.0000
  H   H35       1.0  0.60265  0.49958  0.6467  1.0000
  H   H36       1.0  0.09607  0.009949999999999999  0.68615  1.0000
  H   H37       1.0  0.86378  0.7213999999999999  0.56284  1.0000
  H   H38       1.0  0.3719599999999999  0.23955  0.59832  1.0000
  H   H39       1.0  0.50474  0.33027  0.54876  1.0000
  H   H40       1.0  0.31344  0.09951  0.50786  1.0000
  H   H41       1.0  0.6353799999999997  0.108  0.7451799999999998  1.0000
  H   H42       1.0  0.8846099999999999  0.32265  0.70739  1.0000
  H   H43       1.0  0.8174  0.22379  0.65645  1.0000
  H   H44       1.0  0.2595699999999999  0.71976  0.68326  1.0000
  H   H45       1.0  0.68513  0.9883999999999998  0.56672  1.0000
  H   H46       1.0  0.12398999999999993  0.4855899999999999  0.59282  1.0000
  H   H47       1.0  0.06621999999999997  0.38119  0.54195  1.0000
  H   H48       1.0  0.32159  0.59282  0.50455  1.0000
  H   H49       1.0  0.35104  0.40466  0.23835999999999996  1.0000
  H   H50       1.0  0.53497  0.61785  0.1957  1.0000
  H   H51       1.0  0.39818  0.50119  0.14668  1.0000
  H   H52       1.0  0.90466  0.99064  0.18607999999999997  1.0000
  H   H53       1.0  0.13605  0.27864  0.06287  1.0000
  H   H54       1.0  0.6280899999999999  0.76039  0.09838  1.0000
  H   H55       1.0  0.49516  0.66933  0.04882999999999999  1.0000
  H   H56       1.0  0.68645  0.8999999999999998  0.00792  1.0000
  H   H57       1.0  0.36590999999999996  0.8925699999999999  0.24510999999999997  1.0000
  H   H58       1.0  0.11628000000000001  0.67786  0.20738000000000004  1.0000
  H   H59       1.0  0.18298000000000006  0.77665  0.15642  1.0000
  H   H60       1.0  0.74102  0.28084  0.18315  1.0000
  H   H61       1.0  0.31478999999999996  0.01179  0.06672  1.0000
  H   H62       1.0  0.8762499999999998  0.51445  0.09274000000000002  1.0000
  H   H63       1.0  0.9339399999999999  0.61858  0.04185  1.0000
  H   H64       1.0  0.67817  0.40697  0.00449  1.0000
  C   C1        1.0  0.36238  0.29675  0.78339  1.0000
  C   C2        1.0  0.4785399999999999  0.39827  0.80729  1.0000
  C   C3        1.0  0.41470999999999986  0.32159  0.8344799999999999  1.0000
  C   C4        1.0  0.23452  0.14221  0.83806  1.0000
  C   C5        1.0  0.12690999999999997  0.04588999999999999  0.81264  1.0000
  C   C6        1.0  0.16271999999999995  0.05753  0.86476  1.0000
  C   C7        1.0  0.09374000000000002  0.97284  0.88764  1.0000
  C   C8        1.0  0.03083000000000001  0.89031  0.91469  1.0000
  C   C9        1.0  0.14658999999999994  0.9921099999999999  0.9392999999999999  1.0000
  C   C10       1.0  0.8548299999999998  0.70872  0.91966  1.0000
  C   C11       1.0  0.8050599999999999  0.6341099999999997  0.9472  1.0000
  C   C12       1.0  0.9300299999999997  0.73979  0.97015  1.0000
  C   C13       1.0  0.9304899999999998  0.38698  0.77743  1.0000
  C   C14       1.0  0.8117499999999997  0.25156  0.79862  1.0000
  C   C15       1.0  0.8658599999999997  0.28877  0.82705  1.0000
  C   C16       1.0  0.040239999999999956  0.46705999999999986  0.83516  1.0000
  C   C17       1.0  0.14852999999999997  0.60133  0.81225  1.0000
  C   C18       1.0  0.11035999999999994  0.5065  0.86298  1.0000
  C   C19       1.0  0.17900999999999995  0.55512  0.88753  1.0000
  C   C20       1.0  0.25038  0.59174  0.91533  1.0000
  C   C21       1.0  0.14435999999999996  0.45391999999999993  0.9379999999999998  1.0000
  C   C22       1.0  0.42598999999999987  0.76819  0.92362  1.0000
  C   C23       1.0  0.48329000000000005  0.80026  0.9520099999999999  1.0000
  C   C24       1.0  0.3660199999999999  0.6617899999999999  0.97303  1.0000
  C   C25       1.0  0.6378899999999997  0.70394  0.28336  1.0000
  C   C26       1.0  0.52187  0.60251  0.30728  1.0000
  C   C27       1.0  0.58596  0.67926  0.33445  1.0000
  C   C28       1.0  0.7662299999999997  0.85857  0.33804  1.0000
  C   C29       1.0  0.87365  0.95483  0.3126  1.0000
  C   C30       1.0  0.8379  0.94298  0.36471  1.0000
  C   C31       1.0  0.90648  0.02744  0.38771  1.0000
  C   C32       1.0  0.9691099999999996  0.10966999999999999  0.41473000000000004  1.0000
  C   C33       1.0  0.85336  0.0078  0.43934999999999996  1.0000
  C   C34       1.0  0.14506999999999995  0.29128  0.4197199999999999  1.0000
  C   C35       1.0  0.19463  0.36578  0.44726  1.0000
  C   C36       1.0  0.06964999999999998  0.2601  0.4702  1.0000
  C   C37       1.0  0.07005999999999997  0.61404  0.27736  1.0000
  C   C38       1.0  0.18876999999999997  0.74923  0.29857  1.0000
  C   C39       1.0  0.13457999999999998  0.71173  0.32701  1.0000
  C   C40       1.0  0.96013  0.53337  0.3351  1.0000
  C   C41       1.0  0.8520299999999997  0.39933999999999986  0.31215  1.0000
  C   C42       1.0  0.88987  0.4937399999999999  0.3629  1.0000
  C   C43       1.0  0.8213199999999998  0.44522  0.38749  1.0000
  C   C44       1.0  0.74983  0.40844  0.41528  1.0000
  C   C45       1.0  0.8557200000000001  0.54605  0.43797  1.0000
  C   C46       1.0  0.57405  0.23199  0.4235499999999999  1.0000
  C   C47       1.0  0.5165499999999998  0.19984  0.45192999999999994  1.0000
  C   C48       1.0  0.63379  0.3381  0.47297  1.0000
  C   C49       1.0  0.7040299999999998  0.63791  0.7166399999999999  1.0000
  C   C50       1.0  0.6025499999999998  0.52184  0.6927299999999998  1.0000
  C   C51       1.0  0.67931  0.5859  0.66555  1.0000
  C   C52       1.0  0.85866  0.76612  0.66196  1.0000
  C   C53       1.0  0.9549099999999996  0.8736  0.6874000000000001  1.0000
  C   C54       1.0  0.9430799999999998  0.83791  0.63527  1.0000
  C   C55       1.0  0.02734  0.90636  0.6123  1.0000
  C   C56       1.0  0.10967000000000002  0.96918  0.58526  1.0000
  C   C57       1.0  0.007879999999999969  0.85348  0.56065  1.0000
  C   C58       1.0  0.2913  0.14513  0.5803  1.0000
  C   C59       1.0  0.36587999999999987  0.19482999999999998  0.55275  1.0000
  C   C60       1.0  0.26023  0.06992  0.52981  1.0000
  C   C61       1.0  0.6142499999999999  0.07027  0.72262  1.0000
  C   C62       1.0  0.7494700000000001  0.18884  0.70139  1.0000
  C   C63       1.0  0.7118999999999999  0.13455  0.67297  1.0000
  C   C64       1.0  0.5334799999999998  0.9601099999999999  0.66491  1.0000
  C   C65       1.0  0.39949999999999997  0.85205  0.6878600000000001  1.0000
  C   C66       1.0  0.49358  0.88973  0.63707  1.0000
  C   C67       1.0  0.44535  0.82129  0.61254  1.0000
  C   C68       1.0  0.40827999999999987  0.74974  0.58472  1.0000
  C   C69       1.0  0.54585  0.85562  0.56203  1.0000
  C   C70       1.0  0.23175999999999994  0.57402  0.57646  1.0000
  C   C71       1.0  0.19958999999999993  0.51653  0.54809  1.0000
  C   C72       1.0  0.33787  0.63365  0.52703  1.0000
  C   C73       1.0  0.2966699999999999  0.3624  0.21662  1.0000
  C   C74       1.0  0.3981999999999999  0.47859  0.19272  1.0000
  C   C75       1.0  0.32151  0.41478  0.16553  1.0000
  C   C76       1.0  0.14213999999999996  0.23461  0.16194  1.0000
  C   C77       1.0  0.04582  0.12697  0.18736  1.0000
  C   C78       1.0  0.05758999999999999  0.16284  0.13526  1.0000
  C   C79       1.0  0.9726999999999999  0.09374  0.11233999999999998  1.0000
  C   C80       1.0  0.8902299999999999  0.03081  0.08531  1.0000
  C   C81       1.0  0.99195  0.14651  0.06069  1.0000
  C   C82       1.0  0.7086499999999998  0.85478  0.08035  1.0000
  C   C83       1.0  0.63397  0.80487  0.05281000000000001  1.0000
  C   C84       1.0  0.73959  0.92978  0.02986  1.0000
  C   C85       1.0  0.38679999999999987  0.9303099999999999  0.22256  1.0000
  C   C86       1.0  0.25133  0.8117  0.20136  1.0000
  C   C87       1.0  0.28856  0.86592  0.17293  1.0000
  C   C88       1.0  0.4669099999999999  0.04032  0.16485  1.0000
  C   C89       1.0  0.60116  0.14852  0.18775999999999998  1.0000
  C   C90       1.0  0.50658  0.11053  0.137  1.0000
  C   C91       1.0  0.5550299999999998  0.17906  0.1125  1.0000
  C   C92       1.0  0.59191  0.25048  0.08468  1.0000
  C   C93       1.0  0.4540999999999999  0.14453  0.062  1.0000
  C   C94       1.0  0.76844  0.42605999999999994  0.07639  1.0000
  C   C95       1.0  0.8004899999999998  0.48338999999999993  0.04801  1.0000
  C   C96       1.0  0.66199  0.36626  0.02698  1.0000
  N   N1        1.0  0.19124  0.12403  0.78645  1.0000
  N   N2        1.0  0.09624000000000003  0.91539  0.9658100000000001  1.0000
  N   N3        1.0  0.09492000000000002  0.55999  0.78474  1.0000
  N   N4        1.0  0.20118  0.4898  0.96545  1.0000
  N   N5        1.0  0.8090699999999998  0.87664  0.28642  1.0000
  N   N6        1.0  0.90351  0.08443  0.46587  1.0000
  N   N7        1.0  0.9056600000000001  0.44094  0.28464  1.0000
  N   N8        1.0  0.7987199999999998  0.51002  0.46542  1.0000
  N   N9        1.0  0.8767199999999998  0.8091  0.71358  1.0000
  N   N10       1.0  0.08459000000000003  0.90373  0.53413  1.0000
  N   N11       1.0  0.4411699999999999  0.90585  0.7153500000000002  1.0000
  N   N12       1.0  0.5097799999999999  0.7985799999999998  0.53459  1.0000
  N   N13       1.0  0.12393999999999998  0.19124  0.21355  1.0000
  N   N14       1.0  0.9151699999999998  0.09605  0.03419  1.0000
  N   N15       1.0  0.5598  0.09473  0.21526  1.0000
  N   N16       1.0  0.48998999999999987  0.20143999999999998  0.03456  1.0000
