data_image0
_chemical_formula_structural       Ag4H72C56N24
_chemical_formula_sum              "Ag4 H72 C56 N24"
_cell_length_a       8.10511
_cell_length_b       12.82138
_cell_length_c       15.93235
_cell_angle_alpha    89.95118999999998
_cell_angle_beta     89.98356000000001
_cell_angle_gamma    103.89672999999999

_space_group_name_H-M_alt    "P 1"
_space_group_IT_number       1

loop_
  _space_group_symop_operation_xyz
  'x, y, z'

loop_
  _atom_site_type_symbol
  _atom_site_label
  _atom_site_symmetry_multiplicity
  _atom_site_fract_x
  _atom_site_fract_y
  _atom_site_fract_z
  _atom_site_occupancy
  Ag  Ag1       1.0  0.63048  0.9832600000000001  0.9624000000000003  1.0000
  Ag  Ag2       1.0  0.3686  0.51567  0.4626300000000001  1.0000
  Ag  Ag3       1.0  0.36951  0.01674  0.037600000000000015  1.0000
  Ag  Ag4       1.0  0.6314  0.48433000000000004  0.53737  1.0000
  H   H1        1.0  0.53496  0.12706  0.87099  1.0000
  H   H2        1.0  0.54007  0.28901  0.6380700000000002  1.0000
  H   H3        1.0  0.86771  0.4897200000000001  0.73107  1.0000
  H   H4        1.0  0.15345  0.32623  0.57801  1.0000
  H   H5        1.0  0.36272  0.37291  0.6830200000000002  1.0000
  H   H6        1.0  0.21361  0.24541  0.6894000000000002  1.0000
  H   H7        1.0  0.12880000000000005  0.5172600000000002  0.8266900000000003  1.0000
  H   H8        1.0  0.31389  0.52999  0.7639000000000002  1.0000
  H   H9        1.0  0.38234  0.51489  0.9156200000000002  1.0000
  H   H10       1.0  0.54882  0.44022000000000006  0.8108000000000002  1.0000
  H   H11       1.0  0.5225399999999998  0.36171  0.9042300000000002  1.0000
  H   H12       1.0  0.18033  0.13522  0.8224800000000002  1.0000
  H   H13       1.0  0.30462  0.18365000000000004  0.9119100000000002  1.0000
  H   H14       1.0  0.015059999999999985  0.20855000000000004  0.9273500000000002  1.0000
  H   H15       1.0  0.90967  0.3353400000000001  0.8320400000000002  1.0000
  H   H16       1.0  0.94821  0.22546  0.7753200000000002  1.0000
  H   H17       1.0  0.25271  0.34358000000000005  0.9941200000000002  1.0000
  H   H18       1.0  0.093  0.40681000000000006  0.9603400000000002  1.0000
  H   H19       1.0  0.4667  0.37354  0.3715000000000001  1.0000
  H   H20       1.0  0.45951  0.21087  0.13889000000000007  1.0000
  H   H21       1.0  0.13494999999999993  0.011  0.23148000000000005  1.0000
  H   H22       1.0  0.84391  0.17162  0.07890000000000003  1.0000
  H   H23       1.0  0.63702  0.12694  0.18398  1.0000
  H   H24       1.0  0.78715  0.25406  0.18998000000000007  1.0000
  H   H25       1.0  0.86926  0.98141  0.32757  1.0000
  H   H26       1.0  0.6843900000000002  0.9695600000000001  0.2648300000000001  1.0000
  H   H27       1.0  0.6162100000000001  0.9849000000000002  0.41660000000000014  1.0000
  H   H28       1.0  0.45052  0.06059  0.3119200000000001  1.0000
  H   H29       1.0  0.47813000000000005  0.13906  0.4053100000000001  1.0000
  H   H30       1.0  0.8222399999999999  0.3642400000000001  0.32248  1.0000
  H   H31       1.0  0.69777  0.31708  0.4122400000000001  1.0000
  H   H32       1.0  0.98603  0.29031  0.42776  1.0000
  H   H33       1.0  0.08944  0.16242  0.33294  1.0000
  H   H34       1.0  0.05289000000000002  0.27279000000000003  0.2759600000000001  1.0000
  H   H35       1.0  0.74706  0.15604  0.4948400000000001  1.0000
  H   H36       1.0  0.90604  0.09212  0.4611900000000001  1.0000
  H   H37       1.0  0.4650400000000001  0.8729400000000003  0.129  1.0000
  H   H38       1.0  0.4599199999999999  0.71099  0.36192000000000013  1.0000
  H   H39       1.0  0.13228  0.51028  0.26893  1.0000
  H   H40       1.0  0.8465499999999998  0.67377  0.4219900000000001  1.0000
  H   H41       1.0  0.63728  0.6270900000000001  0.3169700000000001  1.0000
  H   H42       1.0  0.78639  0.75459  0.3106  1.0000
  H   H43       1.0  0.8712  0.48274  0.17331000000000005  1.0000
  H   H44       1.0  0.68611  0.47001  0.23610000000000006  1.0000
  H   H45       1.0  0.61765  0.48511  0.08438  1.0000
  H   H46       1.0  0.4511699999999999  0.55978  0.18920000000000006  1.0000
  H   H47       1.0  0.47745  0.63829  0.09576000000000003  1.0000
  H   H48       1.0  0.81966  0.86478  0.17751  1.0000
  H   H49       1.0  0.69537  0.81635  0.08809000000000003  1.0000
  H   H50       1.0  0.98493  0.7914500000000001  0.07265  1.0000
  H   H51       1.0  0.09031999999999994  0.66466  0.16796000000000005  1.0000
  H   H52       1.0  0.051790000000000044  0.7745400000000002  0.22467000000000006  1.0000
  H   H53       1.0  0.74728  0.65642  0.005870000000000002  1.0000
  H   H54       1.0  0.90699  0.59319  0.03965000000000001  1.0000
  H   H55       1.0  0.53329  0.62646  0.6285000000000002  1.0000
  H   H56       1.0  0.54049  0.7891300000000002  0.8611100000000002  1.0000
  H   H57       1.0  0.8650299999999999  0.9889900000000001  0.7685200000000002  1.0000
  H   H58       1.0  0.15608  0.82837  0.9210900000000002  1.0000
  H   H59       1.0  0.36296999999999996  0.87306  0.81601  1.0000
  H   H60       1.0  0.21284  0.74594  0.8100200000000002  1.0000
  H   H61       1.0  0.13074  0.018590000000000006  0.67242  1.0000
  H   H62       1.0  0.3156  0.03044  0.73516  1.0000
  H   H63       1.0  0.3837799999999999  0.015090000000000001  0.5834000000000003  1.0000
  H   H64       1.0  0.54947  0.9394100000000002  0.68807  1.0000
  H   H65       1.0  0.52186  0.86093  0.5946900000000003  1.0000
  H   H66       1.0  0.17775  0.63576  0.67752  1.0000
  H   H67       1.0  0.30222000000000004  0.6829200000000001  0.5877600000000002  1.0000
  H   H68       1.0  0.013959999999999988  0.70969  0.5722400000000002  1.0000
  H   H69       1.0  0.91055  0.8375800000000001  0.6670600000000002  1.0000
  H   H70       1.0  0.94711  0.7272100000000001  0.7240300000000002  1.0000
  H   H71       1.0  0.2529300000000001  0.8439600000000003  0.50516  1.0000
  H   H72       1.0  0.09395000000000009  0.9078800000000002  0.5388  1.0000
  C   C1        1.0  0.5623999999999999  0.15333  0.8062800000000002  1.0000
  C   C2        1.0  0.5629  0.2347  0.6865600000000002  1.0000
  C   C3        1.0  0.9150700000000002  0.4510400000000001  0.6788600000000002  1.0000
  C   C4        1.0  0.058769999999999996  0.36689  0.59952  1.0000
  C   C5        1.0  0.36854  0.28488  0.8001900000000002  1.0000
  C   C6        1.0  0.2739099999999999  0.31802  0.72488  1.0000
  C   C7        1.0  0.1377  0.37418  0.7555400000000002  1.0000
  C   C8        1.0  0.22454  0.47535  0.8051000000000003  1.0000
  C   C9        1.0  0.31846  0.44215  0.8811900000000003  1.0000
  C   C10       1.0  0.45525  0.38557  0.8503300000000003  1.0000
  C   C11       1.0  0.2404  0.20845  0.8571500000000002  1.0000
  C   C12       1.0  0.10457999999999999  0.26541  0.8876000000000002  1.0000
  C   C13       1.0  0.010369999999999996  0.29675  0.8116700000000002  1.0000
  C   C14       1.0  0.18984000000000004  0.36608000000000007  0.93806  1.0000
  C   C15       1.0  0.4385299999999999  0.34679000000000004  0.30699  1.0000
  C   C16       1.0  0.43688  0.26516  0.18740000000000007  1.0000
  C   C17       1.0  0.08626  0.049410000000000016  0.17953  1.0000
  C   C18       1.0  0.94008  0.13211  0.10025000000000003  1.0000
  C   C19       1.0  0.63221  0.21524000000000001  0.30091  1.0000
  C   C20       1.0  0.7263499999999998  0.18161  0.22566000000000005  1.0000
  C   C21       1.0  0.86192  0.12487000000000002  0.25633  1.0000
  C   C22       1.0  0.77416  0.02386  0.30597000000000013  1.0000
  C   C23       1.0  0.68071  0.05751  0.38207000000000013  1.0000
  C   C24       1.0  0.54475  0.11481  0.3513100000000001  1.0000
  C   C25       1.0  0.7611099999999997  0.29145  0.35754000000000014  1.0000
  C   C26       1.0  0.89592  0.23371  0.3882  1.0000
  C   C27       1.0  0.9897199999999999  0.20175  0.31242  1.0000
  C   C28       1.0  0.8097500000000001  0.13325  0.4388300000000001  1.0000
  C   C29       1.0  0.4375900000000001  0.8466700000000001  0.19372000000000006  1.0000
  C   C30       1.0  0.43709  0.7653  0.3134400000000001  1.0000
  C   C31       1.0  0.08492  0.54896  0.32113  1.0000
  C   C32       1.0  0.94122  0.63311  0.4004700000000001  1.0000
  C   C33       1.0  0.63146  0.71512  0.19981000000000004  1.0000
  C   C34       1.0  0.72608  0.68197  0.27511  1.0000
  C   C35       1.0  0.86229  0.62582  0.24446000000000007  1.0000
  C   C36       1.0  0.7754499999999999  0.52465  0.19490000000000005  1.0000
  C   C37       1.0  0.68153  0.55785  0.11881000000000003  1.0000
  C   C38       1.0  0.5447500000000001  0.6144300000000001  0.14967000000000005  1.0000
  C   C39       1.0  0.75959  0.7915500000000002  0.14284  1.0000
  C   C40       1.0  0.8954099999999996  0.73459  0.11239  1.0000
  C   C41       1.0  0.98962  0.7032500000000002  0.18833000000000005  1.0000
  C   C42       1.0  0.81015  0.63392  0.06193000000000001  1.0000
  C   C43       1.0  0.5614600000000001  0.6532100000000002  0.6930000000000002  1.0000
  C   C44       1.0  0.56311  0.73484  0.8125900000000003  1.0000
  C   C45       1.0  0.91373  0.95059  0.8204700000000003  1.0000
  C   C46       1.0  0.05989000000000002  0.86789  0.8997400000000002  1.0000
  C   C47       1.0  0.3677900000000001  0.7847600000000002  0.6990900000000002  1.0000
  C   C48       1.0  0.27364  0.81839  0.7743400000000003  1.0000
  C   C49       1.0  0.13807000000000003  0.8751200000000001  0.7436700000000003  1.0000
  C   C50       1.0  0.22582999999999995  0.97614  0.6940200000000002  1.0000
  C   C51       1.0  0.31928  0.94249  0.61792  1.0000
  C   C52       1.0  0.45523999999999976  0.88519  0.64868  1.0000
  C   C53       1.0  0.23887999999999995  0.70855  0.6424600000000003  1.0000
  C   C54       1.0  0.10406999999999994  0.76629  0.6118  1.0000
  C   C55       1.0  0.010270000000000055  0.7982400000000001  0.68758  1.0000
  C   C56       1.0  0.19024000000000008  0.8667400000000001  0.5611600000000002  1.0000
  N   N1        1.0  0.6615  0.11504  0.7545600000000002  1.0000
  N   N2        1.0  0.66211  0.16724  0.6779200000000002  1.0000
  N   N3        1.0  0.49561  0.22892000000000004  0.7663800000000002  1.0000
  N   N4        1.0  0.85249  0.44599  0.6016900000000002  1.0000
  N   N5        1.0  0.94271  0.3923  0.55131  1.0000
  N   N6        1.0  0.04717000000000002  0.40156000000000003  0.6805900000000003  1.0000
  N   N7        1.0  0.33836  0.38463  0.2555500000000001  1.0000
  N   N8        1.0  0.33706  0.33231  0.17903  1.0000
  N   N9        1.0  0.50532  0.27132  0.26698  1.0000
  N   N10       1.0  0.14872  0.05504  0.10226  1.0000
  N   N11       1.0  0.05702000000000001  0.10786000000000003  0.05195000000000002  1.0000
  N   N12       1.0  0.95261  0.09760000000000003  0.18135  1.0000
  N   N13       1.0  0.33849  0.88496  0.24544000000000005  1.0000
  N   N14       1.0  0.33788  0.83276  0.32207  1.0000
  N   N15       1.0  0.50438  0.7710800000000001  0.23362000000000005  1.0000
  N   N16       1.0  0.14751  0.55401  0.3983  1.0000
  N   N17       1.0  0.057289999999999994  0.6077  0.4486900000000001  1.0000
  N   N18       1.0  0.95283  0.5984400000000001  0.31941000000000014  1.0000
  N   N19       1.0  0.6616300000000002  0.6153700000000001  0.7444500000000002  1.0000
  N   N20       1.0  0.66294  0.6676900000000002  0.8209600000000002  1.0000
  N   N21       1.0  0.49467000000000005  0.72867  0.7330100000000003  1.0000
  N   N22       1.0  0.85128  0.94497  0.8977400000000002  1.0000
  N   N23       1.0  0.9429900000000001  0.8921400000000003  0.94805  1.0000
  N   N24       1.0  0.04738000000000005  0.9024000000000002  0.8186500000000002  1.0000
