data_image0
_chemical_formula_structural       Cd3H60C78N18
_chemical_formula_sum              "Cd3 H60 C78 N18"
_cell_length_a       16.37931
_cell_length_b       16.37986
_cell_length_c       16.38013
_cell_angle_alpha    91.15606
_cell_angle_beta     91.15875
_cell_angle_gamma    91.15877

_space_group_name_H-M_alt    "P 1"
_space_group_IT_number       1

loop_
  _space_group_symop_operation_xyz
  'x, y, z'

loop_
  _atom_site_type_symbol
  _atom_site_label
  _atom_site_symmetry_multiplicity
  _atom_site_fract_x
  _atom_site_fract_y
  _atom_site_fract_z
  _atom_site_occupancy
  Cd  Cd1       1.0  0.5  0.5  0.0  1.0000
  Cd  Cd2       1.0  0.5  0.0  0.5  1.0000
  Cd  Cd3       1.0  0.9999899999999999  0.5  0.5  1.0000
  H   H1        1.0  0.66809  0.5703300000000002  0.03767  1.0000
  H   H2        1.0  0.81391  0.57201  0.00408  1.0000
  H   H3        1.0  0.75187  0.4157  0.79374  1.0000
  H   H4        1.0  0.6085499999999998  0.41796  0.8373300000000002  1.0000
  H   H5        1.0  0.001930000000000001  0.60421  0.89143  1.0000
  H   H6        1.0  0.57032  0.03769  0.6681  1.0000
  H   H7        1.0  0.572  0.0041100000000000025  0.81392  1.0000
  H   H8        1.0  0.41567  0.79376  0.7519  1.0000
  H   H9        1.0  0.41794  0.83733  0.60858  1.0000
  H   H10       1.0  0.6042  0.89143  0.0019300000000000003  1.0000
  H   H11       1.0  0.03768  0.66809  0.57032  1.0000
  H   H12       1.0  0.0040899999999999955  0.8139  0.57201  1.0000
  H   H13       1.0  0.79373  0.75187  0.4156900000000001  1.0000
  H   H14       1.0  0.83733  0.60856  0.41794  1.0000
  H   H15       1.0  0.89143  0.0019199999999999992  0.60421  1.0000
  H   H16       1.0  0.58501  0.33117000000000013  0.95001  1.0000
  H   H17       1.0  0.58461  0.18757000000000004  0.99111  1.0000
  H   H18       1.0  0.43058  0.2562  0.19308  1.0000
  H   H19       1.0  0.43148  0.39577  0.14021  1.0000
  H   H20       1.0  0.6081  0.00353  0.10882  1.0000
  H   H21       1.0  0.95  0.58503  0.33116000000000007  1.0000
  H   H22       1.0  0.9911  0.58463  0.18757  1.0000
  H   H23       1.0  0.19309  0.43059  0.25623  1.0000
  H   H24       1.0  0.14022  0.43149  0.39579  1.0000
  H   H25       1.0  0.10881  0.60811  0.00355  1.0000
  H   H26       1.0  0.33116  0.9500100000000002  0.58502  1.0000
  H   H27       1.0  0.18756000000000003  0.9911100000000002  0.58463  1.0000
  H   H28       1.0  0.25622  0.19311000000000006  0.43059  1.0000
  H   H29       1.0  0.39579  0.14023  0.43149  1.0000
  H   H30       1.0  0.003540000000000001  0.10881  0.6081  1.0000
  H   H31       1.0  0.3319  0.4296800000000001  0.96234  1.0000
  H   H32       1.0  0.18608  0.428  0.99592  1.0000
  H   H33       1.0  0.24813  0.58431  0.20626  1.0000
  H   H34       1.0  0.39145  0.58205  0.16267  1.0000
  H   H35       1.0  0.99806  0.3957900000000001  0.10857  1.0000
  H   H36       1.0  0.4296699999999999  0.96231  0.3319  1.0000
  H   H37       1.0  0.42799  0.99589  0.18608  1.0000
  H   H38       1.0  0.58432  0.20624000000000006  0.24810000000000001  1.0000
  H   H39       1.0  0.58205  0.16267000000000004  0.39142  1.0000
  H   H40       1.0  0.39579  0.10857000000000001  0.99808  1.0000
  H   H41       1.0  0.96231  0.33191  0.42968  1.0000
  H   H42       1.0  0.9959  0.1861  0.42799  1.0000
  H   H43       1.0  0.20626  0.24813000000000002  0.58431  1.0000
  H   H44       1.0  0.16266  0.39144  0.58206  1.0000
  H   H45       1.0  0.10856  0.9980900000000001  0.3958  1.0000
  H   H46       1.0  0.41498000000000007  0.6688300000000003  0.04999  1.0000
  H   H47       1.0  0.41538  0.81243  0.00889  1.0000
  H   H48       1.0  0.56941  0.7438  0.80692  1.0000
  H   H49       1.0  0.56851  0.60423  0.85979  1.0000
  H   H50       1.0  0.3919  0.99647  0.8911900000000003  1.0000
  H   H51       1.0  0.04999  0.41498  0.66884  1.0000
  H   H52       1.0  0.0089  0.41538  0.81243  1.0000
  H   H53       1.0  0.8069  0.56941  0.74377  1.0000
  H   H54       1.0  0.85977  0.56851  0.60422  1.0000
  H   H55       1.0  0.89118  0.39189  0.99645  1.0000
  H   H56       1.0  0.66883  0.04999  0.41498  1.0000
  H   H57       1.0  0.81243  0.00889  0.41538  1.0000
  H   H58       1.0  0.74377  0.8069  0.56941  1.0000
  H   H59       1.0  0.60421  0.8597700000000003  0.56851  1.0000
  H   H60       1.0  0.9964499999999998  0.89119  0.3919  1.0000
  C   C1        1.0  0.68905  0.53558  0.9849200000000001  1.0000
  C   C2        1.0  0.7704099999999998  0.53707  0.9656900000000003  1.0000
  C   C3        1.0  0.79711  0.49328000000000005  0.8957100000000002  1.0000
  C   C4        1.0  0.7358  0.4505500000000001  0.84809  1.0000
  C   C5        1.0  0.65565  0.4516700000000001  0.87267  1.0000
  C   C6        1.0  0.0018699999999999997  0.55853  0.93871  1.0000
  C   C7        1.0  0.53557  0.98493  0.6890600000000002  1.0000
  C   C8        1.0  0.53706  0.96571  0.77042  1.0000
  C   C9        1.0  0.49327  0.89572  0.79712  1.0000
  C   C10       1.0  0.45054  0.8481  0.73582  1.0000
  C   C11       1.0  0.45166  0.87268  0.65567  1.0000
  C   C12       1.0  0.55852  0.9387  0.00187  1.0000
  C   C13       1.0  0.98492  0.68904  0.53557  1.0000
  C   C14       1.0  0.9657  0.7704100000000003  0.53707  1.0000
  C   C15       1.0  0.89571  0.7971000000000003  0.49327  1.0000
  C   C16       1.0  0.8480799999999998  0.7358000000000002  0.45054  1.0000
  C   C17       1.0  0.87267  0.65566  0.45166  1.0000
  C   C18       1.0  0.93871  0.00186  0.55852  1.0000
  C   C19       1.0  0.5501  0.31191  0.00219  1.0000
  C   C20       1.0  0.55053  0.23196  0.02613  1.0000
  C   C21       1.0  0.5065899999999999  0.20731000000000005  0.09578  1.0000
  C   C22       1.0  0.46489  0.26988000000000006  0.13873  1.0000
  C   C23       1.0  0.46579  0.34818  0.11003  1.0000
  C   C24       1.0  0.56073  0.0010300000000000005  0.06132  1.0000
  C   C25       1.0  0.00219  0.55011  0.31191  1.0000
  C   C26       1.0  0.02612  0.55054  0.23197  1.0000
  C   C27       1.0  0.09578000000000002  0.5066000000000003  0.20733  1.0000
  C   C28       1.0  0.13873  0.46489  0.2699  1.0000
  C   C29       1.0  0.11003  0.4658  0.3482  1.0000
  C   C30       1.0  0.06131  0.5607400000000002  0.0010400000000000003  1.0000
  C   C31       1.0  0.31191  0.0022  0.55011  1.0000
  C   C32       1.0  0.23197  0.02614  0.55054  1.0000
  C   C33       1.0  0.20732  0.09579  0.5066  1.0000
  C   C34       1.0  0.26988999999999996  0.13874  0.4649  1.0000
  C   C35       1.0  0.3482  0.11005  0.4658  1.0000
  C   C36       1.0  0.0010300000000000008  0.06132  0.56074  1.0000
  C   C37       1.0  0.31095  0.4644200000000001  0.01508  1.0000
  C   C38       1.0  0.22958  0.46293  0.03431  1.0000
  C   C39       1.0  0.20289  0.50673  0.1043  1.0000
  C   C40       1.0  0.2642  0.54945  0.15191  1.0000
  C   C41       1.0  0.34434  0.5483300000000002  0.12733  1.0000
  C   C42       1.0  0.9981199999999999  0.44148  0.06128999999999999  1.0000
  C   C43       1.0  0.46442  0.01507  0.31094  1.0000
  C   C44       1.0  0.46293  0.03429  0.22958  1.0000
  C   C45       1.0  0.50673  0.10428000000000001  0.20288000000000003  1.0000
  C   C46       1.0  0.5494599999999997  0.1519  0.26418  1.0000
  C   C47       1.0  0.54833  0.12732  0.3443300000000001  1.0000
  C   C48       1.0  0.44147  0.061290000000000004  0.99813  1.0000
  C   C49       1.0  0.01507  0.31096  0.46443  1.0000
  C   C50       1.0  0.03429  0.22959  0.46293  1.0000
  C   C51       1.0  0.10428  0.2029  0.50673  1.0000
  C   C52       1.0  0.15191  0.2642  0.54946  1.0000
  C   C53       1.0  0.12732  0.34435  0.54834  1.0000
  C   C54       1.0  0.06129000000000001  0.9981400000000001  0.44148  1.0000
  C   C55       1.0  0.44988999999999996  0.68809  0.9978099999999999  1.0000
  C   C56       1.0  0.4494599999999999  0.76804  0.97387  1.0000
  C   C57       1.0  0.4934  0.79269  0.90422  1.0000
  C   C58       1.0  0.5351  0.7301200000000002  0.86127  1.0000
  C   C59       1.0  0.5342  0.65182  0.88997  1.0000
  C   C60       1.0  0.43926  0.9989700000000001  0.93868  1.0000
  C   C61       1.0  0.9978099999999999  0.44989  0.68809  1.0000
  C   C62       1.0  0.97387  0.44947  0.7680300000000002  1.0000
  C   C63       1.0  0.90422  0.49341  0.79268  1.0000
  C   C64       1.0  0.86126  0.5351100000000002  0.73011  1.0000
  C   C65       1.0  0.88996  0.53421  0.6518  1.0000
  C   C66       1.0  0.93868  0.4392600000000001  0.9989600000000001  1.0000
  C   C67       1.0  0.68808  0.99781  0.44989  1.0000
  C   C68       1.0  0.7680199999999998  0.97386  0.44946  1.0000
  C   C69       1.0  0.79267  0.9042100000000002  0.49341000000000007  1.0000
  C   C70       1.0  0.7301  0.86126  0.53511  1.0000
  C   C71       1.0  0.65179  0.8899600000000002  0.53421  1.0000
  C   C72       1.0  0.99896  0.93869  0.43927  1.0000
  C   C73       1.0  0.94034  0.49789000000000005  0.93767  1.0000
  C   C74       1.0  0.49788000000000004  0.93767  0.94035  1.0000
  C   C75       1.0  0.93766  0.94034  0.49788999999999994  1.0000
  C   C76       1.0  0.50212  0.06233  0.05965  1.0000
  C   C77       1.0  0.05965000000000001  0.5021200000000002  0.062340000000000007  1.0000
  C   C78       1.0  0.06233  0.05967  0.50212  1.0000
  N   N1        1.0  0.62978  0.49301000000000006  0.94039  1.0000
  N   N2        1.0  0.49299999999999994  0.9404000000000002  0.6298  1.0000
  N   N3        1.0  0.94039  0.62979  0.493  1.0000
  N   N4        1.0  0.50709  0.37203  0.04187  1.0000
  N   N5        1.0  0.04187  0.5071  0.37204  1.0000
  N   N6        1.0  0.37204  0.041880000000000014  0.5071  1.0000
  N   N7        1.0  0.37021  0.5069900000000003  0.05961  1.0000
  N   N8        1.0  0.50698  0.0596  0.3702  1.0000
  N   N9        1.0  0.0596  0.37021  0.507  1.0000
  N   N10       1.0  0.4929  0.62796  0.95813  1.0000
  N   N11       1.0  0.9581199999999999  0.49291  0.62796  1.0000
  N   N12       1.0  0.62795  0.9581200000000002  0.49291  1.0000
  N   N13       1.0  0.87927  0.49487000000000003  0.8740400000000003  1.0000
  N   N14       1.0  0.49486  0.8740500000000002  0.87928  1.0000
  N   N15       1.0  0.87403  0.87926  0.49487  1.0000
  N   N16       1.0  0.50513  0.12595  0.12073000000000003  1.0000
  N   N17       1.0  0.12072  0.50513  0.12597000000000005  1.0000
  N   N18       1.0  0.12596  0.12074  0.50513  1.0000
