data_image0
_chemical_formula_structural       La4H72C96N8O24
_chemical_formula_sum              "La4 H72 C96 N8 O24"
_cell_length_a       8.38195
_cell_length_b       17.96576
_cell_length_c       19.55966
_cell_angle_alpha    90.39158
_cell_angle_beta     89.82321
_cell_angle_gamma    89.93211

_space_group_name_H-M_alt    "P 1"
_space_group_IT_number       1

loop_
  _space_group_symop_operation_xyz
  'x, y, z'

loop_
  _atom_site_type_symbol
  _atom_site_label
  _atom_site_symmetry_multiplicity
  _atom_site_fract_x
  _atom_site_fract_y
  _atom_site_fract_z
  _atom_site_occupancy
  La  La1       1.0  0.9546000000000001  0.74956  0.74982  1.0000
  La  La2       1.0  0.54682  0.2504  0.2497  1.0000
  La  La3       1.0  0.04539  0.25044  0.25018  1.0000
  La  La4       1.0  0.45317  0.7495999999999999  0.7503  1.0000
  H   H1        1.0  0.10348  0.9556699999999999  0.69796  1.0000
  H   H2        1.0  0.39952  0.89903  0.53456  1.0000
  H   H3        1.0  0.75765  0.9287999999999998  0.49634000000000006  1.0000
  H   H4        1.0  0.17699  0.02551  0.59343  1.0000
  H   H5        1.0  0.029430000000000005  0.73764  0.56446  1.0000
  H   H6        1.0  0.31377  0.9151499999999999  0.41324  1.0000
  H   H7        1.0  0.7  0.86642  0.60631  1.0000
  H   H8        1.0  0.08676  0.8412  0.36785  1.0000
  H   H9        1.0  0.94373  0.75213  0.44379  1.0000
  H   H10       1.0  0.1044  0.54369  0.80162  1.0000
  H   H11       1.0  0.39966  0.60014  0.96671  1.0000
  H   H12       1.0  0.75706  0.57115  0.0036300000000000004  1.0000
  H   H13       1.0  0.17713  0.47408999999999996  0.9062200000000001  1.0000
  H   H14       1.0  0.02848  0.76113  0.93609  1.0000
  H   H15       1.0  0.31288  0.58494  0.08819  1.0000
  H   H16       1.0  0.69957  0.63324  0.89368  1.0000
  H   H17       1.0  0.08556  0.65951  0.13343  1.0000
  H   H18       1.0  0.94242  0.74789  0.05702  1.0000
  H   H19       1.0  0.4026  0.04472  0.19926  1.0000
  H   H20       1.0  0.10049  0.09903  0.03303  1.0000
  H   H21       1.0  0.74339  0.07036  0.99544  1.0000
  H   H22       1.0  0.32527  0.97523  0.09445000000000002  1.0000
  H   H23       1.0  0.46946  0.26068  0.06613  1.0000
  H   H24       1.0  0.18705  0.08477  0.9113  1.0000
  H   H25       1.0  0.8053  0.13263  0.10577000000000002  1.0000
  H   H26       1.0  0.41417  0.15952  0.86731  1.0000
  H   H27       1.0  0.5560700000000001  0.24785  0.94513  1.0000
  H   H28       1.0  0.40215  0.4559  0.30093  1.0000
  H   H29       1.0  0.10089  0.40133  0.46732  1.0000
  H   H30       1.0  0.74335  0.42927  0.50357  1.0000
  H   H31       1.0  0.32511  0.52525  0.40603  1.0000
  H   H32       1.0  0.46958  0.23916  0.43456  1.0000
  H   H33       1.0  0.18585  0.41613  0.58912  1.0000
  H   H34       1.0  0.80501  0.3673  0.39304  1.0000
  H   H35       1.0  0.41218  0.34112  0.63328  1.0000
  H   H36       1.0  0.55523  0.25236  0.55565  1.0000
  H   H37       1.0  0.89651  0.04433  0.30204  1.0000
  H   H38       1.0  0.60047  0.10097  0.46543  1.0000
  H   H39       1.0  0.24234  0.07119  0.50366  1.0000
  H   H40       1.0  0.823  0.97448  0.40657  1.0000
  H   H41       1.0  0.9705600000000001  0.26236  0.43554000000000004  1.0000
  H   H42       1.0  0.68622  0.08485  0.58676  1.0000
  H   H43       1.0  0.3  0.13358  0.39368  1.0000
  H   H44       1.0  0.91323  0.1588  0.63215  1.0000
  H   H45       1.0  0.05626  0.24786  0.5562  1.0000
  H   H46       1.0  0.89559  0.45631000000000005  0.19838  1.0000
  H   H47       1.0  0.60033  0.39986  0.03329  1.0000
  H   H48       1.0  0.24292999999999998  0.42885  0.99637  1.0000
  H   H49       1.0  0.82286  0.52591  0.09377  1.0000
  H   H50       1.0  0.9715099999999999  0.23887  0.06391  1.0000
  H   H51       1.0  0.68711  0.41506  0.91181  1.0000
  H   H52       1.0  0.30042  0.36676  0.10632  1.0000
  H   H53       1.0  0.9144300000000001  0.34049  0.8665700000000001  1.0000
  H   H54       1.0  0.05757  0.25211  0.94298  1.0000
  H   H55       1.0  0.59739  0.9552799999999999  0.80073  1.0000
  H   H56       1.0  0.8995  0.9009599999999999  0.9669700000000001  1.0000
  H   H57       1.0  0.2566  0.9296399999999999  0.004560000000000001  1.0000
  H   H58       1.0  0.67472  0.02477  0.90555  1.0000
  H   H59       1.0  0.53053  0.73932  0.93387  1.0000
  H   H60       1.0  0.81294  0.9152300000000001  0.08869  1.0000
  H   H61       1.0  0.19469  0.86737  0.89422  1.0000
  H   H62       1.0  0.58582  0.84048  0.13269  1.0000
  H   H63       1.0  0.44392000000000004  0.75215  0.05487  1.0000
  H   H64       1.0  0.59784  0.5441  0.69907  1.0000
  H   H65       1.0  0.8991  0.59867  0.53268  1.0000
  H   H66       1.0  0.25665  0.57072  0.49643000000000004  1.0000
  H   H67       1.0  0.67488  0.47475  0.59396  1.0000
  H   H68       1.0  0.53042  0.76084  0.56543  1.0000
  H   H69       1.0  0.81414  0.58387  0.41088  1.0000
  H   H70       1.0  0.19498  0.6327  0.60696  1.0000
  H   H71       1.0  0.58781  0.65888  0.36672  1.0000
  H   H72       1.0  0.44476  0.74764  0.44435  1.0000
  C   C1        1.0  0.21817  0.81805  0.55686  1.0000
  C   C2        1.0  0.03416000000000001  0.9532899999999999  0.65119  1.0000
  C   C3        1.0  0.30009  0.8674099999999999  0.5137800000000001  1.0000
  C   C4        1.0  0.9789700000000001  0.9823199999999999  0.53136  1.0000
  C   C5        1.0  0.8401  0.93673  0.53853  1.0000
  C   C6        1.0  0.07189999999999999  0.9901900000000001  0.59222  1.0000
  C   C7        1.0  0.09029  0.77659  0.53118  1.0000
  C   C8        1.0  0.25273  0.87568  0.44609  1.0000
  C   C9        1.0  0.80437  0.9010699999999999  0.59838  1.0000
  C   C10       1.0  0.12422  0.83424  0.42065  1.0000
  C   C11       1.0  0.04347  0.78467  0.46313  1.0000
  C   C12       1.0  0.27471  0.80826  0.62814  1.0000
  C   C13       1.0  0.21777  0.68091  0.9440900000000001  1.0000
  C   C14       1.0  0.03459  0.54627  0.84845  1.0000
  C   C15       1.0  0.2999  0.63196  0.9874  1.0000
  C   C16       1.0  0.97894  0.51756  0.9685900000000001  1.0000
  C   C17       1.0  0.83986  0.56314  0.96135  1.0000
  C   C18       1.0  0.072  0.5095  0.90749  1.0000
  C   C19       1.0  0.08948  0.72259  0.96966  1.0000
  C   C20       1.0  0.25213  0.6243  0.05524  1.0000
  C   C21       1.0  0.8043  0.59869  0.90145  1.0000
  C   C22       1.0  0.12351  0.66612  0.08058  1.0000
  C   C23       1.0  0.04256  0.71524  0.03786  1.0000
  C   C24       1.0  0.27347  0.69021  0.8724299999999999  1.0000
  C   C25       1.0  0.28167  0.17993  0.05718  1.0000
  C   C26       1.0  0.47079  0.04696  0.15205000000000002  1.0000
  C   C27       1.0  0.20007  0.13109  0.013009999999999999  1.0000
  C   C28       1.0  0.52212  0.01772  0.03139  1.0000
  C   C29       1.0  0.66192  0.06287  0.03818  1.0000
  C   C30       1.0  0.43083  0.01021  0.09289  1.0000
  C   C31       1.0  0.40931  0.22193  0.03208  1.0000
  C   C32       1.0  0.24755  0.12395  0.94496  1.0000
  C   C33       1.0  0.69996  0.09844  0.09824  1.0000
  C   C34       1.0  0.37589  0.16588  0.9202300000000001  1.0000
  C   C35       1.0  0.45625  0.21496  0.96372  1.0000
  C   C36       1.0  0.2257  0.18887  0.12904  1.0000
  C   C37       1.0  0.28173  0.32005  0.44364000000000003  1.0000
  C   C38       1.0  0.47043  0.45341  0.34794  1.0000
  C   C39       1.0  0.19993  0.36925  0.48761000000000004  1.0000
  C   C40       1.0  0.52197  0.4823200000000001  0.4684900000000001  1.0000
  C   C41       1.0  0.66169  0.437  0.46114  1.0000
  C   C42       1.0  0.43057000000000006  0.49005999999999994  0.40727  1.0000
  C   C43       1.0  0.40925  0.27804  0.46864  1.0000
  C   C44       1.0  0.24679  0.37672999999999995  0.55557  1.0000
  C   C45       1.0  0.6996500000000001  0.40158  0.4009  1.0000
  C   C46       1.0  0.37484  0.33468  0.58032  1.0000
  C   C47       1.0  0.45568  0.28531  0.53692  1.0000
  C   C48       1.0  0.22598  0.31096  0.372  1.0000
  C   C49       1.0  0.78182  0.18195  0.4431300000000001  1.0000
  C   C50       1.0  0.9658399999999999  0.0467  0.3488  1.0000
  C   C51       1.0  0.6999  0.13259  0.48622  1.0000
  C   C52       1.0  0.02102  0.01768  0.46864  1.0000
  C   C53       1.0  0.15989  0.06327  0.46147  1.0000
  C   C54       1.0  0.92809  0.00981  0.40777  1.0000
  C   C55       1.0  0.9097  0.22341000000000003  0.46882000000000007  1.0000
  C   C56       1.0  0.74726  0.12431  0.55391  1.0000
  C   C57       1.0  0.19562  0.09893  0.40162000000000003  1.0000
  C   C58       1.0  0.87577  0.16576  0.57935  1.0000
  C   C59       1.0  0.95652  0.21533  0.53687  1.0000
  C   C60       1.0  0.72528  0.19174  0.37185  1.0000
  C   C61       1.0  0.78222  0.31909  0.05591000000000001  1.0000
  C   C62       1.0  0.9654  0.4537300000000001  0.15155  1.0000
  C   C63       1.0  0.70009  0.36803  0.01259  1.0000
  C   C64       1.0  0.021050000000000003  0.48244000000000004  0.03141  1.0000
  C   C65       1.0  0.16013  0.43686  0.03865  1.0000
  C   C66       1.0  0.92799  0.49049  0.09251  1.0000
  C   C67       1.0  0.91051  0.27741  0.03033  1.0000
  C   C68       1.0  0.74786  0.3757  0.9447500000000001  1.0000
  C   C69       1.0  0.19568999999999998  0.40131  0.09855000000000001  1.0000
  C   C70       1.0  0.87649  0.33388  0.91941  1.0000
  C   C71       1.0  0.9574299999999999  0.28476  0.9621400000000001  1.0000
  C   C72       1.0  0.72652  0.30978  0.12757  1.0000
  C   C73       1.0  0.71832  0.82007  0.9428200000000001  1.0000
  C   C74       1.0  0.5292  0.9530399999999999  0.84795  1.0000
  C   C75       1.0  0.7999200000000001  0.86891  0.98698  1.0000
  C   C76       1.0  0.4778700000000001  0.98228  0.9686000000000001  1.0000
  C   C77       1.0  0.33807  0.9371300000000001  0.96182  1.0000
  C   C78       1.0  0.56917  0.98979  0.9071100000000001  1.0000
  C   C79       1.0  0.59068  0.77807  0.9679200000000001  1.0000
  C   C80       1.0  0.75245  0.87605  0.05503000000000001  1.0000
  C   C81       1.0  0.30003  0.90156  0.90176  1.0000
  C   C82       1.0  0.6241  0.83412  0.07976  1.0000
  C   C83       1.0  0.54374  0.78504  0.03628000000000001  1.0000
  C   C84       1.0  0.77429  0.81113  0.87096  1.0000
  C   C85       1.0  0.71826  0.67995  0.55635  1.0000
  C   C86       1.0  0.52957  0.5465900000000001  0.6520600000000001  1.0000
  C   C87       1.0  0.80006  0.63075  0.5123800000000001  1.0000
  C   C88       1.0  0.47801999999999994  0.5176799999999999  0.5315  1.0000
  C   C89       1.0  0.33831  0.563  0.5388500000000002  1.0000
  C   C90       1.0  0.56942  0.50993  0.59272  1.0000
  C   C91       1.0  0.5907500000000001  0.72196  0.53135  1.0000
  C   C92       1.0  0.7532100000000002  0.62327  0.44443  1.0000
  C   C93       1.0  0.30034  0.59842  0.5991  1.0000
  C   C94       1.0  0.62515  0.66532  0.41968  1.0000
  C   C95       1.0  0.54431  0.71469  0.46308000000000005  1.0000
  C   C96       1.0  0.77401  0.68904  0.628  1.0000
  N   N1        1.0  0.9035  0.9073699999999999  0.65392  1.0000
  N   N2        1.0  0.9037500000000002  0.59225  0.8456900000000002  1.0000
  N   N3        1.0  0.60229  0.09241  0.15453  1.0000
  N   N4        1.0  0.60197  0.40784  0.34488  1.0000
  N   N5        1.0  0.09649  0.09263  0.34608  1.0000
  N   N6        1.0  0.09624  0.40775  0.15431  1.0000
  N   N7        1.0  0.3977  0.90759  0.84546  1.0000
  N   N8        1.0  0.39803  0.59216  0.65511  1.0000
  O   O1        1.0  0.87229  0.86958  0.71143  1.0000
  O   O2        1.0  0.1865  0.77469  0.67319  1.0000
  O   O3        1.0  0.41446  0.82951  0.64337  1.0000
  O   O4        1.0  0.87259  0.62979  0.78799  1.0000
  O   O5        1.0  0.18354  0.72247  0.8275  1.0000
  O   O6        1.0  0.41442  0.67024  0.8570300000000001  1.0000
  O   O7        1.0  0.63523  0.12994  0.21259  1.0000
  O   O8        1.0  0.31432  0.22216  0.17442  1.0000
  O   O9        1.0  0.08588  0.16767  0.14448  1.0000
  O   O10       1.0  0.63502  0.37055  0.28656  1.0000
  O   O11       1.0  0.31571000000000005  0.27833  0.32644  1.0000
  O   O12       1.0  0.08553  0.3314  0.35702  1.0000
  O   O13       1.0  0.1277  0.13042  0.28857  1.0000
  O   O14       1.0  0.81349  0.22531  0.32681000000000004  1.0000
  O   O15       1.0  0.58553  0.17049  0.35662  1.0000
  O   O16       1.0  0.12741  0.3702  0.21201000000000003  1.0000
  O   O17       1.0  0.81645  0.27753  0.1725  1.0000
  O   O18       1.0  0.58557  0.32976  0.14297  1.0000
  O   O19       1.0  0.36476  0.87006  0.7874100000000002  1.0000
  O   O20       1.0  0.68568  0.77784  0.8255800000000001  1.0000
  O   O21       1.0  0.91411  0.83233  0.85552  1.0000
  O   O22       1.0  0.36497  0.62945  0.71344  1.0000
  O   O23       1.0  0.68428  0.72167  0.67356  1.0000
  O   O24       1.0  0.91446  0.6686  0.64297  1.0000
