data_image0
_chemical_formula_structural       Ag4H60C96N12O24
_chemical_formula_sum              "Ag4 H60 C96 N12 O24"
_cell_length_a       10.34419
_cell_length_b       16.28874
_cell_length_c       20.28225
_cell_angle_alpha    86.78365
_cell_angle_beta     80.40515
_cell_angle_gamma    71.23323

_space_group_name_H-M_alt    "P 1"
_space_group_IT_number       1

loop_
  _space_group_symop_operation_xyz
  'x, y, z'

loop_
  _atom_site_type_symbol
  _atom_site_label
  _atom_site_symmetry_multiplicity
  _atom_site_fract_x
  _atom_site_fract_y
  _atom_site_fract_z
  _atom_site_occupancy
  Ag  Ag1       1.0  0.77164  0.6083  0.03379  1.0000
  Ag  Ag2       1.0  0.3806  0.39069  0.53375  1.0000
  Ag  Ag3       1.0  0.22837000000000013  0.3917  0.96621  1.0000
  Ag  Ag4       1.0  0.6194  0.6093099999999999  0.46625000000000005  1.0000
  H   H1        1.0  0.26317  0.1861  0.75055  1.0000
  H   H2        1.0  0.13698000000000002  0.10273  0.25196  1.0000
  H   H3        1.0  0.09421000000000002  0.8069699999999999  0.98322  1.0000
  H   H4        1.0  0.45004  0.45766  0.18173  1.0000
  H   H5        1.0  0.95959  0.64861  0.4820400000000001  1.0000
  H   H6        1.0  0.6597599999999999  0.81224  0.0123  1.0000
  H   H7        1.0  0.24192  0.89845  0.75507  1.0000
  H   H8        1.0  0.47087  0.18606  0.51433  1.0000
  H   H9        1.0  0.46764000000000006  0.04478  0.56898  1.0000
  H   H10       1.0  0.6402699999999999  0.82512  0.62767  1.0000
  H   H11       1.0  0.75951  0.36263  0.32212  1.0000
  H   H12       1.0  0.20512999999999995  0.55381  0.46780000000000005  1.0000
  H   H13       1.0  0.9185900000000004  0.74604  0.04973000000000001  1.0000
  H   H14       1.0  0.46582  0.17278  0.12547  1.0000
  H   H15       1.0  0.9505199999999998  0.58044  0.8953700000000001  1.0000
  H   H16       1.0  0.6013200000000001  0.54947  0.15885000000000002  1.0000
  H   H17       1.0  0.6672000000000001  0.25296  0.54983  1.0000
  H   H18       1.0  0.5141800000000002  0.95425  0.06523  1.0000
  H   H19       1.0  0.15092  0.45019  0.65843  1.0000
  H   H20       1.0  0.49091999999999997  0.62961  0.7366  1.0000
  H   H21       1.0  0.90451  0.19262  0.4836  1.0000
  H   H22       1.0  0.9061800000000001  0.54198  0.68092  1.0000
  H   H23       1.0  0.6051800000000002  0.67919  0.18936  1.0000
  H   H24       1.0  0.12124999999999998  0.63711  0.82218  1.0000
  H   H25       1.0  0.4484900000000002  0.8150999999999998  0.2481  1.0000
  H   H26       1.0  0.28362  0.32108  0.69018  1.0000
  H   H27       1.0  0.75951  0.44672  0.96822  1.0000
  H   H28       1.0  0.6094500000000003  0.3521  0.98267  1.0000
  H   H29       1.0  0.53164  0.41891  0.39499  1.0000
  H   H30       1.0  0.12863999999999995  0.36914  0.23856  1.0000
  H   H31       1.0  0.73684  0.81389  0.24944999999999998  1.0000
  H   H32       1.0  0.5499700000000001  0.54233  0.8182700000000002  1.0000
  H   H33       1.0  0.35973000000000005  0.17487999999999998  0.37233000000000005  1.0000
  H   H34       1.0  0.09549999999999997  0.80737  0.5164  1.0000
  H   H35       1.0  0.90579  0.19302  0.01678  1.0000
  H   H36       1.0  0.7948800000000006  0.44618  0.5322  1.0000
  H   H37       1.0  0.39868  0.45053  0.84115  1.0000
  H   H38       1.0  0.5323700000000001  0.95521  0.43101999999999996  1.0000
  H   H39       1.0  0.3402499999999999  0.18775  0.9877000000000001  1.0000
  H   H40       1.0  0.08141000000000005  0.25396  0.9502699999999998  1.0000
  H   H41       1.0  0.2405  0.55327  0.03178  1.0000
  H   H42       1.0  0.7163800000000001  0.67892  0.30983  1.0000
  H   H43       1.0  0.04041000000000003  0.35138  0.51796  1.0000
  H   H44       1.0  0.8713700000000008  0.63085  0.76144  1.0000
  H   H45       1.0  0.52913  0.81394  0.48567000000000005  1.0000
  H   H46       1.0  0.5515099999999996  0.18489  0.7519  1.0000
  H   H47       1.0  0.48582000000000003  0.04574  0.93478  1.0000
  H   H48       1.0  0.39483  0.3208  0.81065  1.0000
  H   H49       1.0  0.46837  0.58108  0.6050100000000002  1.0000
  H   H50       1.0  0.09382000000000004  0.45801999999999987  0.31908000000000003  1.0000
  H   H51       1.0  0.04947999999999995  0.41956  0.10463000000000001  1.0000
  H   H52       1.0  0.8787500000000001  0.36288  0.17782  1.0000
  H   H53       1.0  0.5090800000000001  0.3703799999999999  0.2634  1.0000
  H   H54       1.0  0.24050000000000005  0.63737  0.67789  1.0000
  H   H55       1.0  0.8630300000000001  0.89726  0.74804  1.0000
  H   H56       1.0  0.7580799999999999  0.10154  0.24493  1.0000
  H   H57       1.0  0.5341900000000002  0.82721  0.8745299999999999  1.0000
  H   H58       1.0  0.3328100000000002  0.7470299999999997  0.45017  1.0000
  H   H59       1.0  0.8490800000000001  0.5498  0.34158  1.0000
  H   H60       1.0  0.39055  0.64789  0.017340000000000005  1.0000
  C   C1        1.0  0.7668300000000001  0.65735  0.58996  1.0000
  C   C2        1.0  0.74374  0.33746  0.37246  1.0000
  C   C3        1.0  0.47660000000000013  0.69676  0.7225  1.0000
  C   C4        1.0  0.9094300000000001  0.6022599999999998  0.58225  1.0000
  C   C5        1.0  0.10502  0.49496  0.62059  1.0000
  C   C6        1.0  0.9990000000000001  0.60489  0.52181  1.0000
  C   C7        1.0  0.12314000000000012  0.7259699999999998  0.89756  1.0000
  C   C8        1.0  0.42628000000000005  0.34291  0.09076  1.0000
  C   C9        1.0  0.3103000000000001  0.18441  0.6983500000000001  1.0000
  C   C10       1.0  0.60509  0.39551  0.02241  1.0000
  C   C11       1.0  0.30577000000000004  0.1308  0.18577  1.0000
  C   C12       1.0  0.5600700000000001  0.8065799999999997  0.66057  1.0000
  C   C13       1.0  0.57679  0.71996  0.6775900000000001  1.0000
  C   C14       1.0  0.8233900000000001  0.24237  0.46280000000000004  1.0000
  C   C15       1.0  0.4380799999999999  0.86904  0.6882900000000001  1.0000
  C   C16       1.0  0.30090999999999996  0.27866  0.17792  1.0000
  C   C17       1.0  0.3678500000000001  0.19227  0.15902  1.0000
  C   C18       1.0  0.23082000000000008  0.75914  0.86002  1.0000
  C   C19       1.0  0.49413000000000024  0.81601  0.19587  1.0000
  C   C20       1.0  0.13489  0.55207  0.51375  1.0000
  C   C21       1.0  0.07951000000000012  0.6623999999999998  0.87239  1.0000
  C   C22       1.0  0.12281  0.23819  0.25046  1.0000
  C   C23       1.0  0.6876500000000001  0.44827  0.014180000000000002  1.0000
  C   C24       1.0  0.36659  0.10462999999999999  0.66491  1.0000
  C   C25       1.0  0.51342  0.39786  0.08298  1.0000
  C   C26       1.0  0.32175  0.25885  0.66455  1.0000
  C   C27       1.0  0.51646  0.45337  0.13373  1.0000
  C   C28       1.0  0.4285100000000001  0.18308  0.56697  1.0000
  C   C29       1.0  0.42456  0.10488  0.59717  1.0000
  C   C30       1.0  0.6006600000000001  0.50491  0.12105000000000002  1.0000
  C   C31       1.0  0.96867  0.54639  0.63304  1.0000
  C   C32       1.0  0.36629000000000006  0.02492  0.70391  1.0000
  C   C33       1.0  0.58089  0.74112  0.16305  1.0000
  C   C34       1.0  0.5301400000000002  0.8944399999999998  0.09396  1.0000
  C   C35       1.0  0.9845599999999999  0.63067  0.913  1.0000
  C   C36       1.0  0.6131600000000001  0.8157899999999998  0.06476  1.0000
  C   C37       1.0  0.47054000000000007  0.89538  0.16154  1.0000
  C   C38       1.0  0.85221  0.27408  0.39772  1.0000
  C   C39       1.0  0.17869  0.30209  0.22368  1.0000
  C   C40       1.0  0.96713  0.72321  0.9994400000000001  1.0000
  C   C41       1.0  0.18328  0.15154  0.23166000000000003  1.0000
  C   C42       1.0  0.06288999999999996  0.75737  0.9626500000000001  1.0000
  C   C43       1.0  0.3901300000000001  0.97513  0.2001  1.0000
  C   C44       1.0  0.3587400000000002  0.7616199999999999  0.7505700000000001  1.0000
  C   C45       1.0  0.9931499999999999  0.24093  0.35995  1.0000
  C   C46       1.0  0.3351600000000001  0.84873  0.7336  1.0000
  C   C47       1.0  0.6165900000000001  0.36899  0.41302000000000005  1.0000
  C   C48       1.0  0.69295  0.2762  0.49959000000000003  1.0000
  C   C49       1.0  0.57544  0.89512  0.40283  1.0000
  C   C50       1.0  0.42322000000000004  0.28004  0.32241  1.0000
  C   C51       1.0  0.4399399999999998  0.19341  0.33943  1.0000
  C   C52       1.0  0.87687  0.27402  0.10244  1.0000
  C   C53       1.0  0.6942300000000001  0.86919  0.8142300000000001  1.0000
  C   C54       1.0  0.68971  0.81558  0.30165  1.0000
  C   C55       1.0  0.8651200000000001  0.44792  0.48625  1.0000
  C   C56       1.0  0.63372  0.97507  0.2961  1.0000
  C   C57       1.0  0.03288000000000006  0.27678999999999987  0.00056  1.0000
  C   C58       1.0  0.09057000000000003  0.39774  0.41775000000000007  1.0000
  C   C59       1.0  0.9371200000000001  0.24263  0.03735  1.0000
  C   C60       1.0  0.6334200000000002  0.89536  0.3351  1.0000
  C   C61       1.0  0.39492000000000005  0.60449  0.97759  1.0000
  C   C62       1.0  0.14780000000000001  0.72591  0.60228  1.0000
  C   C63       1.0  0.89498  0.50503  0.37942000000000004  1.0000
  C   C64       1.0  0.0010000000000000514  0.39510999999999996  0.47819  1.0000
  C   C65       1.0  0.67826  0.74114  0.33545  1.0000
  C   C66       1.0  0.5058700000000003  0.18398999999999993  0.80414  1.0000
  C   C67       1.0  0.5714899999999998  0.81692  0.4330300000000001  1.0000
  C   C68       1.0  0.60988  0.02486  0.7999000000000002  1.0000
  C   C69       1.0  0.41912000000000005  0.25887000000000004  0.83695  1.0000
  C   C70       1.0  0.46986  0.10556  0.90604  1.0000
  C   C71       1.0  0.8772000000000001  0.76181  0.74954  1.0000
  C   C72       1.0  0.39934999999999976  0.49509  0.87896  1.0000
  C   C73       1.0  0.56193  0.13096  0.31171  1.0000
  C   C74       1.0  0.7691899999999999  0.24086  0.13998  1.0000
  C   C75       1.0  0.63216  0.80772  0.84098  1.0000
  C   C76       1.0  0.3070600000000001  0.7238  0.50041  1.0000
  C   C77       1.0  0.6648399999999999  0.15126  0.2664  1.0000
  C   C78       1.0  0.48355000000000026  0.54663  0.8662700000000001  1.0000
  C   C79       1.0  0.3834099999999999  0.631  0.58698  1.0000
  C   C80       1.0  0.25626000000000004  0.66253  0.62754  1.0000
  C   C81       1.0  0.52947  0.10461  0.83846  1.0000
  C   C82       1.0  0.38685000000000025  0.18420999999999996  0.93524  1.0000
  C   C83       1.0  0.82131  0.6979  0.77632  1.0000
  C   C84       1.0  0.31236000000000014  0.5517199999999998  0.9858200000000001  1.0000
  C   C85       1.0  0.00686000000000008  0.75906  0.64005  1.0000
  C   C86       1.0  0.52341  0.30323  0.2775  1.0000
  C   C87       1.0  0.57373  0.65709  0.9092399999999999  1.0000
  C   C88       1.0  0.6990900000000002  0.72133  0.82208  1.0000
  C   C89       1.0  0.8167300000000002  0.84846  0.7683500000000001  1.0000
  C   C90       1.0  0.9204900000000003  0.33758999999999995  0.12761  1.0000
  C   C91       1.0  0.03134000000000007  0.45360999999999996  0.36696  1.0000
  C   C92       1.0  0.17661  0.75762  0.5372  1.0000
  C   C93       1.0  0.6412700000000001  0.23837  0.24943  1.0000
  C   C94       1.0  0.23317999999999997  0.34265  0.41005  1.0000
  C   C95       1.0  0.48658000000000007  0.60214  0.9170199999999998  1.0000
  C   C96       1.0  0.015440000000000002  0.36933  0.087  1.0000
  N   N1        1.0  0.9284  0.65928  0.97612  1.0000
  N   N2        1.0  0.19038  0.49526  0.5616  1.0000
  N   N3        1.0  0.58943  0.34032  0.47625  1.0000
  N   N4        1.0  0.38161000000000006  0.25942  0.60008  1.0000
  N   N5        1.0  0.68611  0.50465  0.06202  1.0000
  N   N6        1.0  0.6423400000000001  0.73984  0.09871  1.0000
  N   N7        1.0  0.4105699999999999  0.65968  0.52376  1.0000
  N   N8        1.0  0.07160000000000002  0.34072  0.02388  1.0000
  N   N9        1.0  0.31389  0.49534  0.93798  1.0000
  N   N10       1.0  0.6184  0.74058  0.39992  1.0000
  N   N11       1.0  0.35766000000000003  0.26015  0.9012900000000001  1.0000
  N   N12       1.0  0.8096300000000001  0.50474  0.4384  1.0000
  O   O1        1.0  0.42251  0.95305  0.6632  1.0000
  O   O2        1.0  0.37037  0.04722  0.15926  1.0000
  O   O3        1.0  0.3552  0.34508  0.15648  1.0000
  O   O4        1.0  0.09632000000000002  0.19884  0.3833  1.0000
  O   O5        1.0  0.25847999999999993  0.73465  0.7931600000000001  1.0000
  O   O6        1.0  0.6967500000000002  0.6533  0.65534  1.0000
  O   O7        1.0  0.34948000000000007  0.97643  0.26023  1.0000
  O   O8        1.0  0.32396  0.02353  0.76369  1.0000
  O   O9        1.0  0.40911  0.301  0.04593  1.0000
  O   O10       1.0  0.9952000000000002  0.26557  0.29303  1.0000
  O   O11       1.0  0.7075300000000001  0.70043  0.54527  1.0000
  O   O12       1.0  0.2911100000000001  0.8008499999999997  0.8836600000000001  1.0000
  O   O13       1.0  0.74152  0.26535  0.20684  1.0000
  O   O14       1.0  0.7088900000000002  0.19914  0.11634  1.0000
  O   O15       1.0  0.6448000000000006  0.65492  0.84352  1.0000
  O   O16       1.0  0.65052  0.02356  0.73977  1.0000
  O   O17       1.0  0.62963  0.95278  0.8407400000000002  1.0000
  O   O18       1.0  0.57749  0.04694  0.33680000000000004  1.0000
  O   O19       1.0  0.6760499999999999  0.97646  0.23631000000000002  1.0000
  O   O20       1.0  0.90368  0.80115  0.61671  1.0000
  O   O21       1.0  0.29247999999999996  0.29957  0.45473  1.0000
  O   O22       1.0  0.5909000000000001  0.699  0.95407  1.0000
  O   O23       1.0  0.30326000000000014  0.3466999999999999  0.34466  1.0000
  O   O24       1.0  0.004809999999999987  0.73443  0.70697  1.0000
