data_image0
_chemical_formula_structural       Dy4Mn6H36C84N12O48
_chemical_formula_sum              "Dy4 Mn6 H36 C84 N12 O48"
_cell_length_a       15.25626
_cell_length_b       15.24945
_cell_length_c       15.539550000000002
_cell_angle_alpha    89.90484999999998
_cell_angle_beta     89.96348999999998
_cell_angle_gamma    120.10522000000002

_space_group_name_H-M_alt    "P 1"
_space_group_IT_number       1

loop_
  _space_group_symop_operation_xyz
  'x, y, z'

loop_
  _atom_site_type_symbol
  _atom_site_label
  _atom_site_symmetry_multiplicity
  _atom_site_fract_x
  _atom_site_fract_y
  _atom_site_fract_z
  _atom_site_occupancy
  Dy  Dy1       1.0  0.66677  0.33338  0.25753  1.0000
  Dy  Dy2       1.0  0.33329  0.66657  0.25109  1.0000
  Dy  Dy3       1.0  0.33337  0.66674  0.74893  1.0000
  Dy  Dy4       1.0  0.66739  0.3326  0.74683  1.0000
  Mn  Mn1       1.0  0.50148  0.4994  0.00013  1.0000
  Mn  Mn2       1.0  0.50122  0.99996  0.99971  1.0000
  Mn  Mn3       1.0  0.9991599999999999  0.4997599999999999  0.00065  1.0000
  Mn  Mn4       1.0  0.49985  0.50135  0.49994  1.0000
  Mn  Mn5       1.0  0.0001400000000000082  0.5012  0.49986  1.0000
  Mn  Mn6       1.0  0.50074  0.9995699999999998  0.50081  1.0000
  H   H1        1.0  0.28748  0.24166  0.14838  1.0000
  H   H2        1.0  0.75764  0.04453  0.14855  1.0000
  H   H3        1.0  0.9561900000000001  0.71415  0.1481  1.0000
  H   H4        1.0  0.71458  0.75804  0.1483  1.0000
  H   H5        1.0  0.24317000000000005  0.95708  0.14813  1.0000
  H   H6        1.0  0.043050000000000005  0.28485  0.14811  1.0000
  H   H7        1.0  0.23999000000000004  0.28202  0.34923  1.0000
  H   H8        1.0  0.04283999999999995  0.7595199999999999  0.34953000000000006  1.0000
  H   H9        1.0  0.71616  0.95699  0.34954  1.0000
  H   H10       1.0  0.76007  0.71816  0.3497  1.0000
  H   H11       1.0  0.9578499999999999  0.24071  0.34988  1.0000
  H   H12       1.0  0.2819  0.04214  0.35161  1.0000
  H   H13       1.0  0.7145499999999999  0.75734  0.8516  1.0000
  H   H14       1.0  0.24247  0.95706  0.8517400000000002  1.0000
  H   H15       1.0  0.04316000000000003  0.28518  0.8524  1.0000
  H   H16       1.0  0.28655  0.24224  0.85122  1.0000
  H   H17       1.0  0.75953  0.04325  0.85093  1.0000
  H   H18       1.0  0.95612  0.71395  0.85129  1.0000
  H   H19       1.0  0.75897  0.71612  0.64997  1.0000
  H   H20       1.0  0.95798  0.24094  0.64863  1.0000
  H   H21       1.0  0.2842  0.04332  0.64952  1.0000
  H   H22       1.0  0.24093999999999996  0.28431  0.65078  1.0000
  H   H23       1.0  0.04285000000000003  0.76008  0.65058  1.0000
  H   H24       1.0  0.71758  0.9573  0.65005  1.0000
  H   H25       1.0  0.18631999999999996  0.09279  0.24844  1.0000
  H   H26       1.0  0.90689  0.09344000000000001  0.24779  1.0000
  H   H27       1.0  0.90736  0.8147  0.24707  1.0000
  H   H28       1.0  0.8137  0.90683  0.24819  1.0000
  H   H29       1.0  0.09424999999999996  0.90788  0.24824000000000004  1.0000
  H   H30       1.0  0.09221999999999995  0.18495999999999999  0.24791  1.0000
  H   H31       1.0  0.81453  0.90617  0.75119  1.0000
  H   H32       1.0  0.09375000000000004  0.9079600000000001  0.7517400000000002  1.0000
  H   H33       1.0  0.09325  0.18632  0.75261  1.0000
  H   H34       1.0  0.18674  0.09396  0.75084  1.0000
  H   H35       1.0  0.90823  0.09314999999999998  0.75035  1.0000
  H   H36       1.0  0.9071  0.81362  0.75109  1.0000
  C   C1        1.0  0.49727999999999994  0.35662999999999995  0.14276  1.0000
  C   C2        1.0  0.42915999999999993  0.26739  0.19894  1.0000
  C   C3        1.0  0.32347999999999993  0.21596  0.19436  1.0000
  C   C4        1.0  0.64237  0.13852  0.14276  1.0000
  C   C5        1.0  0.73181  0.16059  0.19864  1.0000
  C   C6        1.0  0.78344  0.10664  0.1941  1.0000
  C   C7        1.0  0.86254  0.50492  0.14291  1.0000
  C   C8        1.0  0.8400200000000001  0.57205  0.19868  1.0000
  C   C9        1.0  0.89407  0.67782  0.19384  1.0000
  C   C10       1.0  0.50507  0.6426400000000001  0.14056  1.0000
  C   C11       1.0  0.5718  0.73228  0.19659  1.0000
  C   C12       1.0  0.67759  0.78373  0.19324  1.0000
  C   C13       1.0  0.35714999999999997  0.8623799999999999  0.14038  1.0000
  C   C14       1.0  0.26735000000000003  0.83912  0.19636  1.0000
  C   C15       1.0  0.21674999999999994  0.89413  0.1931  1.0000
  C   C16       1.0  0.13813  0.49414  0.14049  1.0000
  C   C17       1.0  0.16041  0.42716  0.19663  1.0000
  C   C18       1.0  0.1057  0.32141  0.19313  1.0000
  C   C19       1.0  0.35511  0.49149  0.36007  1.0000
  C   C20       1.0  0.26527  0.42581  0.30399  1.0000
  C   C21       1.0  0.21428000000000003  0.31994  0.3053  1.0000
  C   C22       1.0  0.13504000000000005  0.6433  0.35976  1.0000
  C   C23       1.0  0.1603499999999999  0.7335399999999999  0.30352  1.0000
  C   C24       1.0  0.10623000000000003  0.78511  0.30524  1.0000
  C   C25       1.0  0.50683  0.8620399999999999  0.36008  1.0000
  C   C26       1.0  0.57277  0.8383  0.30402  1.0000
  C   C27       1.0  0.67855  0.89345  0.3055  1.0000
  C   C28       1.0  0.64521  0.50961  0.3624  1.0000
  C   C29       1.0  0.73534  0.57434  0.30595  1.0000
  C   C30       1.0  0.78596  0.68018  0.30609  1.0000
  C   C31       1.0  0.8635300000000001  0.35482  0.3622  1.0000
  C   C32       1.0  0.83857  0.26506  0.30592  1.0000
  C   C33       1.0  0.89388  0.21472  0.30632  1.0000
  C   C34       1.0  0.49108999999999997  0.13635  0.3639  1.0000
  C   C35       1.0  0.42617  0.16102  0.30732  1.0000
  C   C36       1.0  0.32034999999999997  0.10589  0.30764  1.0000
  C   C37       1.0  0.50543  0.64291  0.85968  1.0000
  C   C38       1.0  0.5722499999999999  0.7328999999999999  0.80376  1.0000
  C   C39       1.0  0.6780199999999997  0.78367  0.80676  1.0000
  C   C40       1.0  0.35646  0.86216  0.85952  1.0000
  C   C41       1.0  0.2672799999999999  0.8397299999999999  0.80329  1.0000
  C   C42       1.0  0.2164  0.89443  0.8067000000000001  1.0000
  C   C43       1.0  0.13663  0.49447  0.85953  1.0000
  C   C44       1.0  0.15996999999999997  0.4280399999999999  0.80366  1.0000
  C   C45       1.0  0.10585  0.32223  0.80726  1.0000
  C   C46       1.0  0.49551  0.3566  0.85926  1.0000
  C   C47       1.0  0.42895  0.26699  0.80321  1.0000
  C   C48       1.0  0.32318  0.21618  0.80627  1.0000
  C   C49       1.0  0.64355  0.13528  0.85876  1.0000
  C   C50       1.0  0.7336  0.15984  0.80246  1.0000
  C   C51       1.0  0.7853  0.10591  0.80575  1.0000
  C   C52       1.0  0.8616  0.50471  0.85921  1.0000
  C   C53       1.0  0.8389799999999998  0.57142  0.80287  1.0000
  C   C54       1.0  0.8935500000000001  0.67724  0.80621  1.0000
  C   C55       1.0  0.6439199999999998  0.50738  0.63974  1.0000
  C   C56       1.0  0.73395  0.57271  0.6956400000000001  1.0000
  C   C57       1.0  0.78491  0.67854  0.69407  1.0000
  C   C58       1.0  0.86458  0.35582  0.63851  1.0000
  C   C59       1.0  0.83979  0.26567  0.69486  1.0000
  C   C60       1.0  0.89471  0.21494  0.69312  1.0000
  C   C61       1.0  0.49226  0.13673  0.63872  1.0000
  C   C62       1.0  0.42744  0.16100999999999996  0.69565  1.0000
  C   C63       1.0  0.32168  0.10648  0.69394  1.0000
  C   C64       1.0  0.35506  0.49393  0.63993  1.0000
  C   C65       1.0  0.2654  0.42758  0.69619  1.0000
  C   C66       1.0  0.21494  0.32177  0.6948700000000001  1.0000
  C   C67       1.0  0.13657  0.64478  0.64008  1.0000
  C   C68       1.0  0.16096000000000005  0.7347  0.69605  1.0000
  C   C69       1.0  0.10633  0.78575  0.69459  1.0000
  C   C70       1.0  0.5086299999999999  0.8640799999999998  0.64011  1.0000
  C   C71       1.0  0.57386  0.83954  0.6964  1.0000
  C   C72       1.0  0.67968  0.89393  0.69447  1.0000
  C   C73       1.0  0.26881  0.13434  0.25008  1.0000
  C   C74       1.0  0.8653  0.13425  0.24934  1.0000
  C   C75       1.0  0.8665  0.73217  0.24891000000000005  1.0000
  C   C76       1.0  0.73118  0.86527  0.24894  1.0000
  C   C77       1.0  0.13516999999999998  0.8663999999999998  0.24882  1.0000
  C   C78       1.0  0.13341  0.26751  0.24874  1.0000
  C   C79       1.0  0.73202  0.86519  0.75084  1.0000
  C   C80       1.0  0.13492000000000004  0.86672  0.75103  1.0000
  C   C81       1.0  0.13409  0.26886  0.75164  1.0000
  C   C82       1.0  0.26925  0.13494  0.75039  1.0000
  C   C83       1.0  0.86672  0.13404  0.74978  1.0000
  C   C84       1.0  0.86589  0.73108  0.75046  1.0000
  N   N1        1.0  0.47826  0.24009  0.25454  1.0000
  N   N2        1.0  0.75928  0.23754  0.25366  1.0000
  N   N3        1.0  0.76284  0.52243  0.25381  1.0000
  N   N4        1.0  0.52165  0.75967  0.25089  1.0000
  N   N5        1.0  0.23909999999999995  0.7608899999999998  0.25038  1.0000
  N   N6        1.0  0.23797  0.47723  0.25096  1.0000
  N   N7        1.0  0.52228  0.76087  0.74975  1.0000
  N   N8        1.0  0.23968  0.76211  0.74903  1.0000
  N   N9        1.0  0.23765  0.47845  0.74928  1.0000
  N   N10       1.0  0.479  0.23932  0.74898  1.0000
  N   N11       1.0  0.76094  0.23777  0.74816  1.0000
  N   N12       1.0  0.76141  0.5213  0.74854  1.0000
  O   O1        1.0  0.45257  0.38641  0.09118  1.0000
  O   O2        1.0  0.59181  0.39388999999999996  0.15143  1.0000
  O   O3        1.0  0.61362  0.06395  0.09121  1.0000
  O   O4        1.0  0.60443  0.19509  0.15154  1.0000
  O   O5        1.0  0.93758  0.55114  0.09156  1.0000
  O   O6        1.0  0.8060099999999998  0.41025  0.15145  1.0000
  O   O7        1.0  0.5515  0.61277  0.09105  1.0000
  O   O8        1.0  0.41023000000000004  0.60508  0.14731  1.0000
  O   O9        1.0  0.38736  0.93892  0.09087  1.0000
  O   O10       1.0  0.39459  0.80509  0.1472  1.0000
  O   O11       1.0  0.061549999999999994  0.44847  0.09118  1.0000
  O   O12       1.0  0.19667000000000007  0.58888  0.14699  1.0000
  O   O13       1.0  0.38663  0.44461  0.40745  1.0000
  O   O14       1.0  0.39158  0.58642  0.35498  1.0000
  O   O15       1.0  0.05692999999999995  0.61327  0.40747  1.0000
  O   O16       1.0  0.19171000000000002  0.60514  0.35493  1.0000
  O   O17       1.0  0.55327  0.94034  0.40746  1.0000
  O   O18       1.0  0.41198  0.80324  0.35498  1.0000
  O   O19       1.0  0.61324  0.5574  0.40787  1.0000
  O   O20       1.0  0.60873  0.41462  0.35947  1.0000
  O   O21       1.0  0.94324  0.3873  0.40756  1.0000
  O   O22       1.0  0.80443  0.39067  0.35926  1.0000
  O   O23       1.0  0.44386999999999993  0.05767  0.41104  1.0000
  O   O24       1.0  0.58614  0.19452999999999998  0.35949  1.0000
  O   O25       1.0  0.5518  0.61281  0.90903  1.0000
  O   O26       1.0  0.41064  0.60531  0.85283  1.0000
  O   O27       1.0  0.3871200000000001  0.93861  0.90892  1.0000
  O   O28       1.0  0.39281  0.80386  0.85298  1.0000
  O   O29       1.0  0.05993000000000001  0.44777  0.90889  1.0000
  O   O30       1.0  0.19407000000000002  0.58939  0.85277  1.0000
  O   O31       1.0  0.44891  0.38641  0.90878  1.0000
  O   O32       1.0  0.59036  0.39435  0.85243  1.0000
  O   O33       1.0  0.6142499999999999  0.05849  0.90813  1.0000
  O   O34       1.0  0.60512  0.19165  0.85239  1.0000
  O   O35       1.0  0.9377600000000001  0.55107  0.90892  1.0000
  O   O36       1.0  0.80395  0.40979  0.8525100000000001  1.0000
  O   O37       1.0  0.6129299999999999  0.55474  0.5924  1.0000
  O   O38       1.0  0.6068  0.4123899999999999  0.64486  1.0000
  O   O39       1.0  0.94129  0.38536  0.58926  1.0000
  O   O40       1.0  0.8083899999999996  0.39454  0.6449  1.0000
  O   O41       1.0  0.44457  0.05744  0.59273  1.0000
  O   O42       1.0  0.58726  0.19605  0.64148  1.0000
  O   O43       1.0  0.38692  0.44791  0.59221  1.0000
  O   O44       1.0  0.3912  0.5888  0.64505  1.0000
  O   O45       1.0  0.05813  0.61329  0.59277  1.0000
  O   O46       1.0  0.19480999999999998  0.60827  0.6451  1.0000
  O   O47       1.0  0.55618  0.94265  0.59268  1.0000
  O   O48       1.0  0.41379  0.80605  0.64474  1.0000
