data_image0
_chemical_formula_structural       In6H24C72N24O48
_chemical_formula_sum              "In6 H24 C72 N24 O48"
_cell_length_a       15.04669
_cell_length_b       15.04792
_cell_length_c       15.0485
_cell_angle_alpha    71.21794
_cell_angle_beta     71.30899
_cell_angle_gamma    71.30872

_space_group_name_H-M_alt    "P 1"
_space_group_IT_number       1

loop_
  _space_group_symop_operation_xyz
  'x, y, z'

loop_
  _atom_site_type_symbol
  _atom_site_label
  _atom_site_symmetry_multiplicity
  _atom_site_fract_x
  _atom_site_fract_y
  _atom_site_fract_z
  _atom_site_occupancy
  In  In1       1.0  0.08710999999999999  0.74955  0.4124  1.0000
  In  In2       1.0  0.41248  0.08722000000000006  0.7497099999999998  1.0000
  In  In3       1.0  0.7496299999999998  0.41254  0.08706  1.0000
  In  In4       1.0  0.91289  0.25045  0.5876  1.0000
  In  In5       1.0  0.5875199999999998  0.91277  0.25029  1.0000
  In  In6       1.0  0.25037  0.58746  0.91294  1.0000
  H   H1        1.0  0.13118  0.36915  0.4055  1.0000
  H   H2        1.0  0.10317999999999988  0.50288  0.4881  1.0000
  H   H3        1.0  0.40506  0.13119  0.36939  1.0000
  H   H4        1.0  0.4878299999999998  0.10327000000000001  0.50313  1.0000
  H   H5        1.0  0.36932  0.4051800000000001  0.1312  1.0000
  H   H6        1.0  0.5030899999999999  0.4879100000000001  0.10325  1.0000
  H   H7        1.0  0.09526000000000003  0.12990000000000002  0.36915999999999993  1.0000
  H   H8        1.0  0.012099999999999994  0.99637  0.39636  1.0000
  H   H9        1.0  0.12997  0.36914  0.09515999999999997  1.0000
  H   H10       1.0  0.99641  0.39639  0.01203  1.0000
  H   H11       1.0  0.36915  0.09487000000000001  0.13013  1.0000
  H   H12       1.0  0.39644999999999997  0.011840000000000059  0.9966099999999998  1.0000
  H   H13       1.0  0.86881  0.6308500000000002  0.5944999999999998  1.0000
  H   H14       1.0  0.8968199999999997  0.49712000000000006  0.5119  1.0000
  H   H15       1.0  0.59494  0.86881  0.63061  1.0000
  H   H16       1.0  0.51217  0.89673  0.49687  1.0000
  H   H17       1.0  0.63068  0.59481  0.8688  1.0000
  H   H18       1.0  0.4969099999999999  0.5120900000000003  0.8967499999999998  1.0000
  H   H19       1.0  0.9047399999999999  0.8701000000000001  0.6308399999999998  1.0000
  H   H20       1.0  0.9878999999999999  0.0036300000000000165  0.60363  1.0000
  H   H21       1.0  0.8700299999999999  0.6308600000000001  0.90484  1.0000
  H   H22       1.0  0.003579999999999992  0.6036  0.98797  1.0000
  H   H23       1.0  0.6308499999999999  0.90513  0.86986  1.0000
  H   H24       1.0  0.6035499999999998  0.9881500000000001  0.00338  1.0000
  C   C1        1.0  0.13825000000000004  0.62635  0.26098  1.0000
  C   C2        1.0  0.15843999999999997  0.5512300000000002  0.21525  1.0000
  C   C3        1.0  0.13491999999999998  0.44258000000000003  0.36367  1.0000
  C   C4        1.0  0.11744000000000002  0.51581  0.4100199999999999  1.0000
  C   C5        1.0  0.18489999999999995  0.5667000000000002  0.10645  1.0000
  C   C6        1.0  0.13975999999999994  0.7310300000000001  0.20440999999999998  1.0000
  C   C7        1.0  0.26091000000000003  0.13837000000000005  0.6263899999999999  1.0000
  C   C8        1.0  0.21511  0.15852  0.55124  1.0000
  C   C9        1.0  0.36336999999999997  0.13495000000000001  0.4427699999999999  1.0000
  C   C10       1.0  0.40978000000000003  0.11752999999999998  0.51601  1.0000
  C   C11       1.0  0.10635999999999993  0.1849100000000001  0.56672  1.0000
  C   C12       1.0  0.20451  0.13971999999999998  0.73103  1.0000
  C   C13       1.0  0.62637  0.26089  0.13829  1.0000
  C   C14       1.0  0.55121  0.21508  0.15849  1.0000
  C   C15       1.0  0.44271  0.36342000000000013  0.13494  1.0000
  C   C16       1.0  0.51596  0.40984  0.11747999999999997  1.0000
  C   C17       1.0  0.56668  0.10627  0.18491  1.0000
  C   C18       1.0  0.7309999999999999  0.20445000000000005  0.13974  1.0000
  C   C19       1.0  0.23890999999999998  0.8728600000000001  0.3617899999999999  1.0000
  C   C20       1.0  0.28507  0.94738  0.3429699999999999  1.0000
  C   C21       1.0  0.13684  0.05636000000000001  0.36573  1.0000
  C   C22       1.0  0.09016999999999993  0.9834200000000002  0.3824699999999999  1.0000
  C   C23       1.0  0.39422  0.9302800000000001  0.31829  1.0000
  C   C24       1.0  0.29535  0.76842  0.3598399999999999  1.0000
  C   C25       1.0  0.87287  0.36191  0.23890999999999998  1.0000
  C   C26       1.0  0.9473899999999998  0.3430600000000001  0.28507  1.0000
  C   C27       1.0  0.056409999999999995  0.36576000000000003  0.13678  1.0000
  C   C28       1.0  0.9834699999999995  0.38253  0.09012  1.0000
  C   C29       1.0  0.93033  0.31831  0.39426  1.0000
  C   C30       1.0  0.76842  0.35989000000000004  0.2954  1.0000
  C   C31       1.0  0.36194  0.23884  0.87289  1.0000
  C   C32       1.0  0.3430500000000001  0.2849400000000001  0.94738  1.0000
  C   C33       1.0  0.36576  0.13655  0.05652999999999998  1.0000
  C   C34       1.0  0.38257999999999975  0.08994999999999999  0.9836  1.0000
  C   C35       1.0  0.3182900000000001  0.39413000000000004  0.9303099999999999  1.0000
  C   C36       1.0  0.35986000000000007  0.2954600000000001  0.7684099999999998  1.0000
  C   C37       1.0  0.8617500000000001  0.37365000000000004  0.73901  1.0000
  C   C38       1.0  0.8415600000000001  0.44877  0.7847499999999997  1.0000
  C   C39       1.0  0.86508  0.55741  0.63632  1.0000
  C   C40       1.0  0.8825600000000001  0.48419  0.5899799999999998  1.0000
  C   C41       1.0  0.8151  0.43330000000000024  0.89355  1.0000
  C   C42       1.0  0.8602399999999999  0.26897000000000004  0.7955899999999998  1.0000
  C   C43       1.0  0.73909  0.86163  0.37361  1.0000
  C   C44       1.0  0.78489  0.84147  0.44876  1.0000
  C   C45       1.0  0.6366299999999996  0.86505  0.55723  1.0000
  C   C46       1.0  0.59022  0.88247  0.48399  1.0000
  C   C47       1.0  0.89364  0.8150900000000001  0.43326999999999993  1.0000
  C   C48       1.0  0.7954899999999999  0.8602700000000001  0.26897  1.0000
  C   C49       1.0  0.37362999999999996  0.7391100000000002  0.8617099999999999  1.0000
  C   C50       1.0  0.44878999999999997  0.78492  0.84151  1.0000
  C   C51       1.0  0.55729  0.63658  0.8650599999999999  1.0000
  C   C52       1.0  0.48404  0.59016  0.8825199999999999  1.0000
  C   C53       1.0  0.4333199999999999  0.89373  0.81508  1.0000
  C   C54       1.0  0.26899999999999996  0.79555  0.86025  1.0000
  C   C55       1.0  0.7610899999999999  0.1271400000000001  0.6382099999999998  1.0000
  C   C56       1.0  0.7149300000000001  0.05261000000000006  0.6570299999999998  1.0000
  C   C57       1.0  0.86316  0.94364  0.63427  1.0000
  C   C58       1.0  0.90983  0.016580000000000008  0.61752  1.0000
  C   C59       1.0  0.60578  0.06971999999999999  0.68171  1.0000
  C   C60       1.0  0.70465  0.23157000000000003  0.64016  1.0000
  C   C61       1.0  0.12713000000000002  0.63809  0.76108  1.0000
  C   C62       1.0  0.052609999999999935  0.6569300000000003  0.7149199999999999  1.0000
  C   C63       1.0  0.94359  0.63424  0.86322  1.0000
  C   C64       1.0  0.016530000000000024  0.6174700000000001  0.9098699999999997  1.0000
  C   C65       1.0  0.06965999999999994  0.6816800000000001  0.60574  1.0000
  C   C66       1.0  0.23157999999999992  0.6401  0.7046  1.0000
  C   C67       1.0  0.63806  0.76115  0.12711  1.0000
  C   C68       1.0  0.65695  0.71506  0.05262  1.0000
  C   C69       1.0  0.6342400000000001  0.8634500000000003  0.94347  1.0000
  C   C70       1.0  0.6174199999999999  0.9100500000000001  0.01639  1.0000
  C   C71       1.0  0.6817099999999998  0.60587  0.06969  1.0000
  C   C72       1.0  0.64014  0.70454  0.23158  1.0000
  N   N1        1.0  0.11884999999999998  0.60615  0.35695  1.0000
  N   N2        1.0  0.15608000000000002  0.46144  0.26727  1.0000
  N   N3        1.0  0.3568299999999999  0.11901000000000003  0.60627  1.0000
  N   N4        1.0  0.26699000000000006  0.15613000000000002  0.46151  1.0000
  N   N5        1.0  0.60625  0.35685  0.11887999999999997  1.0000
  N   N6        1.0  0.46148  0.26701  0.15609  1.0000
  N   N7        1.0  0.14302999999999993  0.89321  0.3805  1.0000
  N   N8        1.0  0.23329  0.03717000000000001  0.34539  1.0000
  N   N9        1.0  0.89324  0.38063  0.143  1.0000
  N   N10       1.0  0.03717999999999996  0.3454700000000001  0.23327  1.0000
  N   N11       1.0  0.3806899999999999  0.14291  0.89332  1.0000
  N   N12       1.0  0.3454199999999999  0.23304  0.03724  1.0000
  N   N13       1.0  0.8811500000000001  0.39383999999999997  0.64305  1.0000
  N   N14       1.0  0.8439199999999999  0.5385600000000003  0.73273  1.0000
  N   N15       1.0  0.64317  0.8809800000000002  0.39373  1.0000
  N   N16       1.0  0.7330100000000002  0.84387  0.53848  1.0000
  N   N17       1.0  0.39374999999999993  0.6431500000000001  0.88112  1.0000
  N   N18       1.0  0.5385200000000001  0.7329899999999999  0.8439  1.0000
  N   N19       1.0  0.8569699999999999  0.10678999999999998  0.6195  1.0000
  N   N20       1.0  0.76671  0.9628300000000001  0.6546  1.0000
  N   N21       1.0  0.1067600000000001  0.61937  0.8569999999999998  1.0000
  N   N22       1.0  0.9628200000000002  0.6545299999999998  0.76673  1.0000
  N   N23       1.0  0.6193100000000001  0.85709  0.10668  1.0000
  N   N24       1.0  0.65458  0.76696  0.96276  1.0000
  O   O1        1.0  0.11141000000000001  0.79454  0.25433  1.0000
  O   O2        1.0  0.27528  0.54885  0.06557  1.0000
  O   O3        1.0  0.41043999999999997  0.93719  0.8807199999999998  1.0000
  O   O4        1.0  0.16932  0.74554  0.11523  1.0000
  O   O5        1.0  0.25451  0.11144  0.79457  1.0000
  O   O6        1.0  0.06541  0.27533  0.54894  1.0000
  O   O7        1.0  0.8806699999999995  0.41046  0.93721  1.0000
  O   O8        1.0  0.11533999999999997  0.16908000000000004  0.74554  1.0000
  O   O9        1.0  0.79453  0.25447  0.11144  1.0000
  O   O10       1.0  0.54892  0.06515  0.27532  1.0000
  O   O11       1.0  0.9371999999999997  0.88074  0.41037  1.0000
  O   O12       1.0  0.7455  0.11523  0.16923  1.0000
  O   O13       1.0  0.24529999999999993  0.7049900000000002  0.38837  1.0000
  O   O14       1.0  0.43626000000000015  0.94745  0.22797999999999996  1.0000
  O   O15       1.0  0.61544  0.5632900000000001  0.09257  1.0000
  O   O16       1.0  0.38449  0.75389  0.33005  1.0000
  O   O17       1.0  0.70503  0.38836  0.24532  1.0000
  O   O18       1.0  0.9474699999999999  0.22800000000000006  0.43642  1.0000
  O   O19       1.0  0.56325  0.09271000000000001  0.61539  1.0000
  O   O20       1.0  0.7538899999999998  0.3300700000000001  0.38459  1.0000
  O   O21       1.0  0.38835  0.24547  0.70503  1.0000
  O   O22       1.0  0.22801000000000007  0.43614  0.9475099999999997  1.0000
  O   O23       1.0  0.09254  0.61539  0.5633  1.0000
  O   O24       1.0  0.33000000000000007  0.38461999999999996  0.75383  1.0000
  O   O25       1.0  0.8885799999999997  0.20545999999999998  0.74567  1.0000
  O   O26       1.0  0.7247199999999998  0.4511400000000002  0.93443  1.0000
  O   O27       1.0  0.5895599999999998  0.06280000000000001  0.11927  1.0000
  O   O28       1.0  0.83068  0.25446  0.88477  1.0000
  O   O29       1.0  0.74549  0.8885600000000002  0.20542  1.0000
  O   O30       1.0  0.9345899999999999  0.7246700000000003  0.45105  1.0000
  O   O31       1.0  0.11932999999999995  0.5895400000000001  0.06279  1.0000
  O   O32       1.0  0.8846599999999998  0.8309200000000002  0.25446  1.0000
  O   O33       1.0  0.2054699999999998  0.74553  0.88856  1.0000
  O   O34       1.0  0.4510800000000001  0.9348499999999998  0.72467  1.0000
  O   O35       1.0  0.06280000000000001  0.11926000000000002  0.58962  1.0000
  O   O36       1.0  0.25449999999999995  0.8847700000000003  0.8307599999999999  1.0000
  O   O37       1.0  0.7546999999999996  0.29501  0.61163  1.0000
  O   O38       1.0  0.56374  0.05254000000000001  0.77202  1.0000
  O   O39       1.0  0.3845600000000001  0.43671000000000004  0.90743  1.0000
  O   O40       1.0  0.6155099999999998  0.24610000000000007  0.66994  1.0000
  O   O41       1.0  0.29497  0.61164  0.75468  1.0000
  O   O42       1.0  0.052530000000000035  0.772  0.56358  1.0000
  O   O43       1.0  0.43675  0.90729  0.38460999999999995  1.0000
  O   O44       1.0  0.2461100000000001  0.6699299999999999  0.6154  1.0000
  O   O45       1.0  0.61165  0.75453  0.29495999999999994  1.0000
  O   O46       1.0  0.77199  0.56386  0.05248  1.0000
  O   O47       1.0  0.9074599999999999  0.38461  0.43669999999999987  1.0000
  O   O48       1.0  0.6699999999999998  0.61538  0.24617  1.0000
