data_image0
_chemical_formula_structural       Sc12H48C96O60
_chemical_formula_sum              "Sc12 H48 C96 O60"
_cell_length_a       12.50871
_cell_length_b       15.48768
_cell_length_c       25.21105
_cell_angle_alpha    107.86565
_cell_angle_beta     104.35958
_cell_angle_gamma    90.01763999999999

_symmetry_space_group_name_H-M    'P 1'
_symmetry_Int_Tables_number       1

loop_
  _symmetry_equiv_pos_as_xyz
  'x,y,z'

loop_
  _atom_site_type_symbol
  _atom_site_label
  _atom_site_symmetry_multiplicity
  _atom_site_fract_x
  _atom_site_fract_y
  _atom_site_fract_z
  _atom_site_occupancy
  Sc  Sc1       1.0  0.5197999999999999  0.82927  0.7892299999999998  1.0000
  Sc  Sc2       1.0  0.31416  0.87353  0.87726  1.0000
  Sc  Sc3       1.0  0.39696  0.33781999999999995  0.5438999999999999  1.0000
  Sc  Sc4       1.0  0.7696799999999999  0.9602  0.7893199999999999  1.0000
  Sc  Sc5       1.0  0.06372999999999998  0.004220000000000008  0.87717  1.0000
  Sc  Sc6       1.0  0.64745  0.20699000000000004  0.54399  1.0000
  Sc  Sc7       1.0  0.7305  0.6712  0.21059999999999995  1.0000
  Sc  Sc8       1.0  0.43650999999999995  0.62725  0.12287999999999998  1.0000
  Sc  Sc9       1.0  0.8532099999999999  0.1622599999999999  0.4559999999999999  1.0000
  Sc  Sc10      1.0  0.98078  0.54017  0.21056  1.0000
  Sc  Sc11      1.0  0.18673  0.49566  0.12279999999999998  1.0000
  Sc  Sc12      1.0  0.10297999999999996  0.29375  0.45605  1.0000
  H   H1        1.0  0.42609  0.9777699999999996  0.8391799999999999  1.0000
  H   H2        1.0  0.07479000000000006  0.68898  0.74951  1.0000
  H   H3        1.0  0.9040699999999998  0.7291199999999999  0.7091499999999998  1.0000
  H   H4        1.0  0.58607  0.58318  0.6665299999999998  1.0000
  H   H5        1.0  0.86185  0.43796  0.62418  1.0000
  H   H6        1.0  0.99233  0.47808  0.58364  1.0000
  H   H7        1.0  0.33041000000000004  0.5838599999999998  0.6666999999999998  1.0000
  H   H8        1.0  0.75816  0.7718799999999999  0.9168599999999998  1.0000
  H   H9        1.0  0.9292199999999999  0.85357  0.9579899999999998  1.0000
  H   H10       1.0  0.9128499999999999  0.8627099999999996  0.8397299999999999  1.0000
  H   H11       1.0  0.1745  0.060609999999999976  0.74962  1.0000
  H   H12       1.0  0.3058099999999999  0.9801299999999998  0.7092899999999999  1.0000
  H   H13       1.0  0.58054  0.08348999999999994  0.66636  1.0000
  H   H14       1.0  0.26222  0.1861399999999999  0.6241  1.0000
  H   H15       1.0  0.09153000000000001  0.10559000000000006  0.58366  1.0000
  H   H16       1.0  0.83632  0.08292999999999996  0.6666099999999999  1.0000
  H   H17       1.0  0.6588599999999999  0.14495999999999987  0.9168599999999998  1.0000
  H   H18       1.0  0.52877  0.10449999999999998  0.95809  1.0000
  H   H19       1.0  0.58619  0.52337  0.16103999999999996  1.0000
  H   H20       1.0  0.32558999999999994  0.81123  0.25046  1.0000
  H   H21       1.0  0.19544999999999998  0.7710799999999999  0.29100999999999994  1.0000
  H   H22       1.0  0.91956  0.91631  0.33329  1.0000
  H   H23       1.0  0.2375  0.06227000000000003  0.37588  1.0000
  H   H24       1.0  0.40866  0.022179999999999946  0.41632999999999987  1.0000
  H   H25       1.0  0.66386  0.91682  0.33339  1.0000
  H   H26       1.0  0.8410499999999999  0.72799  0.08316  1.0000
  H   H27       1.0  0.97208  0.64644  0.04213  1.0000
  H   H28       1.0  0.0742  0.63799  0.16012999999999997  1.0000
  H   H29       1.0  0.42516999999999994  0.43914  0.2504799999999999  1.0000
  H   H30       1.0  0.59565  0.5197  0.29084  1.0000
  H   H31       1.0  0.91383  0.41685  0.33314999999999995  1.0000
  H   H32       1.0  0.63892  0.31372999999999995  0.37605999999999995  1.0000
  H   H33       1.0  0.5075099999999999  0.39434  0.4165099999999999  1.0000
  H   H34       1.0  0.16955999999999996  0.41658999999999996  0.33321999999999996  1.0000
  H   H35       1.0  0.7418499999999999  0.35515  0.08304  1.0000
  H   H36       1.0  0.57057  0.39577  0.04195999999999999  1.0000
  H   H37       1.0  0.1473999999999999  0.8964899999999999  0.7944599999999998  1.0000
  H   H38       1.0  0.35283  0.60283  0.20564  1.0000
  H   H39       1.0  0.6862500000000001  0.9361199999999997  0.8725  1.0000
  H   H40       1.0  0.81404  0.56302  0.12747  1.0000
  H   H41       1.0  0.48063999999999996  0.22960999999999995  0.46095999999999987  1.0000
  H   H42       1.0  0.01947999999999996  0.26932999999999996  0.5390399999999999  1.0000
  H   H43       1.0  0.24943999999999997  0.19238999999999995  0.5003399999999999  1.0000
  H   H44       1.0  0.75016  0.30848  0.49951  1.0000
  H   H45       1.0  0.5030099999999998  0.75001  0.9999799999999999  1.0000
  H   H46       1.0  0.24740999999999994  0.7504899999999999  0.9998999999999999  1.0000
  H   H47       1.0  0.99707  0.25018  9.999999999999999e-06  1.0000
  H   H48       1.0  0.25272999999999995  0.24987999999999996  0.9999499999999999  1.0000
  C   C1        1.0  0.2920899999999999  0.7138399999999999  0.75919  1.0000
  C   C2        1.0  0.20958999999999992  0.6450099999999999  0.7119599999999998  1.0000
  C   C3        1.0  0.09786000000000006  0.64321  0.7125  1.0000
  C   C4        1.0  0.017389999999999867  0.58354  0.6665899999999999  1.0000
  C   C5        1.0  0.89897  0.58356  0.66657  1.0000
  C   C6        1.0  0.8534799999999999  0.6645599999999999  0.6909099999999998  1.0000
  C   C7        1.0  0.7420099999999998  0.6642199999999996  0.6920499999999998  1.0000
  C   C8        1.0  0.69699  0.74973  0.72171  1.0000
  C   C9        1.0  0.6729999999999999  0.58333  0.6665299999999998  1.0000
  C   C10       1.0  0.7167  0.5026100000000002  0.64102  1.0000
  C   C11       1.0  0.64274  0.4167599999999999  0.61157  1.0000
  C   C12       1.0  0.82935  0.5025  0.64227  1.0000
  C   C13       1.0  0.05220000000000001  0.52393  0.62072  1.0000
  C   C14       1.0  0.16449  0.52244  0.6213  1.0000
  C   C15       1.0  0.24349  0.5837499999999998  0.66667  1.0000
  C   C16       1.0  0.2001399999999999  0.4539399999999999  0.5740099999999999  1.0000
  C   C17       1.0  0.5403999999999998  0.7866799999999999  0.9072099999999997  1.0000
  C   C18       1.0  0.62356  0.7656  0.9544899999999998  1.0000
  C   C19       1.0  0.73528  0.76327  0.9539599999999998  1.0000
  C   C20       1.0  0.97985  0.80684  0.97577  1.0000
  C   C21       1.0  0.09124999999999994  0.8055499999999999  0.9744199999999997  1.0000
  C   C22       1.0  0.13588  0.8620199999999998  0.94494  1.0000
  C   C23       1.0  0.9669  0.04565999999999989  0.7591699999999998  1.0000
  C   C24       1.0  0.0023600000000000357  0.06714999999999992  0.71195  1.0000
  C   C25       1.0  0.11464000000000006  0.06937  0.71253  1.0000
  C   C26       1.0  0.14929999999999993  0.08301000000000001  0.66658  1.0000
  C   C27       1.0  0.26775  0.08293000000000002  0.66649  1.0000
  C   C28       1.0  0.3377799999999999  0.02644999999999991  0.6909099999999998  1.0000
  C   C29       1.0  0.45037999999999984  0.028159999999999876  0.6920199999999997  1.0000
  C   C30       1.0  0.52533  0.9728  0.72191  1.0000
  C   C31       1.0  0.49364  0.08338000000000004  0.66635  1.0000
  C   C32       1.0  0.42439  0.13854  0.64081  1.0000
  C   C33       1.0  0.4691299999999999  0.1952399999999999  0.6115099999999999  1.0000
  C   C34       1.0  0.31297999999999987  0.13971000000000006  0.64211  1.0000
  C   C35       1.0  0.06862999999999993  0.0968199999999999  0.6207099999999999  1.0000
  C   C36       1.0  0.9568899999999999  0.09901999999999996  0.62127  1.0000
  C   C37       1.0  0.92322  0.08304  0.6666199999999999  1.0000
  C   C38       1.0  0.87381  0.12030999999999994  0.5740399999999999  1.0000
  C   C39       1.0  0.86679  0.12080999999999988  0.9070499999999998  1.0000
  C   C40       1.0  0.83108  0.18894999999999992  0.9545099999999997  1.0000
  C   C41       1.0  0.71883  0.19062  0.95398  1.0000
  C   C42       1.0  0.49612  0.16911  0.97589  1.0000
  C   C43       1.0  0.3834299999999998  0.16929999999999992  0.9745599999999998  1.0000
  C   C44       1.0  0.3094499999999999  0.08343999999999989  0.9449799999999998  1.0000
  C   C45       1.0  0.5334799999999998  0.78706  0.24080999999999994  1.0000
  C   C46       1.0  0.49782999999999994  0.85553  0.28803  1.0000
  C   C47       1.0  0.3855599999999999  0.85712  0.28747999999999996  1.0000
  C   C48       1.0  0.35087  0.9167499999999997  0.33337999999999995  1.0000
  C   C49       1.0  0.23246  0.91668  0.33343  1.0000
  C   C50       1.0  0.16287999999999994  0.8355699999999997  0.30915999999999993  1.0000
  C   C51       1.0  0.05025999999999998  0.8356799999999999  0.30799999999999994  1.0000
  C   C52       1.0  0.97616  0.74984  0.27855  1.0000
  C   C53       1.0  0.006519999999999978  0.9164899999999999  0.33337999999999995  1.0000
  C   C54       1.0  0.07552999999999999  0.99741  0.35889999999999994  1.0000
  C   C55       1.0  0.030499999999999996  0.08307000000000003  0.38837  1.0000
  C   C56       1.0  0.18696999999999994  0.9976799999999999  0.3577199999999999  1.0000
  C   C57       1.0  0.4314599999999999  0.97642  0.37922999999999996  1.0000
  C   C58       1.0  0.5432  0.97798  0.3786699999999999  1.0000
  C   C59       1.0  0.57694  0.91677  0.3333499999999999  1.0000
  C   C60       1.0  0.6262  0.046250000000000006  0.42602  1.0000
  C   C61       1.0  0.6329  0.7145299999999998  0.09307  1.0000
  C   C62       1.0  0.66885  0.73452  0.04544999999999999  1.0000
  C   C63       1.0  0.78116  0.73645  0.04597999999999999  1.0000
  C   C64       1.0  0.0044299999999999964  0.69318  0.024169999999999994  1.0000
  C   C65       1.0  0.11715  0.69503  0.025529999999999997  1.0000
  C   C66       1.0  0.19174  0.63923  0.05529999999999999  1.0000
  C   C67       1.0  0.20720999999999998  0.4537  0.24071999999999993  1.0000
  C   C68       1.0  0.29026  0.43241  0.2879  1.0000
  C   C69       1.0  0.40205  0.43026  0.28746  1.0000
  C   C70       1.0  0.48252  0.41659999999999997  0.3334599999999999  1.0000
  C   C71       1.0  0.60104  0.41675  0.33353  1.0000
  C   C72       1.0  0.6462  0.47330999999999995  0.30899999999999994  1.0000
  C   C73       1.0  0.75745  0.4717799999999999  0.30748  1.0000
  C   C74       1.0  0.80109  0.5275999999999998  0.27732999999999997  1.0000
  C   C75       1.0  0.82693  0.4169099999999999  0.33318999999999993  1.0000
  C   C76       1.0  0.78374  0.362  0.35910999999999993  1.0000
  C   C77       1.0  0.8585100000000001  0.30621  0.3887599999999999  1.0000
  C   C78       1.0  0.6711  0.36027  0.3579099999999999  1.0000
  C   C79       1.0  0.44764999999999994  0.40297  0.37937999999999994  1.0000
  C   C80       1.0  0.33531  0.401  0.37876  1.0000
  C   C81       1.0  0.25644  0.41657999999999995  0.3332399999999999  1.0000
  C   C82       1.0  0.2988499999999999  0.38075  0.42613  1.0000
  C   C83       1.0  0.95967  0.37928  0.09278999999999997  1.0000
  C   C84       1.0  0.8765  0.31122  0.04532  1.0000
  C   C85       1.0  0.76477  0.30959  0.04589999999999999  1.0000
  C   C86       1.0  0.52013  0.3311599999999999  0.02412  1.0000
  C   C87       1.0  0.40875  0.33094  0.025429999999999994  1.0000
  C   C88       1.0  0.36401  0.4167  0.05499  1.0000
  C   C89       1.0  0.58987  0.75001  0.99994  1.0000
  C   C90       1.0  0.81591  0.74973  0.9999499999999999  1.0000
  C   C91       1.0  0.93444  0.74984  0.99994  1.0000
  C   C92       1.0  0.16051000000000004  0.7503499999999999  0.99993  1.0000
  C   C93       1.0  0.91015  0.25007999999999997  0.99993  1.0000
  C   C94       1.0  0.68417  0.25010999999999994  0.9999499999999999  1.0000
  C   C95       1.0  0.56575  0.2501399999999999  0.99999  1.0000
  C   C96       1.0  0.33969  0.25005999999999995  0.99999  1.0000
  O   O1        1.0  0.26499999999999996  0.75316  0.8059  1.0000
  O   O2        1.0  0.38386  0.73054  0.74932  1.0000
  O   O3        1.0  0.30182  0.43751  0.58422  1.0000
  O   O4        1.0  0.12674  0.41514  0.52704  1.0000
  O   O5        1.0  0.6881199999999998  0.3417799999999999  0.6004999999999999  1.0000
  O   O6        1.0  0.5387  0.4239899999999999  0.5981999999999998  1.0000
  O   O7        1.0  0.6068899999999999  0.7412699999999999  0.7354299999999998  1.0000
  O   O8        1.0  0.7517499999999999  0.8253799999999998  0.7324499999999998  1.0000
  O   O9        1.0  0.44906999999999997  0.81338  0.91763  1.0000
  O   O10       1.0  0.56651  0.77883  0.86021  1.0000
  O   O11       1.0  0.07936999999999994  0.92599  0.9338899999999999  1.0000
  O   O12       1.0  0.2265999999999999  0.8412899999999995  0.9315999999999998  1.0000
  O   O13       1.0  0.41796  0.91315  0.83369  1.0000
  O   O14       1.0  0.04042999999999993  0.053509999999999905  0.8060599999999999  1.0000
  O   O15       1.0  0.86537  0.018679999999999954  0.7490299999999999  1.0000
  O   O16       1.0  0.7823  0.14681999999999995  0.58429  1.0000
  O   O17       1.0  0.89995  0.11241999999999996  0.52705  1.0000
  O   O18       1.0  0.41284000000000004  0.25931  0.60053  1.0000
  O   O19       1.0  0.56005  0.17465  0.59825  1.0000
  O   O20       1.0  0.62917  0.9949100000000001  0.73562  1.0000
  O   O21       1.0  0.4811299999999999  0.9082999999999999  0.7329299999999999  1.0000
  O   O22       1.0  0.9685  0.10447999999999996  0.91718  1.0000
  O   O23       1.0  0.7933  0.08205  0.8601  1.0000
  O   O24       1.0  0.3549399999999999  0.008489999999999973  0.93381  1.0000
  O   O25       1.0  0.20545999999999995  0.09065999999999996  0.93158  1.0000
  O   O26       1.0  0.91611  0.92145  0.83373  1.0000
  O   O27       1.0  0.45999  0.74802  0.19392  1.0000
  O   O28       1.0  0.63514  0.77062  0.25089  1.0000
  O   O29       1.0  0.7191699999999999  0.06093000000000001  0.41669  1.0000
  O   O30       1.0  0.59828  0.08671999999999999  0.4723  1.0000
  O   O31       1.0  0.08544999999999991  0.15867999999999996  0.39914999999999995  1.0000
  O   O32       1.0  0.9403199999999999  0.07469999999999995  0.4019999999999999  1.0000
  O   O33       1.0  0.8721499999999999  0.75727  0.26491  1.0000
  O   O34       1.0  0.021209999999999955  0.6747  0.2677899999999999  1.0000
  O   O35       1.0  0.5309  0.68891  0.08317  1.0000
  O   O36       1.0  0.70646  0.7225399999999997  0.13996  1.0000
  O   O37       1.0  0.14706  0.57506  0.06649  1.0000
  O   O38       1.0  0.29561  0.66072  0.06881  1.0000
  O   O39       1.0  0.5837299999999999  0.58791  0.16610999999999998  1.0000
  O   O40       1.0  0.23329  0.44592999999999994  0.19372999999999999  1.0000
  O   O41       1.0  0.11572999999999999  0.48035  0.25095  1.0000
  O   O42       1.0  0.19680999999999996  0.3550299999999999  0.4158999999999999  1.0000
  O   O43       1.0  0.37173999999999996  0.38899999999999996  0.4732799999999999  1.0000
  O   O44       1.0  0.81417  0.24171999999999996  0.3997899999999999  1.0000
  O   O45       1.0  0.96235  0.32801  0.40227999999999997  1.0000
  O   O46       1.0  0.89045  0.50577  0.26272  1.0000
  O   O47       1.0  0.74575  0.59252  0.26712  1.0000
  O   O48       1.0  0.05266999999999999  0.3940199999999999  0.08351999999999998  1.0000
  O   O49       1.0  0.9315699999999999  0.41976999999999987  0.13902  1.0000
  O   O50       1.0  0.41945999999999994  0.49215  0.06590999999999998  1.0000
  O   O51       1.0  0.27372  0.40863999999999984  0.06854999999999999  1.0000
  O   O52       1.0  0.08423999999999998  0.57964  0.16660999999999998  1.0000
  O   O53       1.0  0.16874  0.91828  0.83629  1.0000
  O   O54       1.0  0.33326  0.5804699999999998  0.16382  1.0000
  O   O55       1.0  0.6665599999999999  0.91397  0.83068  1.0000
  O   O56       1.0  0.83559  0.58548  0.16928999999999994  1.0000
  O   O57       1.0  0.50204  0.25197  0.50279  1.0000
  O   O58       1.0  0.99988  0.24714999999999998  0.49720999999999993  1.0000
  O   O59       1.0  0.2498  0.25473  0.49987  1.0000
  O   O60       1.0  0.75107  0.24620999999999996  0.5000899999999999  1.0000
