data_image0
_chemical_formula_structural       Zn4H64C64S4N16O16
_chemical_formula_sum              "Zn4 H64 C64 S4 N16 O16"
_cell_length_a       9.02481
_cell_length_b       14.59723
_cell_length_c       17.76018
_cell_angle_alpha    91.84897
_cell_angle_beta     100.72913
_cell_angle_gamma    92.39198999999999

_space_group_name_H-M_alt    "P 1"
_space_group_IT_number       1

loop_
  _space_group_symop_operation_xyz
  'x, y, z'

loop_
  _atom_site_type_symbol
  _atom_site_label
  _atom_site_symmetry_multiplicity
  _atom_site_fract_x
  _atom_site_fract_y
  _atom_site_fract_z
  _atom_site_occupancy
  Zn  Zn1       1.0  0.16240000000000002  0.7343000000000001  0.59891  1.0000
  Zn  Zn2       1.0  0.85636  0.27121  0.9264900000000001  1.0000
  Zn  Zn3       1.0  0.83759  0.26571  0.40109  1.0000
  Zn  Zn4       1.0  0.14363  0.7288000000000001  0.0735  1.0000
  H   H1        1.0  0.45417  0.06664  0.89651  1.0000
  H   H2        1.0  0.2621200000000001  0.94307  0.8111700000000001  1.0000
  H   H3        1.0  0.68995  0.1875  0.05245000000000001  1.0000
  H   H4        1.0  0.76694  0.24727  0.207  1.0000
  H   H5        1.0  0.0032199999999999993  0.41523  0.07454  1.0000
  H   H6        1.0  0.10294  0.3824000000000001  0.23669  1.0000
  H   H7        1.0  0.9369700000000001  0.37258  0.27636  1.0000
  H   H8        1.0  0.84621  0.51675  0.21747  1.0000
  H   H9        1.0  0.0019900000000000143  0.5251900000000003  0.16989  1.0000
  H   H10       1.0  0.026300000000000018  0.52597  0.34424  1.0000
  H   H11       1.0  0.18119  0.53715  0.29661  1.0000
  H   H12       1.0  0.9253799999999999  0.67151  0.2790900000000001  1.0000
  H   H13       1.0  0.09806  0.68528  0.24555  1.0000
  H   H14       1.0  0.25006  0.80971  0.32322  1.0000
  H   H15       1.0  0.3315300000000001  0.85042  0.48240000000000005  1.0000
  H   H16       1.0  0.02208000000000003  0.62093  0.44334000000000007  1.0000
  H   H17       1.0  0.07865000000000005  0.17647000000000002  0.8252800000000002  1.0000
  H   H18       1.0  0.38561000000000006  0.2348  0.85101  1.0000
  H   H19       1.0  0.16950000000000004  0.37343000000000004  0.009580000000000003  1.0000
  H   H20       1.0  0.5421  0.3529300000000001  0.94058  1.0000
  H   H21       1.0  0.4928  0.34739  0.03228  1.0000
  H   H22       1.0  0.41419  0.49772000000000005  0.91632  1.0000
  H   H23       1.0  0.3306100000000002  0.48752  0.9986900000000001  1.0000
  H   H24       1.0  0.91442  0.83789  0.67055  1.0000
  H   H25       1.0  0.60716  0.78553  0.62892  1.0000
  H   H26       1.0  0.8668700000000001  0.59564  0.5297800000000003  1.0000
  H   H27       1.0  0.4695599999999999  0.64453  0.56426  1.0000
  H   H28       1.0  0.52466  0.65477  0.47432  1.0000
  H   H29       1.0  0.58834  0.49545000000000006  0.5827400000000003  1.0000
  H   H30       1.0  0.6699  0.50724  0.50023  1.0000
  H   H31       1.0  0.52955  0.29873  0.73797  1.0000
  H   H32       1.0  0.30371  0.35559  0.63302  1.0000
  H   H33       1.0  0.54582  0.93337  0.10349000000000001  1.0000
  H   H34       1.0  0.73787  0.05693  0.18883  1.0000
  H   H35       1.0  0.31004000000000004  0.81251  0.9475500000000001  1.0000
  H   H36       1.0  0.23304999999999995  0.7527300000000001  0.793  1.0000
  H   H37       1.0  0.9967699999999999  0.58478  0.92545  1.0000
  H   H38       1.0  0.8970600000000001  0.61761  0.7633100000000002  1.0000
  H   H39       1.0  0.06303  0.62742  0.72364  1.0000
  H   H40       1.0  0.15378000000000006  0.48325000000000007  0.78253  1.0000
  H   H41       1.0  0.9980100000000001  0.47482  0.83011  1.0000
  H   H42       1.0  0.9737  0.47403  0.65576  1.0000
  H   H43       1.0  0.8188  0.46286  0.70338  1.0000
  H   H44       1.0  0.07461000000000001  0.32849  0.72091  1.0000
  H   H45       1.0  0.90193  0.31472  0.75445  1.0000
  H   H46       1.0  0.74993  0.19029  0.67678  1.0000
  H   H47       1.0  0.66847  0.14958  0.5176  1.0000
  H   H48       1.0  0.97791  0.37908  0.55665  1.0000
  H   H49       1.0  0.9213399999999999  0.82354  0.17471000000000003  1.0000
  H   H50       1.0  0.61439  0.76521  0.14899  1.0000
  H   H51       1.0  0.8305000000000001  0.62657  0.9904100000000001  1.0000
  H   H52       1.0  0.45789  0.64707  0.05941  1.0000
  H   H53       1.0  0.5071900000000001  0.65261  0.9677200000000001  1.0000
  H   H54       1.0  0.5858  0.50228  0.08368  1.0000
  H   H55       1.0  0.66938  0.51248  0.00131  1.0000
  H   H56       1.0  0.08557  0.16211  0.32945  1.0000
  H   H57       1.0  0.39283  0.21448  0.37107  1.0000
  H   H58       1.0  0.13312  0.40436  0.47022000000000014  1.0000
  H   H59       1.0  0.53043  0.35547  0.43574  1.0000
  H   H60       1.0  0.47533  0.34523  0.52567  1.0000
  H   H61       1.0  0.41165  0.50455  0.41725  1.0000
  H   H62       1.0  0.3301  0.49276  0.49977  1.0000
  H   H63       1.0  0.47045  0.70128  0.26202  1.0000
  H   H64       1.0  0.69628  0.64442  0.36698  1.0000
  C   C1        1.0  0.71494  0.12835  0.83718  1.0000
  C   C2        1.0  0.59047  0.05982  0.80816  1.0000
  C   C3        1.0  0.46752  0.03638  0.84169  1.0000
  C   C4        1.0  0.3665  0.97078  0.79684  1.0000
  C   C5        1.0  0.41468  0.94383  0.7300000000000001  1.0000
  C   C6        1.0  0.3447300000000002  0.87406  0.6704900000000003  1.0000
  C   C7        1.0  0.7645699999999999  0.24383  0.07982  1.0000
  C   C8        1.0  0.80092  0.27278  0.15574  1.0000
  C   C9        1.0  0.92631  0.36116  0.08696000000000002  1.0000
  C   C10       1.0  0.9832399999999999  0.39847  0.22799  1.0000
  C   C11       1.0  0.9659099999999999  0.50175  0.22203000000000003  1.0000
  C   C12       1.0  0.06147999999999999  0.55192  0.29266  1.0000
  C   C13       1.0  0.04517000000000003  0.65555  0.29053000000000007  1.0000
  C   C14       1.0  0.21979000000000004  0.77717  0.3727500000000001  1.0000
  C   C15       1.0  0.25597  0.79744  0.45025  1.0000
  C   C16       1.0  0.09518  0.67853  0.43383  1.0000
  C   C17       1.0  0.14381000000000005  0.22565  0.8667500000000002  1.0000
  C   C18       1.0  0.29374  0.25421  0.87865  1.0000
  C   C19       1.0  0.18236000000000002  0.32767  0.9622800000000001  1.0000
  C   C20       1.0  0.4559  0.37071000000000004  0.97388  1.0000
  C   C21       1.0  0.43222  0.47383999999999993  0.97527  1.0000
  C   C22       1.0  0.85835  0.77976  0.63573  1.0000
  C   C23       1.0  0.70764  0.7540400000000002  0.61671  1.0000
  C   C24       1.0  0.84007  0.65453  0.56262  1.0000
  C   C25       1.0  0.55672  0.62678  0.53148  1.0000
  C   C26       1.0  0.57084  0.52306  0.5250600000000002  1.0000
  C   C27       1.0  0.70296  0.43431  0.84388  1.0000
  C   C28       1.0  0.57296  0.441  0.77906  1.0000
  C   C29       1.0  0.49707  0.36934  0.73172  1.0000
  C   C30       1.0  0.3781800000000001  0.3994500000000001  0.6758900000000002  1.0000
  C   C31       1.0  0.36493  0.49365  0.68098  1.0000
  C   C32       1.0  0.2569900000000001  0.55232  0.63386  1.0000
  C   C33       1.0  0.28506  0.87165  0.16282  1.0000
  C   C34       1.0  0.40953  0.94018  0.19184  1.0000
  C   C35       1.0  0.53247  0.96363  0.15831000000000003  1.0000
  C   C36       1.0  0.63349  0.02922  0.20316000000000006  1.0000
  C   C37       1.0  0.58531  0.05618  0.27  1.0000
  C   C38       1.0  0.6552600000000001  0.12595  0.3295000000000001  1.0000
  C   C39       1.0  0.23542000000000005  0.75618  0.9201800000000001  1.0000
  C   C40       1.0  0.19908000000000012  0.72723  0.8442500000000002  1.0000
  C   C41       1.0  0.07368000000000005  0.63884  0.9130300000000001  1.0000
  C   C42       1.0  0.016749999999999966  0.60153  0.77201  1.0000
  C   C43       1.0  0.034080000000000096  0.49826  0.7779600000000002  1.0000
  C   C44       1.0  0.9385099999999998  0.44808  0.70734  1.0000
  C   C45       1.0  0.95482  0.34446  0.70947  1.0000
  C   C46       1.0  0.7802100000000002  0.22284  0.6272500000000002  1.0000
  C   C47       1.0  0.74402  0.20256  0.54975  1.0000
  C   C48       1.0  0.90481  0.32147999999999993  0.56617  1.0000
  C   C49       1.0  0.85618  0.77436  0.13325  1.0000
  C   C50       1.0  0.70625  0.74579  0.12135  1.0000
  C   C51       1.0  0.81763  0.67234  0.03772000000000001  1.0000
  C   C52       1.0  0.54409  0.6293  0.02612  1.0000
  C   C53       1.0  0.56777  0.52617  0.024730000000000005  1.0000
  C   C54       1.0  0.14164000000000004  0.22024000000000002  0.3642700000000001  1.0000
  C   C55       1.0  0.29236  0.24596  0.38328  1.0000
  C   C56       1.0  0.15992  0.34548000000000006  0.43738  1.0000
  C   C57       1.0  0.44327000000000005  0.37323  0.46851000000000004  1.0000
  C   C58       1.0  0.42915000000000003  0.47694  0.47494000000000003  1.0000
  C   C59       1.0  0.29703  0.5657  0.15612  1.0000
  C   C60       1.0  0.42703  0.55901  0.22094000000000005  1.0000
  C   C61       1.0  0.50292  0.63067  0.26828  1.0000
  C   C62       1.0  0.62182  0.6005600000000003  0.3241100000000001  1.0000
  C   C63       1.0  0.63507  0.50635  0.31902  1.0000
  C   C64       1.0  0.743  0.44768  0.36614  1.0000
  S   S1        1.0  0.58272  0.00037000000000000466  0.72169  1.0000
  S   S2        1.0  0.49866  0.5453  0.75447  1.0000
  S   S3        1.0  0.41727999999999993  0.99964  0.27831  1.0000
  S   S4        1.0  0.50133  0.4547  0.24552  1.0000
  N   N1        1.0  0.8435  0.2995999999999999  0.03740000000000002  1.0000
  N   N2        1.0  0.90349  0.34682  0.15903000000000006  1.0000
  N   N3        1.0  0.11828000000000004  0.7018499999999999  0.3634700000000001  1.0000
  N   N4        1.0  0.17734  0.73553  0.48776  1.0000
  N   N5        1.0  0.07541000000000003  0.27231  0.91928  1.0000
  N   N6        1.0  0.31587000000000004  0.31872  0.9391300000000001  1.0000
  N   N7        1.0  0.93977  0.7173  0.60174  1.0000
  N   N8        1.0  0.69799  0.6747400000000001  0.57058  1.0000
  N   N9        1.0  0.1565000000000001  0.70041  0.9625900000000001  1.0000
  N   N10       1.0  0.09649999999999999  0.6531799999999999  0.84096  1.0000
  N   N11       1.0  0.88171  0.29815  0.63653  1.0000
  N   N12       1.0  0.82265  0.26447  0.5122300000000002  1.0000
  N   N13       1.0  0.92458  0.7277  0.08072  1.0000
  N   N14       1.0  0.68412  0.68129  0.06087  1.0000
  N   N15       1.0  0.06022000000000005  0.2827  0.3982500000000001  1.0000
  N   N16       1.0  0.302  0.32526  0.42942  1.0000
  O   O1        1.0  0.7172300000000001  0.16182  0.9062900000000003  1.0000
  O   O2        1.0  0.80732  0.15195  0.79567  1.0000
  O   O3        1.0  0.21458000000000008  0.83754  0.6778700000000001  1.0000
  O   O4        1.0  0.41284  0.85223  0.61737  1.0000
  O   O5        1.0  0.74151  0.35041  0.85238  1.0000
  O   O6        1.0  0.76191  0.50433  0.88268  1.0000
  O   O7        1.0  0.15635  0.51892  0.58041  1.0000
  O   O8        1.0  0.281  0.63875  0.65489  1.0000
  O   O9        1.0  0.28276  0.83818  0.09371000000000003  1.0000
  O   O10       1.0  0.19268  0.84806  0.20433  1.0000
  O   O11       1.0  0.7854100000000002  0.16247  0.32213000000000014  1.0000
  O   O12       1.0  0.58716  0.14777  0.38263  1.0000
  O   O13       1.0  0.25848  0.64959  0.14762  1.0000
  O   O14       1.0  0.23809  0.49567  0.11732000000000001  1.0000
  O   O15       1.0  0.84364  0.48108  0.41959000000000013  1.0000
  O   O16       1.0  0.71899  0.36125  0.3451  1.0000
