data_image0
_chemical_formula_structural       Al4H64C80N16Cl8
_chemical_formula_sum              "Al4 H64 C80 N16 Cl8"
_cell_length_a       7.17776
_cell_length_b       19.82095
_cell_length_c       20.08242
_cell_angle_alpha    88.13759
_cell_angle_beta     79.67362
_cell_angle_gamma    79.55435

_symmetry_space_group_name_H-M    'P 1'
_symmetry_Int_Tables_number       1

loop_
  _symmetry_equiv_pos_as_xyz
  'x,y,z'

loop_
  _atom_site_type_symbol
  _atom_site_label
  _atom_site_symmetry_multiplicity
  _atom_site_fract_x
  _atom_site_fract_y
  _atom_site_fract_z
  _atom_site_occupancy
  Al  Al1       1.0  0.45447  0.23902  0.99877  1.0000
  Al  Al2       1.0  0.5468599999999999  0.76095  0.99874  1.0000
  Al  Al3       1.0  0.44331  0.26107  0.49873  1.0000
  Al  Al4       1.0  0.057800000000000046  0.73896  0.49873999999999996  1.0000
  H   H1        1.0  0.5336700000000001  0.38146  0.96877  1.0000
  H   H2        1.0  0.34954  0.49789  0.9612600000000001  1.0000
  H   H3        1.0  0.8319399999999996  0.40751  0.9908200000000001  1.0000
  H   H4        1.0  0.0368499999999999  0.29632  0.9960900000000001  1.0000
  H   H5        1.0  0.6254  0.16094  0.11342  1.0000
  H   H6        1.0  0.86934  0.05776  0.12492999999999999  1.0000
  H   H7        1.0  0.8860200000000001  0.01518  0.9136  1.0000
  H   H8        1.0  0.62938  0.11640999999999999  0.91271  1.0000
  H   H9        1.0  0.3991700000000001  0.28744  0.85732  1.0000
  H   H10       1.0  0.60178  0.29963999999999996  0.74542  1.0000
  H   H11       1.0  0.10039999999999992  0.22310999999999998  0.8384100000000001  1.0000
  H   H12       1.0  0.88029  0.21822999999999995  0.9457899999999999  1.0000
  H   H13       1.0  0.07312000000000003  0.355  0.56857  1.0000
  H   H14       1.0  0.84246  0.35639  0.67664  1.0000
  H   H15       1.0  0.19837000000000005  0.17091999999999996  0.73295  1.0000
  H   H16       1.0  0.41254  0.17635999999999996  0.62264  1.0000
  H   H17       1.0  0.4976899999999999  0.61857  0.9688  1.0000
  H   H18       1.0  0.6892799999999999  0.50211  0.9612699999999998  1.0000
  H   H19       1.0  0.17732999999999993  0.5924499999999999  0.9908  1.0000
  H   H20       1.0  0.9672100000000001  0.70366  0.99614  1.0000
  H   H21       1.0  0.26108000000000003  0.8390699999999999  0.11343  1.0000
  H   H22       1.0  0.006099999999999981  0.94244  0.12507  1.0000
  H   H23       1.0  0.20092999999999997  0.98484  0.91366  1.0000
  H   H24       1.0  0.45815000000000006  0.88349  0.91269  1.0000
  H   H25       1.0  0.7437099999999996  0.7124499999999999  0.85717  1.0000
  H   H26       1.0  0.65303  0.70017  0.74527  1.0000
  H   H27       1.0  0.06140000000000006  0.7768499999999999  0.83844  1.0000
  H   H28       1.0  0.1741699999999999  0.78176  0.94581  1.0000
  H   H29       1.0  0.3579100000000001  0.64505  0.56858  1.0000
  H   H30       1.0  0.4805299999999999  0.64366  0.67662  1.0000
  H   H31       1.0  0.0682500000000001  0.8291199999999997  0.73304  1.0000
  H   H32       1.0  0.9645000000000002  0.82366  0.62271  1.0000
  H   H33       1.0  0.6647800000000001  0.11863999999999997  0.46894  1.0000
  H   H34       1.0  0.5975299999999998  0.00211  0.46130999999999994  1.0000
  H   H35       1.0  0.9895499999999997  0.09237999999999999  0.49075  1.0000
  H   H36       1.0  0.08274999999999999  0.2037  0.49612000000000006  1.0000
  H   H37       1.0  0.53599  0.33905  0.61354  1.0000
  H   H38       1.0  0.6767100000000001  0.44227999999999995  0.62512  1.0000
  H   H39       1.0  0.6506899999999997  0.48502  0.41383  1.0000
  H   H40       1.0  0.49534999999999996  0.38370999999999994  0.41288  1.0000
  H   H41       1.0  0.4365099999999999  0.21279999999999996  0.35736  1.0000
  H   H42       1.0  0.65126  0.20062  0.24545  1.0000
  H   H43       1.0  0.07343999999999998  0.27702  0.33847  1.0000
  H   H44       1.0  0.8484799999999997  0.28190999999999994  0.44584999999999997  1.0000
  H   H45       1.0  0.17783999999999997  0.14518  0.06867  1.0000
  H   H46       1.0  0.94844  0.14392  0.17669  1.0000
  H   H47       1.0  0.11904  0.3293  0.23301  1.0000
  H   H48       1.0  0.33879000000000004  0.32379  0.12274  1.0000
  H   H49       1.0  0.8663  0.88133  0.46898999999999996  1.0000
  H   H50       1.0  0.9412  0.99786  0.46130999999999994  1.0000
  H   H51       1.0  0.5196900000000001  0.90758  0.49072  1.0000
  H   H52       1.0  0.42101999999999995  0.79627  0.49617999999999995  1.0000
  H   H53       1.0  0.85035  0.6609099999999999  0.61359  1.0000
  H   H54       1.0  0.6986100000000001  0.55749  0.6253  1.0000
  H   H55       1.0  0.9358399999999997  0.51496  0.41391999999999995  1.0000
  H   H56       1.0  0.09175999999999983  0.61636  0.4129  1.0000
  H   H57       1.0  0.2060300000000001  0.7872799999999998  0.35727  1.0000
  H   H58       1.0  0.10303000000000011  0.7996899999999999  0.24538  1.0000
  H   H59       1.0  0.58796  0.7231  0.33851  1.0000
  H   H60       1.0  0.7056900000000002  0.71803  0.44588  1.0000
  H   H61       1.0  0.7532699999999998  0.8548199999999999  0.06865  1.0000
  H   H62       1.0  0.8741999999999999  0.85617  0.17674  1.0000
  H   H63       1.0  0.64733  0.67077  0.23314  1.0000
  H   H64       1.0  0.53843  0.67621  0.12275999999999998  1.0000
  C   C1        1.0  0.37771000000000005  0.3901  0.97362  1.0000
  C   C2        1.0  0.2727699999999999  0.4550699999999999  0.9700199999999999  1.0000
  C   C3        1.0  0.06907999999999996  0.46593999999999997  0.97669  1.0000
  C   C4        1.0  0.98663  0.4057299999999999  0.98469  1.0000
  C   C5        1.0  0.10027999999999994  0.34225  0.9885799999999999  1.0000
  C   C6        1.0  0.68499  0.12649  0.07085  1.0000
  C   C7        1.0  0.8229999999999998  0.06909  0.07647  1.0000
  C   C8        1.0  0.9109099999999998  0.028289999999999996  0.01884  1.0000
  C   C9        1.0  0.8352599999999998  0.04648  0.9589000000000001  1.0000
  C   C10       1.0  0.6916999999999994  0.10281  0.95783  1.0000
  C   C11       1.0  0.5553999999999999  0.27507  0.85083  1.0000
  C   C12       1.0  0.6696700000000002  0.28190999999999994  0.78861  1.0000
  C   C13       1.0  0.87197  0.26184  0.78068  1.0000
  C   C14       1.0  0.94636  0.23785  0.83917  1.0000
  C   C15       1.0  0.82384  0.23463999999999996  0.90017  1.0000
  C   C16       1.0  0.09606999999999995  0.31559  0.60669  1.0000
  C   C17       1.0  0.9668100000000001  0.31538  0.66683  1.0000
  C   C18       1.0  0.99991  0.26416  0.71589  1.0000
  C   C19       1.0  0.16668999999999992  0.21353  0.69886  1.0000
  C   C20       1.0  0.28628999999999977  0.21570999999999999  0.63719  1.0000
  C   C21       1.0  0.6488199999999996  0.6099  0.97359  1.0000
  C   C22       1.0  0.7573299999999998  0.54494  0.9699800000000001  1.0000
  C   C23       1.0  0.9543199999999997  0.53405  0.97665  1.0000
  C   C24       1.0  0.0287800000000001  0.59426  0.9846499999999999  1.0000
  C   C25       1.0  0.9113  0.65774  0.98856  1.0000
  C   C26       1.0  0.2439999999999999  0.8735  0.07085  1.0000
  C   C27       1.0  0.10058999999999997  0.9309599999999999  0.07652  1.0000
  C   C28       1.0  0.07031000000000001  0.9717  0.01886  1.0000
  C   C29       1.0  0.20605000000000018  0.9534599999999999  0.95892  1.0000
  C   C30       1.0  0.3504900000000003  0.8970999999999999  0.9578099999999999  1.0000
  C   C31       1.0  0.5939999999999998  0.7249199999999999  0.85067  1.0000
  C   C32       1.0  0.5419600000000001  0.7180899999999999  0.78847  1.0000
  C   C33       1.0  0.34755000000000014  0.73825  0.7806  1.0000
  C   C34       1.0  0.21472000000000005  0.76222  0.83916  1.0000
  C   C35       1.0  0.2762300000000002  0.7654199999999999  0.9001299999999999  1.0000
  C   C36       1.0  0.29694  0.6844499999999999  0.60671  1.0000
  C   C37       1.0  0.3660699999999999  0.68468  0.66682  1.0000
  C   C38       1.0  0.28408999999999984  0.73595  0.71588  1.0000
  C   C39       1.0  0.1341800000000001  0.7865499999999999  0.69891  1.0000
  C   C40       1.0  0.07624000000000011  0.7843399999999998  0.63726  1.0000
  C   C41       1.0  0.51758  0.10994  0.47363999999999995  1.0000
  C   C42       1.0  0.4778499999999998  0.04494  0.47  1.0000
  C   C43       1.0  0.28509  0.03404  0.47661  1.0000
  C   C44       1.0  0.14237999999999987  0.09426  0.48464000000000007  1.0000
  C   C45       1.0  0.19226  0.15779  0.48854  1.0000
  C   C46       1.0  0.5609600000000001  0.37359  0.57101  1.0000
  C   C47       1.0  0.6414799999999999  0.4309799999999999  0.57668  1.0000
  C   C48       1.0  0.68865  0.4718  0.51907  1.0000
  C   C49       1.0  0.63108  0.45369999999999994  0.45912  1.0000
  C   C50       1.0  0.5439399999999998  0.39737  0.45801  1.0000
  C   C51       1.0  0.5803299999999999  0.22518999999999997  0.35086  1.0000
  C   C52       1.0  0.7014599999999999  0.21832  0.28865  1.0000
  C   C53       1.0  0.88369  0.23834999999999995  0.28074  1.0000
  C   C54       1.0  0.9341299999999999  0.2623  0.33924  1.0000
  C   C55       1.0  0.8083500000000001  0.26557  0.40022  1.0000
  C   C56       1.0  0.16146999999999992  0.18460999999999997  0.10674999999999998  1.0000
  C   C57       1.0  0.03191  0.18487  0.16688  1.0000
  C   C58       1.0  0.013900000000000001  0.23606999999999997  0.21595000000000003  1.0000
  C   C59       1.0  0.13002999999999992  0.28668  0.19894  1.0000
  C   C60       1.0  0.25187  0.2844499999999999  0.13727  1.0000
  C   C61       1.0  0.008820000000000005  0.89004  0.47363  1.0000
  C   C62       1.0  0.05220000000000008  0.9550299999999999  0.46996999999999994  1.0000
  C   C63       1.0  0.23834  0.96593  0.47657999999999995  1.0000
  C   C64       1.0  0.37301000000000006  0.9057  0.48458999999999997  1.0000
  C   C65       1.0  0.31919  0.84218  0.48854  1.0000
  C   C66       1.0  0.8676100000000001  0.62643  0.57105  1.0000
  C   C67       1.0  0.78164  0.56899  0.57675  1.0000
  C   C68       1.0  0.7919399999999999  0.52825  0.5191  1.0000
  C   C69       1.0  0.9096299999999994  0.54639  0.45916000000000007  1.0000
  C   C70       1.0  0.9976999999999997  0.60274  0.45801  1.0000
  C   C71       1.0  0.06879000000000005  0.77483  0.35076  1.0000
  C   C72       1.0  0.009909999999999981  0.78174  0.28857  1.0000
  C   C73       1.0  0.8356599999999998  0.76162  0.28069  1.0000
  C   C74       1.0  0.7267100000000004  0.73766  0.33924  1.0000
  C   C75       1.0  0.79145  0.73437  0.4002  1.0000
  C   C76       1.0  0.73164  0.81539  0.10675999999999998  1.0000
  C   C77       1.0  0.8008799999999999  0.81515  0.16689  1.0000
  C   C78       1.0  0.7700499999999997  0.7639099999999998  0.21595000000000003  1.0000
  C   C79       1.0  0.6708199999999996  0.7133199999999998  0.19898  1.0000
  C   C80       1.0  0.6108199999999996  0.71552  0.13731  1.0000
  N   N1        1.0  0.29579  0.33281  0.98447  1.0000
  N   N2        1.0  0.61962  0.14522999999999997  0.01207  1.0000
  N   N3        1.0  0.6283300000000002  0.25151  0.90705  1.0000
  N   N4        1.0  0.25656  0.26654  0.59079  1.0000
  N   N5        1.0  0.7198799999999999  0.66719  0.98446  1.0000
  N   N6        1.0  0.36808999999999986  0.8546499999999999  0.01203  1.0000
  N   N7        1.0  0.46490000000000004  0.74854  0.90693  1.0000
  N   N8        1.0  0.15241999999999997  0.73352  0.59084  1.0000
  N   N9        1.0  0.37831  0.16726  0.48446000000000006  1.0000
  N   N10       1.0  0.51442  0.3548899999999999  0.5122  1.0000
  N   N11       1.0  0.6296199999999995  0.24878  0.40709000000000006  1.0000
  N   N12       1.0  0.27303  0.2336  0.09088  1.0000
  N   N13       1.0  0.13722000000000004  0.83272  0.48446000000000006  1.0000
  N   N14       1.0  0.9727299999999999  0.64525  0.51219  1.0000
  N   N15       1.0  0.9632999999999999  0.75119  0.40701  1.0000
  N   N16       1.0  0.6362399999999996  0.76634  0.09088  1.0000
  Cl  Cl1       1.0  0.2700499999999999  0.18275  0.9442  1.0000
  Cl  Cl2       1.0  0.66064  0.28801  0.052039999999999996  1.0000
  Cl  Cl3       1.0  0.7857999999999999  0.8173099999999999  0.94418  1.0000
  Cl  Cl4       1.0  0.2874000000000001  0.7119499999999997  0.05213000000000001  1.0000
  Cl  Cl5       1.0  0.20277000000000006  0.31736  0.44406999999999996  1.0000
  Cl  Cl6       1.0  0.6985499999999998  0.21195  0.55198  1.0000
  Cl  Cl7       1.0  0.35308000000000006  0.68255  0.44410999999999995  1.0000
  Cl  Cl8       1.0  0.7492799999999998  0.78811  0.55208  1.0000
