data_image0
_chemical_formula_structural       Eu8H36C84N12O48
_chemical_formula_sum              "Eu8 H36 C84 N12 O48"
_cell_length_a       8.04326
_cell_length_b       15.919489999999998
_cell_length_c       30.37172
_cell_angle_alpha    89.96486
_cell_angle_beta     89.93068
_cell_angle_gamma    89.78974

_space_group_name_H-M_alt    "P 1"
_space_group_IT_number       1

loop_
  _space_group_symop_operation_xyz
  'x, y, z'

loop_
  _atom_site_type_symbol
  _atom_site_label
  _atom_site_symmetry_multiplicity
  _atom_site_fract_x
  _atom_site_fract_y
  _atom_site_fract_z
  _atom_site_occupancy
  Eu  Eu1       1.0  0.5737499999999998  0.2868699999999999  0.09018  1.0000
  Eu  Eu2       1.0  0.9287999999999997  0.7856099999999998  0.90944  1.0000
  Eu  Eu3       1.0  0.42487999999999987  0.7140099999999998  0.59015  1.0000
  Eu  Eu4       1.0  0.07551999999999998  0.21383999999999995  0.41024  1.0000
  Eu  Eu5       1.0  0.42884  0.7121999999999998  0.9096399999999998  1.0000
  Eu  Eu6       1.0  0.07223999999999997  0.21290999999999993  0.09012  1.0000
  Eu  Eu7       1.0  0.57154  0.28927  0.4098299999999999  1.0000
  Eu  Eu8       1.0  0.92818  0.7893099999999997  0.58923  1.0000
  H   H1        1.0  0.14195  0.3436299999999999  0.95516  1.0000
  H   H2        1.0  0.006420000000000004  0.5577699999999998  0.8852499999999998  1.0000
  H   H3        1.0  0.6913999999999998  0.4730399999999999  0.9916499999999998  1.0000
  H   H4        1.0  0.71598  0.4323099999999999  0.18044999999999994  1.0000
  H   H5        1.0  0.36558  0.8418199999999998  0.04232  1.0000
  H   H6        1.0  0.48883  0.054679999999999986  0.11419  1.0000
  H   H7        1.0  0.81092  0.9764799999999998  0.0077  1.0000
  H   H8        1.0  0.78365  0.9333899999999998  0.81932  1.0000
  H   H9        1.0  0.85926  0.65789  0.4555299999999999  1.0000
  H   H10       1.0  0.99174  0.4433699999999999  0.38562999999999986  1.0000
  H   H11       1.0  0.30706  0.5264599999999998  0.4920799999999999  1.0000
  H   H12       1.0  0.28195  0.5667699999999998  0.68144  1.0000
  H   H13       1.0  0.64037  0.15791999999999995  0.5445  1.0000
  H   H14       1.0  0.50931  0.9435099999999997  0.6144499999999998  1.0000
  H   H15       1.0  0.19272  0.027939999999999993  0.50819  1.0000
  H   H16       1.0  0.21524999999999994  0.06624999999999998  0.31928  1.0000
  H   H17       1.0  0.86125  0.65691  0.04295  1.0000
  H   H18       1.0  0.988  0.4438399999999999  0.11480999999999997  1.0000
  H   H19       1.0  0.30849  0.52308  0.00821  1.0000
  H   H20       1.0  0.28183999999999987  0.56453  0.8179799999999999  1.0000
  H   H21       1.0  0.6336399999999998  0.1555  0.95776  1.0000
  H   H22       1.0  0.5081899999999998  0.9439699999999998  0.8849499999999998  1.0000
  H   H23       1.0  0.1863  0.02168  0.9913999999999997  1.0000
  H   H24       1.0  0.21461  0.06239999999999998  0.18283999999999995  1.0000
  H   H25       1.0  0.13603  0.3446799999999999  0.5426399999999998  1.0000
  H   H26       1.0  0.009969999999999994  0.5569399999999998  0.61518  1.0000
  H   H27       1.0  0.6880299999999998  0.4786999999999999  0.50891  1.0000
  H   H28       1.0  0.7157099999999997  0.4390699999999999  0.31689  1.0000
  H   H29       1.0  0.36457  0.8448099999999997  0.45741  1.0000
  H   H30       1.0  0.48942  0.05665999999999999  0.38483  1.0000
  H   H31       1.0  0.8115099999999997  0.9783699999999997  0.4911099999999999  1.0000
  H   H32       1.0  0.78482  0.9383899999999997  0.6828299999999998  1.0000
  H   H33       1.0  0.9659799999999997  0.23459999999999995  0.25108  1.0000
  H   H34       1.0  0.5316299999999998  0.7365499999999998  0.74905  1.0000
  H   H35       1.0  0.03666  0.7681699999999998  0.75063  1.0000
  H   H36       1.0  0.46856  0.26346  0.24931999999999996  1.0000
  C   C1        1.0  0.89062  0.3419299999999999  0.0159  1.0000
  C   C2        1.0  0.9149  0.4021099999999999  0.97832  1.0000
  C   C3        1.0  0.05355999999999999  0.3949199999999999  0.9504099999999998  1.0000
  C   C4        1.0  0.9771099999999998  0.5129899999999997  0.9112  1.0000
  C   C5        1.0  0.8325099999999999  0.52351  0.93654  1.0000
  C   C6        1.0  0.80062  0.4665699999999999  0.97066  1.0000
  C   C7        1.0  0.71259  0.59229  0.9267299999999998  1.0000
  C   C8        1.0  0.89803  0.28844  0.16763  1.0000
  C   C9        1.0  0.8467299999999998  0.3279499999999999  0.2103  1.0000
  C   C10       1.0  0.75364  0.4025299999999999  0.21117999999999995  1.0000
  C   C11       1.0  0.61515  0.8437899999999998  0.9821199999999998  1.0000
  C   C12       1.0  0.58985  0.9031899999999998  0.01997  1.0000
  C   C13       1.0  0.4511099999999999  0.8937599999999998  0.04768  1.0000
  C   C14       1.0  0.52314  0.011309999999999997  0.088  1.0000
  C   C15       1.0  0.6687899999999998  0.023139999999999994  0.06333  1.0000
  C   C16       1.0  0.7017699999999998  0.9680799999999998  0.02844  1.0000
  C   C17       1.0  0.78779  0.09191999999999997  0.07375  1.0000
  C   C18       1.0  0.60685  0.7899999999999998  0.83279  1.0000
  C   C19       1.0  0.65233  0.82917  0.7897999999999997  1.0000
  C   C20       1.0  0.74474  0.9036699999999998  0.7888699999999997  1.0000
  C   C21       1.0  0.11168  0.65989  0.51526  1.0000
  C   C22       1.0  0.08535  0.59841  0.47841  1.0000
  C   C23       1.0  0.9464699999999998  0.6060699999999998  0.45068  1.0000
  C   C24       1.0  0.0223  0.4873999999999999  0.41172  1.0000
  C   C25       1.0  0.16709  0.4765099999999999  0.4368599999999999  1.0000
  C   C26       1.0  0.19829  0.53324  0.471  1.0000
  C   C27       1.0  0.2880599999999999  0.4082899999999999  0.42673  1.0000
  C   C28       1.0  0.10283999999999997  0.71153  0.66739  1.0000
  C   C29       1.0  0.15331  0.6728  0.71021  1.0000
  C   C30       1.0  0.2446799999999999  0.59778  0.7118199999999998  1.0000
  C   C31       1.0  0.38634  0.15966  0.48436  1.0000
  C   C32       1.0  0.4138599999999999  0.09927999999999997  0.52168  1.0000
  C   C33       1.0  0.5529  0.10645999999999997  0.54931  1.0000
  C   C34       1.0  0.47749  0.9878399999999998  0.58846  1.0000
  C   C35       1.0  0.33247  0.9775899999999997  0.56342  1.0000
  C   C36       1.0  0.3011  0.03449999999999999  0.5293  1.0000
  C   C37       1.0  0.21138999999999994  0.9096899999999998  0.57348  1.0000
  C   C38       1.0  0.3927499999999999  0.20934  0.33278999999999986  1.0000
  C   C39       1.0  0.34679  0.17025  0.28986  1.0000
  C   C40       1.0  0.2541099999999999  0.09600999999999998  0.28871  1.0000
  C   C41       1.0  0.11674999999999996  0.65551  0.98306  1.0000
  C   C42       1.0  0.08708  0.5958499999999998  0.02065  1.0000
  C   C43       1.0  0.94755  0.6046699999999998  0.04799  1.0000
  C   C44       1.0  0.02038  0.4869  0.08830999999999997  1.0000
  C   C45       1.0  0.1671  0.4754299999999999  0.06376  1.0000
  C   C46       1.0  0.19920999999999994  0.5306799999999998  0.02898999999999999  1.0000
  C   C47       1.0  0.29093  0.4089399999999999  0.07501  1.0000
  C   C48       1.0  0.10879  0.7119699999999998  0.8325899999999998  1.0000
  C   C49       1.0  0.15574999999999994  0.6723499999999998  0.7896399999999998  1.0000
  C   C50       1.0  0.24532  0.5966799999999998  0.78779  1.0000
  C   C51       1.0  0.3816799999999999  0.15215  0.01821  1.0000
  C   C52       1.0  0.40808  0.09495999999999997  0.97958  1.0000
  C   C53       1.0  0.54679  0.10432999999999998  0.9518999999999997  1.0000
  C   C54       1.0  0.4754300000000001  0.9871199999999998  0.9113899999999998  1.0000
  C   C55       1.0  0.33122  0.9748199999999998  0.9364999999999998  1.0000
  C   C56       1.0  0.2962299999999999  0.030239999999999993  0.9709599999999998  1.0000
  C   C57       1.0  0.21481  0.90558  0.9262399999999997  1.0000
  C   C58       1.0  0.39059  0.20679999999999996  0.16685  1.0000
  C   C59       1.0  0.3452999999999999  0.16922999999999994  0.21041999999999994  1.0000
  C   C60       1.0  0.2537099999999999  0.09440999999999997  0.2127  1.0000
  C   C61       1.0  0.88493  0.34754  0.48263  1.0000
  C   C62       1.0  0.91064  0.4061799999999999  0.52065  1.0000
  C   C63       1.0  0.04992  0.39673999999999987  0.54805  1.0000
  C   C64       1.0  0.9770499999999998  0.514  0.5887  1.0000
  C   C65       1.0  0.8307199999999998  0.52587  0.5642199999999998  1.0000
  C   C66       1.0  0.7978799999999999  0.4708  0.52944  1.0000
  C   C67       1.0  0.70888  0.5934999999999998  0.57506  1.0000
  C   C68       1.0  0.8927  0.29455  0.33344  1.0000
  C   C69       1.0  0.84481  0.3308399999999999  0.28982  1.0000
  C   C70       1.0  0.7531  0.40584  0.28718  1.0000
  C   C71       1.0  0.61598  0.8483699999999997  0.51802  1.0000
  C   C72       1.0  0.58898  0.9061599999999997  0.47957  1.0000
  C   C73       1.0  0.4505599999999999  0.8965699999999998  0.4518899999999999  1.0000
  C   C74       1.0  0.5228  0.013839999999999996  0.41135  1.0000
  C   C75       1.0  0.66893  0.025519999999999994  0.43588  1.0000
  C   C76       1.0  0.7016399999999998  0.97047  0.47066999999999987  1.0000
  C   C77       1.0  0.7922399999999998  0.09225999999999997  0.4251799999999999  1.0000
  C   C78       1.0  0.60967  0.7943799999999998  0.66664  1.0000
  C   C79       1.0  0.65506  0.8312699999999997  0.71033  1.0000
  C   C80       1.0  0.74628  0.9060399999999998  0.7127399999999998  1.0000
  C   C81       1.0  0.8927499999999998  0.2920699999999999  0.25052  1.0000
  C   C82       1.0  0.60552  0.7935099999999998  0.7497  1.0000
  C   C83       1.0  0.10829  0.7101699999999997  0.75008  1.0000
  C   C84       1.0  0.39439  0.20653999999999995  0.24989999999999996  1.0000
  N   N1        1.0  0.08313999999999998  0.4490299999999999  0.9176599999999998  1.0000
  N   N2        1.0  0.41910999999999987  0.9473799999999998  0.08049  1.0000
  N   N3        1.0  0.9165599999999998  0.5514299999999998  0.4183199999999999  1.0000
  N   N4        1.0  0.58284  0.05149999999999998  0.58169  1.0000
  N   N5        1.0  0.9153  0.5508799999999998  0.08068999999999997  1.0000
  N   N6        1.0  0.5785  0.051459999999999985  0.9187099999999998  1.0000
  N   N7        1.0  0.08163999999999999  0.4498999999999999  0.58102  1.0000
  N   N8        1.0  0.4185799999999999  0.9497999999999998  0.4188299999999999  1.0000
  N   N9        1.0  0.70976  0.4406499999999999  0.24873  1.0000
  N   N10       1.0  0.78769  0.9411899999999997  0.7511699999999998  1.0000
  N   N11       1.0  0.28813  0.56051  0.7496399999999998  1.0000
  N   N12       1.0  0.2114  0.05872  0.25096  1.0000
  O   O1        1.0  0.7563  0.34955  0.03749  1.0000
  O   O2        1.0  0.00672  0.28945  0.023889999999999995  1.0000
  O   O3        1.0  0.5633099999999998  0.58341  0.9387699999999998  1.0000
  O   O4        1.0  0.75824  0.65885  0.90574  1.0000
  O   O5        1.0  0.8402  0.3177099999999999  0.13115  1.0000
  O   O6        1.0  0.0020800000000000003  0.22851999999999995  0.16893999999999998  1.0000
  O   O7        1.0  0.7427  0.8575199999999997  0.9584199999999998  1.0000
  O   O8        1.0  0.50867  0.7864599999999998  0.9759799999999997  1.0000
  O   O9        1.0  0.9371599999999998  0.08253  0.06162999999999998  1.0000
  O   O10       1.0  0.7411499999999998  0.15779999999999994  0.09518  1.0000
  O   O11       1.0  0.66176  0.8207099999999998  0.86865  1.0000
  O   O12       1.0  0.50793  0.72708  0.83165  1.0000
  O   O13       1.0  0.24462  0.6505399999999998  0.5372  1.0000
  O   O14       1.0  0.9997299999999999  0.7151799999999998  0.52201  1.0000
  O   O15       1.0  0.43761  0.4185999999999999  0.43906  1.0000
  O   O16       1.0  0.2443  0.3419699999999999  0.4056  1.0000
  O   O17       1.0  0.16181  0.68183  0.63112  1.0000
  O   O18       1.0  0.9984  0.7712499999999998  0.6686399999999998  1.0000
  O   O19       1.0  0.2503599999999999  0.15045999999999995  0.4636899999999999  1.0000
  O   O20       1.0  0.4984799999999999  0.21322999999999995  0.476  1.0000
  O   O21       1.0  0.062109999999999985  0.9201099999999998  0.56157  1.0000
  O   O22       1.0  0.2569799999999999  0.8432899999999998  0.59461  1.0000
  O   O23       1.0  0.33617  0.17826999999999996  0.3688699999999999  1.0000
  O   O24       1.0  0.49167  0.2713  0.33174999999999993  1.0000
  O   O25       1.0  0.24674999999999997  0.6426499999999998  0.96069  1.0000
  O   O26       1.0  0.008830000000000006  0.71312  0.97628  1.0000
  O   O27       1.0  0.44216  0.4215799999999999  0.06581  1.0000
  O   O28       1.0  0.24537999999999993  0.34072999999999987  0.09421999999999997  1.0000
  O   O29       1.0  0.16113  0.67945  0.86879  1.0000
  O   O30       1.0  0.01329  0.7756899999999998  0.83147  1.0000
  O   O31       1.0  0.25157  0.13775  0.040559999999999985  1.0000
  O   O32       1.0  0.48922  0.20844999999999994  0.02616  1.0000
  O   O33       1.0  0.06463  0.9139999999999998  0.93795  1.0000
  O   O34       1.0  0.26512000000000013  0.8400999999999997  0.90525  1.0000
  O   O35       1.0  0.33243  0.17528999999999995  0.13131  1.0000
  O   O36       1.0  0.49253  0.2678  0.16688  1.0000
  O   O37       1.0  0.74928  0.3569199999999999  0.4619199999999999  1.0000
  O   O38       1.0  0.9993999999999998  0.2950099999999999  0.4738699999999999  1.0000
  O   O39       1.0  0.5578799999999998  0.5810299999999998  0.56566  1.0000
  O   O40       1.0  0.7559  0.66183  0.59394  1.0000
  O   O41       1.0  0.83128  0.3257899999999999  0.36878  1.0000
  O   O42       1.0  0.99787  0.23458999999999994  0.3333599999999999  1.0000
  O   O43       1.0  0.7463  0.8623799999999998  0.5403  1.0000
  O   O44       1.0  0.50887  0.7917399999999998  0.52579  1.0000
  O   O45       1.0  0.94352  0.07880999999999998  0.4339  1.0000
  O   O46       1.0  0.7456  0.16159  0.40694999999999987  1.0000
  O   O47       1.0  0.66824  0.8261899999999998  0.6311999999999998  1.0000
  O   O48       1.0  0.50783  0.7332999999999997  0.66653  1.0000
