data_image0
_chemical_formula_structural       K4Zn4H60C60O28
_chemical_formula_sum              "K4 Zn4 H60 C60 O28"
_cell_length_a       11.23272
_cell_length_b       11.21497
_cell_length_c       16.44448
_cell_angle_alpha    90.29421
_cell_angle_beta     90.22488000000001
_cell_angle_gamma    92.84044000000002

_symmetry_space_group_name_H-M    'P 1'
_symmetry_Int_Tables_number       1

loop_
  _symmetry_equiv_pos_as_xyz
  'x,y,z'

loop_
  _atom_site_type_symbol
  _atom_site_label
  _atom_site_symmetry_multiplicity
  _atom_site_fract_x
  _atom_site_fract_y
  _atom_site_fract_z
  _atom_site_occupancy
  K   K1        1.0  0.84088  0.06337  0.9466800000000002  1.0000
  K   K2        1.0  0.9397799999999998  0.15737000000000004  0.55248  1.0000
  K   K3        1.0  0.15575999999999998  0.93849  0.05395000000000001  1.0000
  K   K4        1.0  0.062090000000000006  0.8393700000000001  0.44812  1.0000
  Zn  Zn1       1.0  0.028590000000000008  0.9718500000000002  0.25165  1.0000
  Zn  Zn2       1.0  0.9703099999999998  0.02828  0.74872  1.0000
  Zn  Zn3       1.0  0.50016  0.9992400000000001  0.00199  1.0000
  Zn  Zn4       1.0  0.99947  0.50005  0.50198  1.0000
  H   H1        1.0  0.83904  0.28029  0.19383  1.0000
  H   H2        1.0  0.69849  0.25119  0.14956  1.0000
  H   H3        1.0  0.74179  0.3981400000000001  0.18173000000000006  1.0000
  H   H4        1.0  0.56784  0.4244200000000001  0.97896  1.0000
  H   H5        1.0  0.59716  0.40109  0.08236  1.0000
  H   H6        1.0  0.6188999999999999  0.36455  0.8636700000000003  1.0000
  H   H7        1.0  0.7413599999999999  0.37291  0.79773  1.0000
  H   H8        1.0  0.6956  0.50402  0.84626  1.0000
  H   H9        1.0  0.16277999999999998  0.27275000000000005  0.00107  1.0000
  H   H10       1.0  0.17370999999999998  0.41268  0.9513600000000002  1.0000
  H   H11       1.0  0.12819  0.2799  0.8973  1.0000
  H   H12       1.0  0.12160999999999997  0.32286  0.10865  1.0000
  H   H13       1.0  0.009689999999999999  0.35002  0.17849  1.0000
  H   H14       1.0  0.9128199999999997  0.45524  0.7900300000000002  1.0000
  H   H15       1.0  0.054729999999999994  0.42923000000000006  0.82765  1.0000
  H   H16       1.0  0.7198  0.16062000000000004  0.3065200000000001  1.0000
  H   H17       1.0  0.7484599999999999  0.3016  0.35081  1.0000
  H   H18       1.0  0.60192  0.25781000000000004  0.31866  1.0000
  H   H19       1.0  0.5738799999999998  0.43154000000000003  0.52101  1.0000
  H   H20       1.0  0.60336  0.40384000000000003  0.4181  1.0000
  H   H21       1.0  0.63553  0.38112  0.63649  1.0000
  H   H22       1.0  0.62694  0.2589600000000001  0.70268  1.0000
  H   H23       1.0  0.49607999999999997  0.30467  0.65407  1.0000
  H   H24       1.0  0.7267999999999999  0.8365  0.4989100000000001  1.0000
  H   H25       1.0  0.58697  0.8255300000000001  0.54868  1.0000
  H   H26       1.0  0.71961  0.8707500000000001  0.60266  1.0000
  H   H27       1.0  0.67482  0.8775100000000002  0.39141  1.0000
  H   H28       1.0  0.65211  0.9904800000000001  0.3214300000000001  1.0000
  H   H29       1.0  0.5465399999999999  0.08719000000000002  0.71101  1.0000
  H   H30       1.0  0.57154  0.9447000000000001  0.67331  1.0000
  H   H31       1.0  0.1607  0.71987  0.80686  1.0000
  H   H32       1.0  0.30141  0.74841  0.8511  1.0000
  H   H33       1.0  0.25749  0.6016600000000001  0.8189100000000002  1.0000
  H   H34       1.0  0.43044  0.57341  0.021410000000000005  1.0000
  H   H35       1.0  0.40302  0.60313  0.9185000000000001  1.0000
  H   H36       1.0  0.3803599999999999  0.6358000000000001  0.13673  1.0000
  H   H37       1.0  0.25861  0.6269200000000001  0.20319  1.0000
  H   H38       1.0  0.30385  0.49617000000000006  0.15382  1.0000
  H   H39       1.0  0.8364999999999999  0.7276900000000002  0.99927  1.0000
  H   H40       1.0  0.82595  0.58765  0.048970000000000014  1.0000
  H   H41       1.0  0.8705899999999999  0.72067  0.1031  1.0000
  H   H42       1.0  0.8777399999999997  0.67561  0.8914500000000002  1.0000
  H   H43       1.0  0.9907599999999999  0.65185  0.82173  1.0000
  H   H44       1.0  0.08683  0.54647  0.21114  1.0000
  H   H45       1.0  0.94449  0.57279  0.17404  1.0000
  H   H46       1.0  0.27977  0.83849  0.69374  1.0000
  H   H47       1.0  0.25104999999999994  0.6976800000000001  0.64934  1.0000
  H   H48       1.0  0.39765999999999996  0.74142  0.68143  1.0000
  H   H49       1.0  0.42497  0.56778  0.4784200000000001  1.0000
  H   H50       1.0  0.39930000000000004  0.5961100000000001  0.5817300000000002  1.0000
  H   H51       1.0  0.3644899999999999  0.61857  0.36321  1.0000
  H   H52       1.0  0.37304  0.7412700000000001  0.29743  1.0000
  H   H53       1.0  0.50378  0.69559  0.34615  1.0000
  H   H54       1.0  0.27334  0.16349  0.50162  1.0000
  H   H55       1.0  0.41302999999999995  0.17387000000000002  0.45171  1.0000
  H   H56       1.0  0.28013  0.12909  0.39783000000000013  1.0000
  H   H57       1.0  0.32244  0.12180000000000002  0.60913  1.0000
  H   H58       1.0  0.34905  0.0094  0.67867  1.0000
  H   H59       1.0  0.45249999999999996  0.9128300000000001  0.28921  1.0000
  H   H60       1.0  0.4278099999999999  0.055160000000000015  0.32739  1.0000
  C   C1        1.0  0.7739399999999999  0.31721  0.15258000000000005  1.0000
  C   C2        1.0  0.82482  0.3424  0.06899000000000002  1.0000
  C   C3        1.0  0.7477099999999998  0.36846000000000007  0.00443  1.0000
  C   C4        1.0  0.61527  0.36744  0.0209  1.0000
  C   C5        1.0  0.5594199999999999  0.24168000000000003  0.01457  1.0000
  C   C6        1.0  0.70749  0.40796  0.8549700000000002  1.0000
  C   C7        1.0  0.7913699999999999  0.38559  0.9249200000000002  1.0000
  C   C8        1.0  0.91444  0.37736  0.9104400000000001  1.0000
  C   C9        1.0  0.99218  0.34833  0.9742800000000001  1.0000
  C   C10       1.0  0.94763  0.33415  0.05386  1.0000
  C   C11       1.0  0.12102  0.32761  0.95525  1.0000
  C   C12       1.0  0.027809999999999998  0.3004  0.12273000000000002  1.0000
  C   C13       1.0  0.017459999999999996  0.1663  0.14184  1.0000
  C   C14       1.0  0.9652199999999999  0.27554000000000006  0.7748600000000002  1.0000
  C   C15       1.0  0.96251  0.39177  0.82543  1.0000
  C   C16       1.0  0.68277  0.22582  0.3478000000000001  1.0000
  C   C17       1.0  0.65753  0.17483  0.4313700000000001  1.0000
  C   C18       1.0  0.6317000000000002  0.25201  0.49606  1.0000
  C   C19       1.0  0.63322  0.38476000000000005  0.4802400000000001  1.0000
  C   C20       1.0  0.75823  0.44081000000000004  0.48931  1.0000
  C   C21       1.0  0.59199  0.29254  0.64537  1.0000
  C   C22       1.0  0.61423  0.20826  0.5754700000000003  1.0000
  C   C23       1.0  0.62204  0.08503000000000001  0.5897600000000002  1.0000
  C   C24       1.0  0.6512  0.007190000000000002  0.52595  1.0000
  C   C25       1.0  0.66538  0.05179  0.44645  1.0000
  C   C26       1.0  0.67194  0.8781700000000001  0.54481  1.0000
  C   C27       1.0  0.6993499999999999  0.97118  0.37782  1.0000
  C   C28       1.0  0.83354  0.97986  0.36018  1.0000
  C   C29       1.0  0.7264499999999999  0.03474  0.72324  1.0000
  C   C30       1.0  0.6088599999999998  0.037140000000000006  0.6747800000000003  1.0000
  C   C31       1.0  0.22566  0.6827100000000002  0.8481300000000003  1.0000
  C   C32       1.0  0.17455  0.6578  0.9317400000000002  1.0000
  C   C33       1.0  0.25138  0.63198  0.9965  1.0000
  C   C34       1.0  0.3839299999999999  0.63297  0.9807100000000001  1.0000
  C   C35       1.0  0.44033  0.75797  0.98961  1.0000
  C   C36       1.0  0.2918700000000001  0.59233  0.14565  1.0000
  C   C37       1.0  0.20763  0.61517  0.07601  1.0000
  C   C38       1.0  0.08467  0.6237700000000002  0.09058000000000002  1.0000
  C   C39       1.0  0.007139999999999998  0.65244  0.026500000000000006  1.0000
  C   C40       1.0  0.05169000000000001  0.6660000000000001  0.9468400000000002  1.0000
  C   C41       1.0  0.8782  0.67297  0.0452  1.0000
  C   C42       1.0  0.9714299999999999  0.69971  0.87798  1.0000
  C   C43       1.0  0.98009  0.8341500000000001  0.86008  1.0000
  C   C44       1.0  0.03477  0.72691  0.22562  1.0000
  C   C45       1.0  0.036879999999999996  0.60993  0.17584000000000005  1.0000
  C   C46       1.0  0.31677999999999995  0.77342  0.65236  1.0000
  C   C47       1.0  0.34201  0.82456  0.56883  1.0000
  C   C48       1.0  0.36823  0.7475600000000002  0.50413  1.0000
  C   C49       1.0  0.36713  0.61489  0.52006  1.0000
  C   C50       1.0  0.24165999999999996  0.55913  0.51249  1.0000
  C   C51       1.0  0.40779999999999994  0.70736  0.35469  1.0000
  C   C52       1.0  0.38525  0.7913800000000001  0.42469  1.0000
  C   C53       1.0  0.37705  0.91461  0.41048  1.0000
  C   C54       1.0  0.34811  0.9923900000000001  0.47443  1.0000
  C   C55       1.0  0.33384  0.9476  0.5538900000000002  1.0000
  C   C56       1.0  0.32785999999999993  0.12155  0.45565  1.0000
  C   C57       1.0  0.29996  0.027750000000000004  0.62283  1.0000
  C   C58       1.0  0.16615  0.01753  0.64171  1.0000
  C   C59       1.0  0.27297  0.9667  0.27692  1.0000
  C   C60       1.0  0.39031  0.96283  0.32554  1.0000
  O   O1        1.0  0.61824  0.15095  0.00587  1.0000
  O   O2        1.0  0.44116  0.23726000000000005  0.01945  1.0000
  O   O3        1.0  0.98809  0.0918  0.08684000000000003  1.0000
  O   O4        1.0  0.04265999999999999  0.14046  0.21577  1.0000
  O   O5        1.0  0.95869  0.17732  0.8165100000000002  1.0000
  O   O6        1.0  0.3837  0.11834000000000001  0.011800000000000003  1.0000
  O   O7        1.0  0.9753399999999998  0.28391  0.69935  1.0000
  O   O8        1.0  0.84849  0.38192  0.49961000000000005  1.0000
  O   O9        1.0  0.7625999999999997  0.5592300000000001  0.48424  1.0000
  O   O10       1.0  0.90737  0.00604  0.41628  1.0000
  O   O11       1.0  0.8600599999999999  0.9573300000000001  0.28589  1.0000
  O   O12       1.0  0.8232999999999999  0.04123  0.68016  1.0000
  O   O13       1.0  0.88119  0.6170300000000001  0.4920800000000001  1.0000
  O   O14       1.0  0.72131  0.024640000000000006  0.7988  1.0000
  O   O15       1.0  0.38187999999999994  0.8486800000000001  0.99984  1.0000
  O   O16       1.0  0.55848  0.76185  0.98388  1.0000
  O   O17       1.0  0.006009999999999999  0.90806  0.9162200000000001  1.0000
  O   O18       1.0  0.9573399999999999  0.8603600000000001  0.7857800000000003  1.0000
  O   O19       1.0  0.041250000000000016  0.8240900000000002  0.18299000000000007  1.0000
  O   O20       1.0  0.6165399999999999  0.8807500000000001  0.98873  1.0000
  O   O21       1.0  0.024899999999999985  0.7212  0.30125  1.0000
  O   O22       1.0  0.15148  0.61789  0.50153  1.0000
  O   O23       1.0  0.23684999999999995  0.44095  0.51942  1.0000
  O   O24       1.0  0.09175  0.98821  0.5867  1.0000
  O   O25       1.0  0.13998999999999998  0.04282  0.7156  1.0000
  O   O26       1.0  0.17629000000000003  0.9635800000000001  0.3201200000000001  1.0000
  O   O27       1.0  0.11804999999999997  0.38338000000000005  0.51196  1.0000
  O   O28       1.0  0.27854999999999996  0.9753  0.20127000000000006  1.0000
