data_image0
_chemical_formula_structural       Cr4Ag4H72C72N12O24
_chemical_formula_sum              "Cr4 Ag4 H72 C72 N12 O24"
_cell_length_a       11.33702
_cell_length_b       12.11016
_cell_length_c       25.36788
_cell_angle_alpha    100.1387
_cell_angle_beta     89.74926000000002
_cell_angle_gamma    119.54616999999999

_symmetry_space_group_name_H-M    'P 1'
_symmetry_Int_Tables_number       1

loop_
  _symmetry_equiv_pos_as_xyz
  'x,y,z'

loop_
  _atom_site_type_symbol
  _atom_site_label
  _atom_site_symmetry_multiplicity
  _atom_site_fract_x
  _atom_site_fract_y
  _atom_site_fract_z
  _atom_site_occupancy
  Cr  Cr1       1.0  0.42168  0.53952  0.65878  1.0000
  Cr  Cr2       1.0  0.11235  0.53286  0.16847  1.0000
  Cr  Cr3       1.0  0.87626  0.46148000000000006  0.84073  1.0000
  Cr  Cr4       1.0  0.5696200000000001  0.4647000000000001  0.33883  1.0000
  Ag  Ag1       1.0  0.6165000000000002  0.8858000000000001  0.9677700000000001  1.0000
  Ag  Ag2       1.0  0.27198  0.8984900000000001  0.47533  1.0000
  Ag  Ag3       1.0  0.74938  0.12745000000000004  0.5302  1.0000
  Ag  Ag4       1.0  0.3900799999999999  0.10122  0.02882  1.0000
  H   H1        1.0  0.82118  0.68632  0.74749  1.0000
  H   H2        1.0  0.7581600000000001  0.65093  0.81025  1.0000
  H   H3        1.0  0.81386  0.8074  0.79705  1.0000
  H   H4        1.0  0.33315000000000006  0.7664000000000002  0.81587  1.0000
  H   H5        1.0  0.3063399999999999  0.637  0.8466  1.0000
  H   H6        1.0  0.1937600000000001  0.6076700000000002  0.79039  1.0000
  H   H7        1.0  0.29324  0.33967  0.06206  1.0000
  H   H8        1.0  0.35044  0.44812  0.01611  1.0000
  H   H9        1.0  0.46358000000000005  0.47247000000000006  0.0703  1.0000
  H   H10       1.0  0.49943  0.93696  0.12170999999999998  1.0000
  H   H11       1.0  0.36877999999999994  0.87476  0.06918  1.0000
  H   H12       1.0  0.34103000000000006  0.9284500000000001  0.13595  1.0000
  H   H13       1.0  0.87738  0.3854100000000001  0.98719  1.0000
  H   H14       1.0  0.7293699999999999  0.34929  0.020939999999999997  1.0000
  H   H15       1.0  0.86379  0.5135300000000002  0.0276  1.0000
  H   H16       1.0  0.9358099999999999  0.12629  0.17316  1.0000
  H   H17       1.0  0.79817  0.049120000000000004  0.12107  1.0000
  H   H18       1.0  0.96696  0.10533000000000001  0.10403  1.0000
  H   H19       1.0  0.88138  0.70972  0.25187  1.0000
  H   H20       1.0  0.89026  0.66592  0.31445  1.0000
  H   H21       1.0  0.014589999999999955  0.82117  0.3041  1.0000
  H   H22       1.0  0.42314000000000007  0.7399200000000001  0.32897  1.0000
  H   H23       1.0  0.29859  0.62326  0.3617  1.0000
  H   H24       1.0  0.37585000000000013  0.5740500000000002  0.30778  1.0000
  H   H25       1.0  0.027909999999999963  0.36216999999999994  0.5628  1.0000
  H   H26       1.0  0.08919000000000002  0.46519  0.51514  1.0000
  H   H27       1.0  0.01082  0.5029  0.57054  1.0000
  H   H28       1.0  0.43590999999999996  0.94214  0.62195  1.0000
  H   H29       1.0  0.5541400000000001  0.9152900000000003  0.58417  1.0000
  H   H30       1.0  0.58192  0.95346  0.6555800000000002  1.0000
  H   H31       1.0  0.51264  0.37481  0.48444  1.0000
  H   H32       1.0  0.63013  0.35493  0.52193  1.0000
  H   H33       1.0  0.6561199999999999  0.51368  0.52296  1.0000
  H   H34       1.0  0.24880999999999992  0.1424  0.68912  1.0000
  H   H35       1.0  0.29626  0.06812999999999998  0.63179  1.0000
  H   H36       1.0  0.15382  0.08998000000000002  0.62536  1.0000
  H   H37       1.0  0.12909  0.32062  0.75248  1.0000
  H   H38       1.0  0.09934000000000008  0.3488900000000001  0.6887400000000001  1.0000
  H   H39       1.0  0.99314  0.19478000000000004  0.70496  1.0000
  H   H40       1.0  0.55765  0.23837  0.68144  1.0000
  H   H41       1.0  0.6703000000000002  0.3696400000000001  0.65231  1.0000
  H   H42       1.0  0.5849000000000001  0.39676000000000006  0.70796  1.0000
  H   H43       1.0  0.96537  0.65285  0.43649  1.0000
  H   H44       1.0  0.8940899999999999  0.56823  0.4893700000000001  1.0000
  H   H45       1.0  0.97628  0.5124900000000001  0.44145  1.0000
  H   H46       1.0  0.59007  0.07479000000000006  0.36624000000000007  1.0000
  H   H47       1.0  0.47187000000000007  0.0799  0.41105  1.0000
  H   H48       1.0  0.43112  0.05408000000000001  0.34065  1.0000
  H   H49       1.0  0.50776  0.62838  0.51581  1.0000
  H   H50       1.0  0.39492000000000016  0.6667100000000002  0.48657  1.0000
  H   H51       1.0  0.3517700000000001  0.5012500000000001  0.48007000000000005  1.0000
  H   H52       1.0  0.78222  0.8760200000000001  0.31793  1.0000
  H   H53       1.0  0.7685700000000002  0.9514700000000001  0.38330000000000003  1.0000
  H   H54       1.0  0.87642  0.8834500000000002  0.37548  1.0000
  H   H55       1.0  0.1758  0.29566  0.23977  1.0000
  H   H56       1.0  0.24935  0.34097  0.17974000000000004  1.0000
  H   H57       1.0  0.19838  0.18309000000000003  0.19036  1.0000
  H   H58       1.0  0.66684  0.22108000000000005  0.18919  1.0000
  H   H59       1.0  0.7164799999999999  0.35607000000000005  0.15904  1.0000
  H   H60       1.0  0.80992  0.37402  0.21916  1.0000
  H   H61       1.0  0.65632  0.63296  0.93316  1.0000
  H   H62       1.0  0.62066  0.5401  0.98421  1.0000
  H   H63       1.0  0.4961300000000001  0.48798000000000014  0.9296600000000002  1.0000
  H   H64       1.0  0.4743100000000001  0.05666999999999998  0.8781000000000001  1.0000
  H   H65       1.0  0.6164400000000001  0.08997000000000008  0.92009  1.0000
  H   H66       1.0  0.61618  0.0499100000000001  0.84908  1.0000
  H   H67       1.0  0.13730999999999996  0.62136  0.01498  1.0000
  H   H68       1.0  0.27714999999999995  0.64683  0.9771  1.0000
  H   H69       1.0  0.13869000000000004  0.48630000000000007  0.97492  1.0000
  H   H70       1.0  0.11327999999999999  0.8622900000000001  0.8132  1.0000
  H   H71       1.0  0.24159999999999998  0.9341100000000001  0.86921  1.0000
  H   H72       1.0  0.07728999999999996  0.91172  0.87863  1.0000
  C   C1        1.0  0.7617099999999999  0.7037300000000002  0.7785700000000001  1.0000
  C   C2        1.0  0.62091  0.65845  0.75427  1.0000
  C   C3        1.0  0.5265  0.67826  0.78685  1.0000
  C   C4        1.0  0.3879699999999999  0.63564  0.7692799999999999  1.0000
  C   C5        1.0  0.29988000000000004  0.6623900000000001  0.80769  1.0000
  C   C6        1.0  0.5711699999999998  0.74496  0.84034  1.0000
  C   C7        1.0  0.35668000000000005  0.44093000000000004  0.05849  1.0000
  C   C8        1.0  0.31061  0.52296  0.09408  1.0000
  C   C9        1.0  0.36978000000000005  0.6572000000000001  0.09272  1.0000
  C   C10       1.0  0.33282999999999996  0.74532  0.12397  1.0000
  C   C11       1.0  0.38815  0.8788400000000001  0.11212  1.0000
  C   C12       1.0  0.46763000000000005  0.7074400000000001  0.05651  1.0000
  C   C13       1.0  0.84048  0.4133200000000001  0.02464  1.0000
  C   C14       1.0  0.9071699999999999  0.40334  0.07346  1.0000
  C   C15       1.0  0.8690400000000001  0.27901  0.08453  1.0000
  C   C16       1.0  0.92085  0.25804  0.13154  1.0000
  C   C17       1.0  0.90428  0.12729  0.13258  1.0000
  C   C18       1.0  0.7747500000000002  0.16973000000000002  0.04732  1.0000
  C   C19       1.0  0.95129  0.71907  0.28418  1.0000
  C   C20       1.0  0.03890000000000001  0.66436  0.26211  1.0000
  C   C21       1.0  0.14770000000000008  0.67923  0.29667  1.0000
  C   C22       1.0  0.23114000000000004  0.62202  0.28189  1.0000
  C   C23       1.0  0.3374600000000001  0.6396600000000002  0.32245000000000007  1.0000
  C   C24       1.0  0.17384000000000008  0.7514300000000002  0.34918  1.0000
  C   C25       1.0  0.07749999999999999  0.46308000000000005  0.55808  1.0000
  C   C26       1.0  0.21363000000000001  0.5387200000000001  0.59084  1.0000
  C   C27       1.0  0.29420000000000013  0.67626  0.59479  1.0000
  C   C28       1.0  0.42692  0.75925  0.62343  1.0000
  C   C29       1.0  0.50325  0.901  0.62154  1.0000
  C   C30       1.0  0.24248999999999993  0.73324  0.56522  1.0000
  C   C31       1.0  0.5794400000000001  0.41244000000000003  0.52229  1.0000
  C   C32       1.0  0.49956000000000006  0.40602000000000005  0.57032  1.0000
  C   C33       1.0  0.4168700000000001  0.28458  0.58653  1.0000
  C   C34       1.0  0.34465  0.2672300000000001  0.63385  1.0000
  C   C35       1.0  0.25715  0.13403000000000007  0.64568  1.0000
  C   C36       1.0  0.40994  0.17514000000000005  0.55385  1.0000
  C   C37       1.0  0.049629999999999994  0.29949  0.72166  1.0000
  C   C38       1.0  0.95583  0.34480000000000005  0.74576  1.0000
  C   C39       1.0  0.84276  0.32647000000000004  0.71265  1.0000
  C   C40       1.0  0.74738  0.36746  0.72983  1.0000
  C   C41       1.0  0.63399  0.3423  0.69071  1.0000
  C   C42       1.0  0.8222400000000001  0.26360000000000006  0.6587300000000001  1.0000
  C   C43       1.0  0.91148  0.55662  0.44652  1.0000
  C   C44       1.0  0.77808  0.475  0.41205  1.0000
  C   C45       1.0  0.70592  0.33769  0.40724  1.0000
  C   C46       1.0  0.57574  0.24976000000000007  0.37684  1.0000
  C   C47       1.0  0.51439  0.10616000000000003  0.37299000000000004  1.0000
  C   C48       1.0  0.76035  0.28475  0.43789  1.0000
  C   C49       1.0  0.43516  0.59982  0.48056000000000004  1.0000
  C   C50       1.0  0.50019  0.60331  0.42851  1.0000
  C   C51       1.0  0.5978599999999997  0.72488  0.41573  1.0000
  C   C52       1.0  0.66352  0.7406000000000001  0.36695  1.0000
  C   C53       1.0  0.77826  0.87075  0.36068  1.0000
  C   C54       1.0  0.62985  0.83643  0.45405  1.0000
  C   C55       1.0  0.24281  0.28504000000000007  0.21065  1.0000
  C   C56       1.0  0.38112000000000007  0.33430000000000004  0.23852  1.0000
  C   C57       1.0  0.47994  0.31345  0.20986  1.0000
  C   C58       1.0  0.61717  0.36069  0.23146  1.0000
  C   C59       1.0  0.70808  0.32661000000000007  0.19813  1.0000
  C   C60       1.0  0.4427  0.24399000000000007  0.15651  1.0000
  C   C61       1.0  0.60616  0.53434  0.94075  1.0000
  C   C62       1.0  0.6667700000000001  0.46041000000000004  0.90915  1.0000
  C   C63       1.0  0.60767  0.32394000000000006  0.90704  1.0000
  C   C64       1.0  0.6546200000000001  0.2421700000000002  0.8780200000000001  1.0000
  C   C65       1.0  0.58566  0.10123999999999998  0.88112  1.0000
  C   C66       1.0  0.49846  0.26562  0.93793  1.0000
  C   C67       1.0  0.16622  0.58732  0.97659  1.0000
  C   C68       1.0  0.09319000000000002  0.59469  0.9291  1.0000
  C   C69       1.0  0.1375600000000001  0.7164600000000002  0.9133300000000001  1.0000
  C   C70       1.0  0.08334000000000008  0.7342900000000002  0.86641  1.0000
  C   C71       1.0  0.13287999999999994  0.86835  0.85618  1.0000
  C   C72       1.0  0.24347  0.82659  0.94642  1.0000
  N   N1        1.0  0.6041200000000001  0.8019700000000001  0.8850400000000002  1.0000
  N   N2        1.0  0.5503200000000001  0.7531800000000001  0.02678  1.0000
  N   N3        1.0  0.69261  0.07667  0.01731  1.0000
  N   N4        1.0  0.1994799999999999  0.81249  0.39315  1.0000
  N   N5        1.0  0.19967000000000004  0.7807200000000001  0.53993  1.0000
  N   N6        1.0  0.40774000000000005  0.08489000000000001  0.52632  1.0000
  N   N7        1.0  0.8011  0.21060000000000004  0.61358  1.0000
  N   N8        1.0  0.80224  0.23886  0.46447000000000005  1.0000
  N   N9        1.0  0.6533700000000001  0.9293200000000001  0.486  1.0000
  N   N10       1.0  0.41526  0.18635  0.1119  1.0000
  N   N11       1.0  0.40796000000000004  0.21523000000000012  0.96418  1.0000
  N   N12       1.0  0.3340600000000001  0.9182900000000002  0.97412  1.0000
  O   O1        1.0  0.58979  0.59996  0.70497  1.0000
  O   O2        1.0  0.3340300000000001  0.5777900000000001  0.72126  1.0000
  O   O3        1.0  0.21727000000000002  0.4652700000000001  0.1244  1.0000
  O   O4        1.0  0.25533000000000006  0.71571  0.16194000000000003  1.0000
  O   O5        1.0  0.9799300000000001  0.34884  0.17369  1.0000
  O   O6        1.0  0.9987499999999999  0.51053  0.10322  1.0000
  O   O7        1.0  0.01099999999999999  0.60452  0.21337  1.0000
  O   O8        1.0  0.22013  0.55627  0.2353  1.0000
  O   O9        1.0  0.25321  0.47358  0.61284  1.0000
  O   O10       1.0  0.48747000000000007  0.7192700000000001  0.65084  1.0000
  O   O11       1.0  0.35148000000000007  0.36193000000000003  0.66862  1.0000
  O   O12       1.0  0.50734  0.51226  0.59447  1.0000
  O   O13       1.0  0.9833700000000001  0.40150000000000013  0.7953  1.0000
  O   O14       1.0  0.7505  0.42276  0.7780200000000002  1.0000
  O   O15       1.0  0.7346599999999999  0.5360700000000002  0.38881  1.0000
  O   O16       1.0  0.50547  0.28826  0.35453  1.0000
  O   O17       1.0  0.63081  0.6440900000000002  0.32741  1.0000
  O   O18       1.0  0.4632400000000001  0.4936600000000001  0.39672  1.0000
  O   O19       1.0  0.40470000000000006  0.39364000000000005  0.28745  1.0000
  O   O20       1.0  0.66707  0.4318700000000001  0.27811  1.0000
  O   O21       1.0  0.77362  0.5263000000000001  0.88631  1.0000
  O   O22       1.0  0.7545  0.28253999999999996  0.84896  1.0000
  O   O23       1.0  0.9932699999999999  0.6394000000000002  0.83102  1.0000
  O   O24       1.0  0.98909  0.4885500000000001  0.90511  1.0000
