data_image0
_chemical_formula_structural       Cd6H60C100N8O28
_chemical_formula_sum              "Cd6 H60 C100 N8 O28"
_cell_length_a       13.92202
_cell_length_b       14.21632
_cell_length_c       14.733599999999997
_cell_angle_alpha    93.55237999999999
_cell_angle_beta     106.63412
_cell_angle_gamma    119.77365999999999

_space_group_name_H-M_alt    "P 1"
_space_group_IT_number       1

loop_
  _space_group_symop_operation_xyz
  'x, y, z'

loop_
  _atom_site_type_symbol
  _atom_site_label
  _atom_site_symmetry_multiplicity
  _atom_site_fract_x
  _atom_site_fract_y
  _atom_site_fract_z
  _atom_site_occupancy
  Cd  Cd1       1.0  0.6194500000000002  0.71055  0.41577  1.0000
  Cd  Cd2       1.0  0.5234400000000002  0.7242200000000002  0.16619  1.0000
  Cd  Cd3       1.0  0.27959999999999996  0.79665  0.14326  1.0000
  Cd  Cd4       1.0  0.38055000000000017  0.2894500000000001  0.58423  1.0000
  Cd  Cd5       1.0  0.47656  0.27578  0.83381  1.0000
  Cd  Cd6       1.0  0.7204100000000002  0.20335000000000006  0.85675  1.0000
  H   H1        1.0  0.6113800000000001  0.18531  0.23529  1.0000
  H   H2        1.0  0.8063300000000003  0.34775999999999996  0.35101999999999994  1.0000
  H   H3        1.0  0.95105  0.3117  0.46568  1.0000
  H   H4        1.0  0.80024  0.13193  0.57448  1.0000
  H   H5        1.0  0.018479999999999983  0.11022  0.83501  1.0000
  H   H6        1.0  0.14466000000000007  0.10271000000000005  0.74584  1.0000
  H   H7        1.0  0.09302000000000006  0.10209000000000004  0.57093  1.0000
  H   H8        1.0  0.2998800000000001  0.31349000000000005  0.2637  1.0000
  H   H9        1.0  0.1434  0.159  0.11649  1.0000
  H   H10       1.0  0.041699999999999994  0.20348  0.96931  1.0000
  H   H11       1.0  0.2610000000000001  0.3846100000000001  0.92543  1.0000
  H   H12       1.0  0.15084  0.39157  0.62392  1.0000
  H   H13       1.0  0.9836900000000002  0.4061100000000001  0.64017  1.0000
  H   H14       1.0  0.95593  0.4086200000000001  0.79994  1.0000
  H   H15       1.0  0.4565  0.56709  0.52191  1.0000
  H   H16       1.0  0.4390600000000002  0.5723900000000001  0.6846700000000001  1.0000
  H   H17       1.0  0.63956  0.9339900000000002  0.74115  1.0000
  H   H18       1.0  0.6513100000000002  0.91191  0.57537  1.0000
  H   H19       1.0  0.36403  0.6048400000000002  0.78443  1.0000
  H   H20       1.0  0.36476  0.61062  0.95267  1.0000
  H   H21       1.0  0.6981  0.90293  0.06629  1.0000
  H   H22       1.0  0.708  0.9158900000000001  0.90027  1.0000
  H   H23       1.0  0.3101100000000001  0.93151  0.9767000000000001  1.0000
  H   H24       1.0  0.18146000000000023  0.9210800000000003  0.81236  1.0000
  H   H25       1.0  0.9372800000000001  0.5734800000000001  0.79619  1.0000
  H   H26       1.0  0.07589000000000004  0.59767  0.9574000000000001  1.0000
  H   H27       1.0  0.004040000000000062  0.90996  0.74693  1.0000
  H   H28       1.0  0.8472100000000002  0.89208  0.60198  1.0000
  H   H29       1.0  0.7319300000000002  0.56397  0.4882000000000001  1.0000
  H   H30       1.0  0.88212  0.5667800000000002  0.63151  1.0000
  H   H31       1.0  0.3886200000000002  0.8146900000000001  0.76471  1.0000
  H   H32       1.0  0.1936700000000001  0.6522500000000001  0.64898  1.0000
  H   H33       1.0  0.04896000000000002  0.6883  0.53433  1.0000
  H   H34       1.0  0.19977000000000003  0.86808  0.42552  1.0000
  H   H35       1.0  0.9815200000000002  0.8897800000000001  0.165  1.0000
  H   H36       1.0  0.85534  0.89729  0.25416  1.0000
  H   H37       1.0  0.90698  0.8979100000000002  0.42908  1.0000
  H   H38       1.0  0.70012  0.68651  0.73631  1.0000
  H   H39       1.0  0.8566000000000003  0.8410000000000001  0.8835100000000001  1.0000
  H   H40       1.0  0.9583000000000002  0.7965200000000001  0.0307  1.0000
  H   H41       1.0  0.739  0.61539  0.07457  1.0000
  H   H42       1.0  0.84916  0.60843  0.37609  1.0000
  H   H43       1.0  0.01632000000000007  0.5939000000000001  0.35984  1.0000
  H   H44       1.0  0.04406999999999989  0.59139  0.20006  1.0000
  H   H45       1.0  0.5435  0.4329100000000001  0.4781  1.0000
  H   H46       1.0  0.56094  0.42761000000000005  0.31534  1.0000
  H   H47       1.0  0.36044  0.06602000000000001  0.25886  1.0000
  H   H48       1.0  0.3487  0.08809000000000002  0.42464  1.0000
  H   H49       1.0  0.63597  0.39517  0.21557  1.0000
  H   H50       1.0  0.63524  0.38938000000000006  0.04733  1.0000
  H   H51       1.0  0.30191000000000007  0.09707000000000002  0.9337100000000002  1.0000
  H   H52       1.0  0.292  0.08412  0.09973  1.0000
  H   H53       1.0  0.6898900000000002  0.06849  0.0233  1.0000
  H   H54       1.0  0.81854  0.07892  0.18765000000000004  1.0000
  H   H55       1.0  0.06272000000000003  0.4265300000000001  0.20381  1.0000
  H   H56       1.0  0.9241100000000002  0.4023300000000001  0.0426  1.0000
  H   H57       1.0  0.99596  0.09004  0.25307  1.0000
  H   H58       1.0  0.15279  0.10792  0.39803  1.0000
  H   H59       1.0  0.26807  0.43603  0.5118  1.0000
  H   H60       1.0  0.11788000000000007  0.4332300000000001  0.36849  1.0000
  C   C1        1.0  0.83576  0.13412  0.41149  1.0000
  C   C2        1.0  0.72592  0.042680000000000023  0.34804  1.0000
  C   C3        1.0  0.7022900000000002  0.9276200000000002  0.34924  1.0000
  C   C4        1.0  0.64367  0.06203000000000001  0.28455  1.0000
  C   C5        1.0  0.5200400000000001  0.96837  0.21984  1.0000
  C   C6        1.0  0.6750300000000001  0.17247  0.2861  1.0000
  C   C7        1.0  0.78389  0.2627200000000001  0.35112  1.0000
  C   C8        1.0  0.8646100000000001  0.24368000000000004  0.41496  1.0000
  C   C9        1.0  0.9425799999999999  0.11462000000000003  0.56199  1.0000
  C   C10       1.0  0.8737299999999999  0.12257000000000005  0.6109  1.0000
  C   C11       1.0  0.9015300000000003  0.12065  0.7099999999999999  1.0000
  C   C12       1.0  0.8339800000000002  0.13677  0.76612  1.0000
  C   C13       1.0  0.99747  0.11082000000000003  0.7582299999999998  1.0000
  C   C14       1.0  0.06689000000000006  0.10555000000000006  0.70868  1.0000
  C   C15       1.0  0.03960999999999995  0.10656  0.61022  1.0000
  C   C16       1.0  0.14652  0.37875  0.03632  1.0000
  C   C17       1.0  0.23172000000000006  0.46568  0.11923  1.0000
  C   C18       1.0  0.24928000000000006  0.57868  0.11817  1.0000
  C   C19       1.0  0.2896300000000001  0.44180000000000025  0.20121  1.0000
  C   C20       1.0  0.39172  0.53266  0.28739  1.0000
  C   C21       1.0  0.2561700000000001  0.33069000000000004  0.19917  1.0000
  C   C22       1.0  0.16884  0.24479  0.11646  1.0000
  C   C23       1.0  0.11352000000000004  0.26831000000000005  0.03399  1.0000
  C   C24       1.0  0.10831000000000007  0.40018000000000004  0.87225  1.0000
  C   C25       1.0  0.20125  0.39158  0.86411  1.0000
  C   C26       1.0  0.21634000000000006  0.38899  0.7738800000000001  1.0000
  C   C27       1.0  0.31247  0.37372  0.76236  1.0000
  C   C28       1.0  0.13909  0.39619  0.69351  1.0000
  C   C29       1.0  0.04652000000000003  0.40455000000000013  0.70317  1.0000
  C   C30       1.0  0.03007000000000005  0.4062700000000001  0.79209  1.0000
  C   C31       1.0  0.4944000000000001  0.6461800000000001  0.57255  1.0000
  C   C32       1.0  0.48391000000000006  0.6503900000000001  0.66334  1.0000
  C   C33       1.0  0.53977  0.75473  0.72797  1.0000
  C   C34       1.0  0.5991199999999999  0.85109  0.69545  1.0000
  C   C35       1.0  0.60501  0.8394200000000003  0.60296  1.0000
  C   C36       1.0  0.5376100000000003  0.7591300000000002  0.8276  1.0000
  C   C37       1.0  0.44056  0.67311  0.84415  1.0000
  C   C38       1.0  0.44005  0.67499  0.93813  1.0000
  C   C39       1.0  0.6256600000000003  0.8397100000000002  0.00114  1.0000
  C   C40       1.0  0.63133  0.84557  0.90874  1.0000
  C   C41       1.0  0.22609000000000015  0.8544800000000002  0.93362  1.0000
  C   C42       1.0  0.15366000000000013  0.8482400000000001  0.84303  1.0000
  C   C43       1.0  0.045130000000000094  0.7470100000000002  0.79167  1.0000
  C   C44       1.0  0.01971000000000005  0.65427  0.83163  1.0000
  C   C45       1.0  0.09658  0.6674200000000001  0.92296  1.0000
  C   C46       1.0  0.95719  0.7397  0.70227  1.0000
  C   C47       1.0  0.9462  0.83147  0.69154  1.0000
  C   C48       1.0  0.8575300000000001  0.8216600000000002  0.61061  1.0000
  C   C49       1.0  0.7930600000000002  0.6382800000000001  0.54813  1.0000
  C   C50       1.0  0.8779300000000002  0.6409400000000001  0.62773  1.0000
  C   C51       1.0  0.16424000000000016  0.8658800000000002  0.58852  1.0000
  C   C52       1.0  0.27408000000000005  0.95732  0.65196  1.0000
  C   C53       1.0  0.29771  0.07238  0.65076  1.0000
  C   C54       1.0  0.35633000000000004  0.93798  0.71545  1.0000
  C   C55       1.0  0.47996000000000005  0.03163  0.78016  1.0000
  C   C56       1.0  0.3249800000000001  0.8275400000000002  0.71391  1.0000
  C   C57       1.0  0.21611000000000002  0.73728  0.64889  1.0000
  C   C58       1.0  0.13539  0.75633  0.5850499999999998  1.0000
  C   C59       1.0  0.05742000000000006  0.8853900000000001  0.43801  1.0000
  C   C60       1.0  0.12627000000000013  0.8774400000000002  0.38911  1.0000
  C   C61       1.0  0.09846999999999999  0.87935  0.29  1.0000
  C   C62       1.0  0.16602000000000003  0.86323  0.23388  1.0000
  C   C63       1.0  0.002530000000000019  0.88918  0.24177  1.0000
  C   C64       1.0  0.9331100000000002  0.8944500000000002  0.29133  1.0000
  C   C65       1.0  0.9603900000000001  0.89345  0.38979  1.0000
  C   C66       1.0  0.85348  0.62125  0.96368  1.0000
  C   C67       1.0  0.76828  0.53433  0.88078  1.0000
  C   C68       1.0  0.75072  0.42132  0.88183  1.0000
  C   C69       1.0  0.71037  0.5582000000000001  0.79879  1.0000
  C   C70       1.0  0.60828  0.4673400000000001  0.71262  1.0000
  C   C71       1.0  0.7438300000000004  0.6693100000000002  0.80084  1.0000
  C   C72       1.0  0.83116  0.7552100000000002  0.8835500000000001  1.0000
  C   C73       1.0  0.8864800000000002  0.7316900000000002  0.96601  1.0000
  C   C74       1.0  0.89169  0.59982  0.12776  1.0000
  C   C75       1.0  0.7987500000000002  0.6084200000000001  0.13589  1.0000
  C   C76       1.0  0.7836600000000004  0.6110200000000002  0.22612  1.0000
  C   C77       1.0  0.68753  0.62629  0.23764000000000002  1.0000
  C   C78       1.0  0.86091  0.60381  0.3065  1.0000
  C   C79       1.0  0.9534800000000003  0.59546  0.29683  1.0000
  C   C80       1.0  0.9699299999999998  0.59373  0.20791  1.0000
  C   C81       1.0  0.5056  0.35382  0.42746  1.0000
  C   C82       1.0  0.5160900000000002  0.3496100000000001  0.33667  1.0000
  C   C83       1.0  0.4602300000000001  0.24527000000000004  0.27203  1.0000
  C   C84       1.0  0.40088  0.14891  0.30455  1.0000
  C   C85       1.0  0.39499  0.16059  0.39704  1.0000
  C   C86       1.0  0.4623900000000001  0.24087  0.1724  1.0000
  C   C87       1.0  0.5594400000000003  0.3269  0.15586  1.0000
  C   C88       1.0  0.5599600000000001  0.32502000000000003  0.06187  1.0000
  C   C89       1.0  0.37434  0.16029  0.99886  1.0000
  C   C90       1.0  0.36867  0.15443000000000004  0.09125999999999998  1.0000
  C   C91       1.0  0.77391  0.14552000000000004  0.06638  1.0000
  C   C92       1.0  0.8463400000000002  0.15176000000000003  0.15697  1.0000
  C   C93       1.0  0.95487  0.25299000000000005  0.20833  1.0000
  C   C94       1.0  0.98029  0.34574  0.16836999999999996  1.0000
  C   C95       1.0  0.90342  0.33258000000000004  0.07704000000000001  1.0000
  C   C96       1.0  0.04280999999999995  0.26030999999999993  0.29772999999999994  1.0000
  C   C97       1.0  0.05380000000000005  0.16854000000000005  0.30846  1.0000
  C   C98       1.0  0.14247  0.17834  0.38939  1.0000
  C   C99       1.0  0.20694000000000004  0.36172000000000004  0.45188  1.0000
  C   C100      1.0  0.12207000000000008  0.35906000000000005  0.37227  1.0000
  N   N1        1.0  0.5555900000000004  0.7385000000000002  0.54287  1.0000
  N   N2        1.0  0.5318600000000001  0.7563400000000002  0.01615  1.0000
  N   N3        1.0  0.1964400000000002  0.7665800000000002  0.9747300000000001  1.0000
  N   N4        1.0  0.78114  0.7263200000000001  0.53975  1.0000
  N   N5        1.0  0.44441  0.26151  0.45713  1.0000
  N   N6        1.0  0.46815000000000007  0.24366  0.98386  1.0000
  N   N7        1.0  0.80356  0.23342000000000002  0.02527  1.0000
  N   N8        1.0  0.21886000000000003  0.27368000000000003  0.46026  1.0000
  O   O1        1.0  0.45122  0.99165  0.16389  1.0000
  O   O2        1.0  0.48512  0.86735  0.22761  1.0000
  O   O3        1.0  0.69198  0.8954  0.4263  1.0000
  O   O4        1.0  0.69924  0.87296  0.27554  1.0000
  O   O5        1.0  0.92193  0.11455  0.46387  1.0000
  O   O6        1.0  0.85503  0.12779  0.85407  1.0000
  O   O7        1.0  0.7587200000000002  0.16206000000000004  0.72292  1.0000
  O   O8        1.0  0.42882000000000003  0.5094700000000001  0.36572  1.0000
  O   O9        1.0  0.44349000000000005  0.6347300000000001  0.27741  1.0000
  O   O10       1.0  0.18682999999999994  0.6021000000000001  0.15053  1.0000
  O   O11       1.0  0.3217400000000001  0.6440700000000001  0.08086  1.0000
  O   O12       1.0  0.08693000000000009  0.4047400000000001  0.95865  1.0000
  O   O13       1.0  0.32469000000000015  0.37726000000000004  0.6797600000000001  1.0000
  O   O14       1.0  0.37352  0.35899000000000003  0.8363  1.0000
  O   O15       1.0  0.5487800000000002  0.00836000000000002  0.83611  1.0000
  O   O16       1.0  0.51488  0.13265  0.77239  1.0000
  O   O17       1.0  0.30802  0.10461  0.5737  1.0000
  O   O18       1.0  0.30076  0.12704  0.72447  1.0000
  O   O19       1.0  0.07807000000000014  0.8854500000000001  0.53613  1.0000
  O   O20       1.0  0.1449700000000001  0.8722100000000003  0.14593  1.0000
  O   O21       1.0  0.24128000000000016  0.8379400000000004  0.27708  1.0000
  O   O22       1.0  0.5711800000000001  0.4905400000000001  0.63428  1.0000
  O   O23       1.0  0.5565100000000001  0.3652800000000001  0.7226000000000001  1.0000
  O   O24       1.0  0.81318  0.39790000000000003  0.84948  1.0000
  O   O25       1.0  0.6782600000000003  0.35593000000000014  0.91915  1.0000
  O   O26       1.0  0.9130800000000002  0.5952700000000001  0.04136  1.0000
  O   O27       1.0  0.6753100000000002  0.6227400000000001  0.32024  1.0000
  O   O28       1.0  0.62648  0.6410100000000001  0.16371  1.0000
