data_image0
_chemical_formula_structural       Ag6H102C60S6N6O6
_chemical_formula_sum              "Ag6 H102 C60 S6 N6 O6"
_cell_length_a       9.8123
_cell_length_b       17.11333
_cell_length_c       17.56542
_cell_angle_alpha    116.9216
_cell_angle_beta     102.82186
_cell_angle_gamma    97.68353999999998

_space_group_name_H-M_alt    "P 1"
_space_group_IT_number       1

loop_
  _space_group_symop_operation_xyz
  'x, y, z'

loop_
  _atom_site_type_symbol
  _atom_site_label
  _atom_site_symmetry_multiplicity
  _atom_site_fract_x
  _atom_site_fract_y
  _atom_site_fract_z
  _atom_site_occupancy
  Ag  Ag1       1.0  0.60321  0.70561  0.40844  1.0000
  Ag  Ag2       1.0  0.99385  0.6778  0.30286  1.0000
  Ag  Ag3       1.0  0.8531600000000003  0.5137300000000002  0.26697  1.0000
  Ag  Ag4       1.0  0.39729  0.29380000000000006  0.59154  1.0000
  Ag  Ag5       1.0  0.006130000000000028  0.32213  0.69703  1.0000
  Ag  Ag6       1.0  0.14666  0.48632  0.73306  1.0000
  H   H1        1.0  0.27557  0.35268999999999995  0.17447  1.0000
  H   H2        1.0  0.14672000000000002  0.39834  0.22379999999999994  1.0000
  H   H3        1.0  0.17385999999999996  0.31975  0.3134899999999999  1.0000
  H   H4        1.0  0.13531000000000004  0.23932999999999996  0.19870999999999997  1.0000
  H   H5        1.0  0.39815  0.24468  0.22477  1.0000
  H   H6        1.0  0.33625  0.21895  0.30004  1.0000
  H   H7        1.0  0.5759099999999999  0.33689  0.3797099999999999  1.0000
  H   H8        1.0  0.4390200000000001  0.3792  0.42222  1.0000
  H   H9        1.0  0.58666  0.49467  0.40076  1.0000
  H   H10       1.0  0.5562400000000001  0.41229  0.2877  1.0000
  H   H11       1.0  0.3293700000000001  0.48689000000000004  0.37332  1.0000
  H   H12       1.0  0.5552200000000002  0.57816  0.2218  1.0000
  H   H13       1.0  0.52671  0.46839  0.20599  1.0000
  H   H14       1.0  0.59453  0.40768  0.00493  1.0000
  H   H15       1.0  0.6419400000000001  0.48229000000000005  0.12238999999999997  1.0000
  H   H16       1.0  0.23449000000000003  0.44837  0.95276  1.0000
  H   H17       1.0  0.34953  0.38454000000000005  0.9011499999999999  1.0000
  H   H18       1.0  0.9424700000000003  0.8281399999999999  0.6455699999999998  1.0000
  H   H19       1.0  0.76906  0.8309800000000003  0.59323  1.0000
  H   H20       1.0  0.84727  0.0015300000000000326  0.67903  1.0000
  H   H21       1.0  0.8833800000000002  0.95981  0.75466  1.0000
  H   H22       1.0  0.14325000000000002  0.9835300000000001  0.7615699999999999  1.0000
  H   H23       1.0  0.09393999999999998  0.08619000000000002  0.7893  1.0000
  H   H24       1.0  0.23509  0.057359999999999925  0.6810599999999998  1.0000
  H   H25       1.0  0.05661999999999992  0.0569099999999999  0.6330199999999998  1.0000
  H   H26       1.0  0.12342000000000013  0.9240100000000001  0.52167  1.0000
  H   H27       1.0  0.1672299999999999  0.8883899999999999  0.6016999999999998  1.0000
  H   H28       1.0  0.86875  0.9005000000000001  0.51531  1.0000
  H   H29       1.0  0.04008999999999998  0.65656  0.4491199999999999  1.0000
  H   H30       1.0  0.08076999999999998  0.75092  0.5593  1.0000
  H   H31       1.0  0.17172000000000007  0.57462  0.6042  1.0000
  H   H32       1.0  0.17987999999999993  0.64236  0.5521699999999998  1.0000
  H   H33       1.0  0.77544  0.5117  0.53859  1.0000
  H   H34       1.0  0.93667  0.50046  0.60098  1.0000
  H   H35       1.0  0.13068  0.82194  0.17993  1.0000
  H   H36       1.0  0.9703400000000001  0.76712  0.18480999999999995  1.0000
  H   H37       1.0  0.86141  0.69037  0.01744  1.0000
  H   H38       1.0  0.9206300000000001  0.80938  0.06257  1.0000
  H   H39       1.0  0.14438000000000004  0.7923100000000001  0.018749999999999992  1.0000
  H   H40       1.0  0.9895200000000001  0.72083  0.92374  1.0000
  H   H41       1.0  0.17859000000000003  0.63703  0.93207  1.0000
  H   H42       1.0  0.018159999999999978  0.5880000000000001  0.9415299999999999  1.0000
  H   H43       1.0  0.23047  0.59944  0.05785  1.0000
  H   H44       1.0  0.2945100000000001  0.7178100000000002  0.09979999999999997  1.0000
  H   H45       1.0  0.009639999999999977  0.61613  0.09636999999999997  1.0000
  H   H46       1.0  0.41540000000000005  0.77343  0.3399199999999999  1.0000
  H   H47       1.0  0.37167  0.8024799999999999  0.25438  1.0000
  H   H48       1.0  0.57212  0.017489999999999943  0.4107599999999999  1.0000
  H   H49       1.0  0.55343  0.8984  0.36533  1.0000
  H   H50       1.0  0.24879  0.005729999999999997  0.48477  1.0000
  H   H51       1.0  0.38674  0.08494999999999997  0.4840899999999999  1.0000
  H   H52       1.0  0.7244200000000002  0.64734  0.82552  1.0000
  H   H53       1.0  0.8532800000000001  0.60169  0.7762  1.0000
  H   H54       1.0  0.82615  0.68027  0.68651  1.0000
  H   H55       1.0  0.86468  0.7607  0.8012899999999997  1.0000
  H   H56       1.0  0.60185  0.75534  0.77523  1.0000
  H   H57       1.0  0.6637200000000001  0.78107  0.69995  1.0000
  H   H58       1.0  0.42406999999999984  0.66312  0.6202899999999998  1.0000
  H   H59       1.0  0.56096  0.62081  0.57778  1.0000
  H   H60       1.0  0.4133500000000002  0.50534  0.59925  1.0000
  H   H61       1.0  0.44375000000000003  0.58772  0.71231  1.0000
  H   H62       1.0  0.67062  0.5131500000000002  0.62669  1.0000
  H   H63       1.0  0.44478  0.42181  0.77815  1.0000
  H   H64       1.0  0.47320999999999985  0.5315999999999999  0.7939699999999997  1.0000
  H   H65       1.0  0.40539000000000014  0.5923  0.99502  1.0000
  H   H66       1.0  0.35806000000000004  0.51764  0.87757  1.0000
  H   H67       1.0  0.76543  0.55166  0.047259999999999996  1.0000
  H   H68       1.0  0.65033  0.61542  0.09884  1.0000
  H   H69       1.0  0.05751999999999995  0.17186999999999997  0.3544299999999999  1.0000
  H   H70       1.0  0.23092  0.16905000000000006  0.4068  1.0000
  H   H71       1.0  0.15272999999999998  0.9984999999999999  0.321  1.0000
  H   H72       1.0  0.11663  0.04021  0.24536  1.0000
  H   H73       1.0  0.8567500000000001  0.016479999999999967  0.23842999999999995  1.0000
  H   H74       1.0  0.9060700000000002  0.91382  0.2107  1.0000
  H   H75       1.0  0.76491  0.9426500000000001  0.31893  1.0000
  H   H76       1.0  0.94337  0.9431100000000002  0.36697999999999986  1.0000
  H   H77       1.0  0.8765400000000001  0.07599999999999997  0.4783299999999999  1.0000
  H   H78       1.0  0.83272  0.11161000000000003  0.3983  1.0000
  H   H79       1.0  0.13123999999999997  0.09955000000000004  0.48471  1.0000
  H   H80       1.0  0.9598300000000001  0.34345  0.5508399999999998  1.0000
  H   H81       1.0  0.9191700000000002  0.24909  0.44066999999999995  1.0000
  H   H82       1.0  0.8282000000000002  0.42541  0.39579  1.0000
  H   H83       1.0  0.82008  0.35767  0.44782  1.0000
  H   H84       1.0  0.22452000000000003  0.4883100000000001  0.46143  1.0000
  H   H85       1.0  0.06334000000000001  0.49957  0.39901  1.0000
  H   H86       1.0  0.8693400000000002  0.17804999999999988  0.8200599999999998  1.0000
  H   H87       1.0  0.029700000000000018  0.23287  0.81519  1.0000
  H   H88       1.0  0.1386  0.30962  0.98257  1.0000
  H   H89       1.0  0.07935999999999999  0.19061  0.93744  1.0000
  H   H90       1.0  0.8556  0.20768  0.98123  1.0000
  H   H91       1.0  0.010429999999999986  0.27916  0.07625  1.0000
  H   H92       1.0  0.82135  0.36295000000000005  0.06788999999999998  1.0000
  H   H93       1.0  0.9818000000000002  0.41199000000000013  0.05845  1.0000
  H   H94       1.0  0.7695200000000001  0.4005399999999999  0.9421  1.0000
  H   H95       1.0  0.7054900000000001  0.28216999999999987  0.9001599999999997  1.0000
  H   H96       1.0  0.99038  0.38385  0.9036  1.0000
  H   H97       1.0  0.58463  0.22653000000000006  0.66004  1.0000
  H   H98       1.0  0.62829  0.19750999999999988  0.7455899999999998  1.0000
  H   H99       1.0  0.42783999999999994  0.98254  0.58928  1.0000
  H   H100      1.0  0.44655999999999973  0.10162999999999993  0.6346299999999998  1.0000
  H   H101      1.0  0.75119  0.99424  0.51522  1.0000
  H   H102      1.0  0.61321  0.9150200000000002  0.51589  1.0000
  C   C1        1.0  0.24574  0.3764200000000001  0.23648  1.0000
  C   C2        1.0  0.21826  0.29854  0.2572  1.0000
  C   C3        1.0  0.35829  0.27272  0.28291  1.0000
  C   C4        1.0  0.47559999999999986  0.35594999999999993  0.36264999999999986  1.0000
  C   C5        1.0  0.5073399999999999  0.43372  0.34218  1.0000
  C   C6        1.0  0.36732000000000004  0.45825  0.31441  1.0000
  C   C7        1.0  0.4691799999999999  0.5185  0.20376  1.0000
  C   C8        1.0  0.36444000000000004  0.48372000000000004  0.10963  1.0000
  C   C9        1.0  0.58349  0.47193000000000007  0.056059999999999985  1.0000
  C   C10       1.0  0.34746999999999995  0.44994999999999985  0.9554199999999998  1.0000
  C   C11       1.0  0.8853999999999999  0.8674299999999999  0.6209599999999997  1.0000
  C   C12       1.0  0.9150900000000002  0.96415  0.70016  1.0000
  C   C13       1.0  0.07520999999999996  0.016689999999999903  0.7339299999999997  1.0000
  C   C14       1.0  0.12047000000000001  0.019479999999999994  0.65683  1.0000
  C   C15       1.0  0.09545000000000001  0.9228500000000001  0.57841  1.0000
  C   C16       1.0  0.9366800000000001  0.8691100000000002  0.54539  1.0000
  C   C17       1.0  0.9921100000000003  0.69866  0.49892999999999993  1.0000
  C   C18       1.0  0.8989800000000002  0.63688  0.5197  1.0000
  C   C19       1.0  0.11826000000000003  0.58007  0.54525  1.0000
  C   C20       1.0  0.88504  0.50439  0.54062  1.0000
  C   C21       1.0  0.04059000000000001  0.7593700000000001  0.14240999999999995  1.0000
  C   C22       1.0  0.95833  0.7485000000000003  0.05121999999999999  1.0000
  C   C23       1.0  0.05288000000000005  0.73165  0.98938  1.0000
  C   C24       1.0  0.11053999999999994  0.6489700000000002  0.9762399999999998  1.0000
  C   C25       1.0  0.19593  0.66062  0.06705  1.0000
  C   C26       1.0  0.10080000000000006  0.6776500000000001  0.12836  1.0000
  C   C27       1.0  0.3259  0.7870500000000002  0.2992  1.0000
  C   C28       1.0  0.27930999999999995  0.8662400000000001  0.3626199999999999  1.0000
  C   C29       1.0  0.5395700000000001  0.9587600000000001  0.41952  1.0000
  C   C30       1.0  0.36305000000000004  0.023129999999999967  0.4897899999999999  1.0000
  C   C31       1.0  0.75426  0.62361  0.7635199999999998  1.0000
  C   C32       1.0  0.7817399999999999  0.7014899999999998  0.7427999999999998  1.0000
  C   C33       1.0  0.6417  0.7273  0.7170899999999998  1.0000
  C   C34       1.0  0.52438  0.64407  0.63735  1.0000
  C   C35       1.0  0.4926499999999998  0.5663  0.6578199999999997  1.0000
  C   C36       1.0  0.6326899999999999  0.54177  0.6856  1.0000
  C   C37       1.0  0.53077  0.48151  0.7962099999999998  1.0000
  C   C38       1.0  0.6355300000000003  0.5162700000000002  0.89033  1.0000
  C   C39       1.0  0.4164399999999998  0.5280299999999999  0.9438799999999998  1.0000
  C   C40       1.0  0.65248  0.5500300000000001  0.04455999999999999  1.0000
  C   C41       1.0  0.11457000000000002  0.13259000000000004  0.37905  1.0000
  C   C42       1.0  0.08490999999999994  0.035879999999999954  0.2998599999999999  1.0000
  C   C43       1.0  0.9248000000000004  0.9833200000000001  0.26607  1.0000
  C   C44       1.0  0.87952  0.98053  0.34317  1.0000
  C   C45       1.0  0.90453  0.07715999999999995  0.4215899999999999  1.0000
  C   C46       1.0  0.06328999999999994  0.13092  0.4546199999999999  1.0000
  C   C47       1.0  0.00782000000000001  0.30135  0.50103  1.0000
  C   C48       1.0  0.10094999999999998  0.36311999999999994  0.4802599999999999  1.0000
  C   C49       1.0  0.88168  0.41995  0.45473  1.0000
  C   C50       1.0  0.11493000000000009  0.49563  0.45937  1.0000
  C   C51       1.0  0.9594400000000001  0.24061999999999995  0.8575799999999999  1.0000
  C   C52       1.0  0.04167000000000007  0.25149000000000016  0.94878  1.0000
  C   C53       1.0  0.9471  0.26834  0.01061  1.0000
  C   C54       1.0  0.88943  0.35101  0.023729999999999994  1.0000
  C   C55       1.0  0.80407  0.3393599999999999  0.9329099999999998  1.0000
  C   C56       1.0  0.8992100000000001  0.32234  0.87161  1.0000
  C   C57       1.0  0.6741399999999999  0.21290999999999985  0.7007799999999997  1.0000
  C   C58       1.0  0.72066  0.13372  0.63739  1.0000
  C   C59       1.0  0.46041000000000004  0.04124  0.58047  1.0000
  C   C60       1.0  0.63692  0.97684  0.5102  1.0000
  S   S1        1.0  0.38965  0.55495  0.29402  1.0000
  S   S2        1.0  0.8925  0.7534700000000001  0.44651999999999986  1.0000
  S   S3        1.0  0.19242999999999996  0.6780899999999997  0.23178999999999994  1.0000
  S   S4        1.0  0.6103800000000001  0.4450800000000002  0.70599  1.0000
  S   S5        1.0  0.10752000000000002  0.24659000000000003  0.55347  1.0000
  S   S6        1.0  0.8075900000000003  0.32188  0.76818  1.0000
  N   N1        1.0  0.4284500000000001  0.4634  0.04316  1.0000
  N   N2        1.0  0.9702300000000001  0.58472  0.5457299999999998  1.0000
  N   N3        1.0  0.3874000000000001  0.9464000000000001  0.41637  1.0000
  N   N4        1.0  0.5714600000000001  0.53659  0.95686  1.0000
  N   N5        1.0  0.02968999999999996  0.41531  0.45423999999999987  1.0000
  N   N6        1.0  0.6125800000000001  0.05354999999999988  0.5836199999999998  1.0000
  O   O1        1.0  0.23260000000000003  0.4761600000000001  0.09380999999999999  1.0000
  O   O2        1.0  0.76948  0.63251  0.51303  1.0000
  O   O3        1.0  0.15530999999999995  0.8595099999999999  0.3696499999999999  1.0000
  O   O4        1.0  0.7673200000000001  0.52387  0.90616  1.0000
  O   O5        1.0  0.23043000000000005  0.3674799999999999  0.4868999999999999  1.0000
  O   O6        1.0  0.84475  0.14040000000000005  0.63034  1.0000
