data_image0
_chemical_formula_structural       Zn16H48C96O52
_chemical_formula_sum              "Zn16 H48 C96 O52"
_cell_length_a       18.40657
_cell_length_b       18.406469999999995
_cell_length_c       18.40649
_cell_angle_alpha    60.212329999999994
_cell_angle_beta     60.21852
_cell_angle_gamma    60.21848

_symmetry_space_group_name_H-M    'P 1'
_symmetry_Int_Tables_number       1

loop_
  _symmetry_equiv_pos_as_xyz
  'x,y,z'

loop_
  _atom_site_type_symbol
  _atom_site_label
  _atom_site_symmetry_multiplicity
  _atom_site_fract_x
  _atom_site_fract_y
  _atom_site_fract_z
  _atom_site_occupancy
  Zn  Zn1       1.0  0.21778000000000006  0.3900799999999999  0.3900800000000001  1.0000
  Zn  Zn2       1.0  0.97776  0.80385  0.80385  1.0000
  Zn  Zn3       1.0  0.39007  0.39006  0.21777  1.0000
  Zn  Zn4       1.0  0.8038400000000004  0.8038600000000001  0.97777  1.0000
  Zn  Zn5       1.0  0.3900700000000001  0.21777999999999997  0.39006  1.0000
  Zn  Zn6       1.0  0.80384  0.9777699999999999  0.80386  1.0000
  Zn  Zn7       1.0  0.39146999999999993  0.39149999999999996  0.3915  1.0000
  Zn  Zn8       1.0  0.8036400000000001  0.8036299999999998  0.8036300000000002  1.0000
  Zn  Zn9       1.0  0.6099200000000002  0.7822299999999999  0.60994  1.0000
  Zn  Zn10      1.0  0.19614999999999996  0.022229999999999982  0.19614000000000006  1.0000
  Zn  Zn11      1.0  0.6099199999999999  0.60994  0.7822200000000002  1.0000
  Zn  Zn12      1.0  0.19615  0.19614  0.02223  1.0000
  Zn  Zn13      1.0  0.78221  0.60993  0.60992  1.0000
  Zn  Zn14      1.0  0.022229999999999982  0.19615  0.19615000000000005  1.0000
  Zn  Zn15      1.0  0.6085200000000001  0.6085  0.6085  1.0000
  Zn  Zn16      1.0  0.19635000000000002  0.19636999999999996  0.19637  1.0000
  H   H1        1.0  0.9329199999999997  0.16555000000000003  0.64656  1.0000
  H   H2        1.0  0.02892  0.26171  0.55034  1.0000
  H   H3        1.0  0.16553999999999996  0.64657  0.9329100000000001  1.0000
  H   H4        1.0  0.2616899999999999  0.5503500000000002  0.028920000000000008  1.0000
  H   H5        1.0  0.64655  0.93291  0.16556  1.0000
  H   H6        1.0  0.55034  0.028900000000000002  0.26171  1.0000
  H   H7        1.0  0.16553999999999988  0.93291  0.64657  1.0000
  H   H8        1.0  0.2616899999999999  0.028920000000000005  0.55034  1.0000
  H   H9        1.0  0.6465499999999998  0.16556999999999994  0.9329100000000001  1.0000
  H   H10       1.0  0.55035  0.26171  0.028900000000000006  1.0000
  H   H11       1.0  0.93292  0.64656  0.16555000000000003  1.0000
  H   H12       1.0  0.028920000000000026  0.55034  0.26171  1.0000
  H   H13       1.0  0.9323500000000001  0.64467  0.64466  1.0000
  H   H14       1.0  0.028370000000000013  0.54887  0.54887  1.0000
  H   H15       1.0  0.16458999999999985  0.64596  0.6459500000000001  1.0000
  H   H16       1.0  0.2610700000000001  0.54964  0.5496400000000002  1.0000
  H   H17       1.0  0.6446700000000002  0.6446799999999998  0.9323400000000002  1.0000
  H   H18       1.0  0.54887  0.54887  0.02838  1.0000
  H   H19       1.0  0.6459499999999999  0.64596  0.16459  1.0000
  H   H20       1.0  0.54963  0.54963  0.26109  1.0000
  H   H21       1.0  0.6446700000000001  0.93235  0.64467  1.0000
  H   H22       1.0  0.54887  0.028379999999999992  0.54887  1.0000
  H   H23       1.0  0.6459499999999999  0.16458999999999993  0.6459500000000001  1.0000
  H   H24       1.0  0.54963  0.2610999999999999  0.5496300000000002  1.0000
  H   H25       1.0  0.83445  0.06708999999999997  0.35343000000000013  1.0000
  H   H26       1.0  0.7383000000000002  0.97108  0.4496500000000001  1.0000
  H   H27       1.0  0.35344  0.83444  0.06709000000000001  1.0000
  H   H28       1.0  0.44965  0.7382899999999998  0.9711000000000002  1.0000
  H   H29       1.0  0.06707000000000002  0.35344  0.83445  1.0000
  H   H30       1.0  0.9710700000000005  0.44967000000000007  0.73829  1.0000
  H   H31       1.0  0.06706999999999999  0.83446  0.35344  1.0000
  H   H32       1.0  0.9710699999999998  0.73829  0.4496600000000001  1.0000
  H   H33       1.0  0.83445  0.35343  0.06709000000000001  1.0000
  H   H34       1.0  0.7383000000000002  0.44966  0.97108  1.0000
  H   H35       1.0  0.35344000000000003  0.06708999999999996  0.8344300000000002  1.0000
  H   H36       1.0  0.4496500000000001  0.9711  0.73829  1.0000
  H   H37       1.0  0.35532  0.06766  0.35533  1.0000
  H   H38       1.0  0.4511300000000001  0.9716199999999999  0.45113  1.0000
  H   H39       1.0  0.35403999999999997  0.83541  0.3540400000000001  1.0000
  H   H40       1.0  0.45035999999999987  0.73891  0.4503700000000001  1.0000
  H   H41       1.0  0.35532  0.35533  0.06766  1.0000
  H   H42       1.0  0.45113  0.4511299999999999  0.9716200000000002  1.0000
  H   H43       1.0  0.35404000000000013  0.35405  0.83541  1.0000
  H   H44       1.0  0.45036000000000015  0.45037  0.73891  1.0000
  H   H45       1.0  0.06763999999999999  0.35533999999999993  0.35534000000000004  1.0000
  H   H46       1.0  0.9716200000000002  0.4511299999999999  0.45113  1.0000
  H   H47       1.0  0.8353999999999998  0.35405  0.3540500000000001  1.0000
  H   H48       1.0  0.73892  0.45036  0.45036  1.0000
  C   C1        1.0  0.004820000000000008  0.13643999999999998  0.62516  1.0000
  C   C2        1.0  0.058179999999999926  0.18983999999999993  0.5717300000000002  1.0000
  C   C3        1.0  0.13643000000000002  0.62517  0.004820000000000001  1.0000
  C   C4        1.0  0.18983  0.57174  0.05818  1.0000
  C   C5        1.0  0.62516  0.004819999999999985  0.13644000000000006  1.0000
  C   C6        1.0  0.5717300000000001  0.05817  0.18984  1.0000
  C   C7        1.0  0.1364299999999999  0.004820000000000006  0.62517  1.0000
  C   C8        1.0  0.18982999999999994  0.05817999999999991  0.5717300000000002  1.0000
  C   C9        1.0  0.62517  0.13644  0.004820000000000001  1.0000
  C   C10       1.0  0.57173  0.18984  0.05817  1.0000
  C   C11       1.0  0.0048200000000000204  0.62517  0.13643  1.0000
  C   C12       1.0  0.05818000000000004  0.57173  0.18984  1.0000
  C   C13       1.0  0.9856500000000001  0.70833  0.70832  1.0000
  C   C14       1.0  0.042949999999999974  0.6509499999999999  0.6509500000000003  1.0000
  C   C15       1.0  0.0041999999999999815  0.62374  0.62374  1.0000
  C   C16       1.0  0.057720000000000056  0.57034  0.57033  1.0000
  C   C17       1.0  0.13571999999999998  0.62426  0.62426  1.0000
  C   C18       1.0  0.1891800000000001  0.5709  0.57089  1.0000
  C   C19       1.0  0.15050000000000002  0.5436099999999999  0.54361  1.0000
  C   C20       1.0  0.20822999999999994  0.4862699999999999  0.4862700000000001  1.0000
  C   C21       1.0  0.7083199999999998  0.7083299999999999  0.9856500000000002  1.0000
  C   C22       1.0  0.6509500000000001  0.65095  0.04295  1.0000
  C   C23       1.0  0.6237399999999999  0.62375  0.00419  1.0000
  C   C24       1.0  0.5703300000000001  0.57034  0.057720000000000014  1.0000
  C   C25       1.0  0.62426  0.6242599999999999  0.13572000000000004  1.0000
  C   C26       1.0  0.5708899999999999  0.57089  0.1892  1.0000
  C   C27       1.0  0.5436  0.5436099999999999  0.15050000000000005  1.0000
  C   C28       1.0  0.4862600000000001  0.48626  0.20824  1.0000
  C   C29       1.0  0.70832  0.9856600000000001  0.70833  1.0000
  C   C30       1.0  0.65095  0.04294999999999995  0.6509500000000003  1.0000
  C   C31       1.0  0.62374  0.00419999999999998  0.62374  1.0000
  C   C32       1.0  0.5703300000000002  0.05772000000000002  0.57033  1.0000
  C   C33       1.0  0.62426  0.13572  0.62426  1.0000
  C   C34       1.0  0.5708899999999999  0.18919999999999998  0.57089  1.0000
  C   C35       1.0  0.5436  0.15050999999999998  0.54361  1.0000
  C   C36       1.0  0.4862600000000001  0.20825  0.48626  1.0000
  C   C37       1.0  0.9862599999999998  0.9862699999999999  0.7088300000000002  1.0000
  C   C38       1.0  0.04364999999999996  0.04364999999999993  0.6519200000000003  1.0000
  C   C39       1.0  0.15097000000000002  0.15098  0.54441  1.0000
  C   C40       1.0  0.2081999999999999  0.20820999999999998  0.4860000000000001  1.0000
  C   C41       1.0  0.9862599999999998  0.7088399999999999  0.98627  1.0000
  C   C42       1.0  0.043649999999999994  0.65192  0.04365  1.0000
  C   C43       1.0  0.15096999999999997  0.54441  0.15098  1.0000
  C   C44       1.0  0.20819999999999997  0.48599999999999993  0.20821000000000006  1.0000
  C   C45       1.0  0.7088200000000002  0.9862799999999999  0.98627  1.0000
  C   C46       1.0  0.65192  0.04365  0.04365  1.0000
  C   C47       1.0  0.54441  0.15097  0.15097  1.0000
  C   C48       1.0  0.48601000000000005  0.2082  0.2082  1.0000
  C   C49       1.0  0.8635600000000001  0.99518  0.3748300000000001  1.0000
  C   C50       1.0  0.81016  0.9418199999999999  0.4282600000000001  1.0000
  C   C51       1.0  0.37482999999999994  0.8635600000000001  0.99518  1.0000
  C   C52       1.0  0.42826000000000003  0.81016  0.94182  1.0000
  C   C53       1.0  0.9951699999999997  0.37484  0.8635600000000002  1.0000
  C   C54       1.0  0.94181  0.42826999999999993  0.8101600000000002  1.0000
  C   C55       1.0  0.99517  0.86357  0.3748300000000001  1.0000
  C   C56       1.0  0.94181  0.81016  0.42827  1.0000
  C   C57       1.0  0.8635600000000001  0.37483  0.99518  1.0000
  C   C58       1.0  0.8101600000000001  0.42826999999999993  0.94182  1.0000
  C   C59       1.0  0.37483  0.99519  0.8635600000000002  1.0000
  C   C60       1.0  0.42825999999999986  0.9418300000000001  0.8101600000000002  1.0000
  C   C61       1.0  0.29166999999999993  0.014350000000000007  0.29167  1.0000
  C   C62       1.0  0.34904  0.95705  0.34905000000000014  1.0000
  C   C63       1.0  0.3762499999999998  0.9958100000000001  0.37625  1.0000
  C   C64       1.0  0.4296599999999998  0.94228  0.4296600000000001  1.0000
  C   C65       1.0  0.3757400000000001  0.8642799999999999  0.37574000000000013  1.0000
  C   C66       1.0  0.42910999999999994  0.81081  0.4291100000000001  1.0000
  C   C67       1.0  0.45639000000000013  0.8495  0.45639  1.0000
  C   C68       1.0  0.5137299999999997  0.79176  0.5137400000000001  1.0000
  C   C69       1.0  0.29167  0.29167  0.01435  1.0000
  C   C70       1.0  0.34904  0.34905  0.95705  1.0000
  C   C71       1.0  0.3762499999999999  0.3762599999999999  0.9958000000000002  1.0000
  C   C72       1.0  0.42965999999999993  0.42966999999999994  0.9422800000000002  1.0000
  C   C73       1.0  0.37573  0.37573999999999996  0.86428  1.0000
  C   C74       1.0  0.4291000000000001  0.42910999999999994  0.8108000000000002  1.0000
  C   C75       1.0  0.45639  0.45639999999999986  0.8494900000000002  1.0000
  C   C76       1.0  0.5137300000000002  0.5137399999999999  0.79175  1.0000
  C   C77       1.0  0.014339999999999992  0.29168  0.29167  1.0000
  C   C78       1.0  0.95704  0.34905  0.34905000000000014  1.0000
  C   C79       1.0  0.9957900000000002  0.37625999999999993  0.37626  1.0000
  C   C80       1.0  0.94228  0.42966999999999994  0.4296600000000001  1.0000
  C   C81       1.0  0.8642799999999999  0.37574  0.37574000000000013  1.0000
  C   C82       1.0  0.81081  0.42911  0.4291000000000001  1.0000
  C   C83       1.0  0.84949  0.4563900000000001  0.45639  1.0000
  C   C84       1.0  0.7917600000000002  0.51373  0.51373  1.0000
  C   C85       1.0  0.013729999999999971  0.013729999999999954  0.2911700000000001  1.0000
  C   C86       1.0  0.95634  0.9563500000000001  0.34808  1.0000
  C   C87       1.0  0.8490199999999999  0.84903  0.45559  1.0000
  C   C88       1.0  0.7917900000000001  0.79179  0.514  1.0000
  C   C89       1.0  0.29117  0.013719999999999998  0.013720000000000003  1.0000
  C   C90       1.0  0.3480699999999999  0.9563499999999999  0.9563500000000003  1.0000
  C   C91       1.0  0.45558  0.84903  0.8490300000000002  1.0000
  C   C92       1.0  0.51398  0.7918000000000001  0.7918  1.0000
  C   C93       1.0  0.013729999999999982  0.29117  0.013730000000000003  1.0000
  C   C94       1.0  0.9563399999999997  0.34807999999999995  0.9563500000000003  1.0000
  C   C95       1.0  0.8490199999999998  0.45558999999999994  0.8490200000000002  1.0000
  C   C96       1.0  0.7917899999999998  0.514  0.7917900000000002  1.0000
  O   O1        1.0  0.1686699999999999  0.29226  0.4631200000000001  1.0000
  O   O2        1.0  0.9023500000000001  0.025959999999999938  0.7306600000000002  1.0000
  O   O3        1.0  0.29223999999999994  0.46312000000000003  0.16868  1.0000
  O   O4        1.0  0.02594999999999988  0.73066  0.9023400000000003  1.0000
  O   O5        1.0  0.46312  0.16867  0.29225  1.0000
  O   O6        1.0  0.7306499999999999  0.90235  0.02597  1.0000
  O   O7        1.0  0.29224000000000006  0.16867999999999997  0.4631200000000001  1.0000
  O   O8        1.0  0.025949999999999928  0.9023499999999999  0.7306600000000002  1.0000
  O   O9        1.0  0.46312  0.29225  0.16867000000000004  1.0000
  O   O10       1.0  0.73065  0.025969999999999906  0.9023500000000002  1.0000
  O   O11       1.0  0.16866999999999988  0.46312  0.29226000000000013  1.0000
  O   O12       1.0  0.9023500000000001  0.73066  0.02596  1.0000
  O   O13       1.0  0.16898  0.46371  0.4637000000000001  1.0000
  O   O14       1.0  0.29214  0.46463  0.4646300000000001  1.0000
  O   O15       1.0  0.9017800000000001  0.73028  0.73027  1.0000
  O   O16       1.0  0.025609999999999848  0.73049  0.7304900000000002  1.0000
  O   O17       1.0  0.46369999999999995  0.4637  0.16899000000000006  1.0000
  O   O18       1.0  0.46461  0.4646199999999999  0.29216  1.0000
  O   O19       1.0  0.73028  0.73028  0.90177  1.0000
  O   O20       1.0  0.7304899999999999  0.7305  0.02561  1.0000
  O   O21       1.0  0.4637  0.16898999999999995  0.4637000000000001  1.0000
  O   O22       1.0  0.4646099999999999  0.29216  0.46462  1.0000
  O   O23       1.0  0.7302799999999999  0.9017799999999999  0.7302800000000003  1.0000
  O   O24       1.0  0.7304899999999999  0.025609999999999935  0.7304900000000002  1.0000
  O   O25       1.0  0.34776999999999986  0.3477800000000001  0.3477800000000001  1.0000
  O   O26       1.0  0.8472800000000001  0.8472799999999999  0.8472800000000003  1.0000
  O   O27       1.0  0.7077499999999999  0.83132  0.5368800000000001  1.0000
  O   O28       1.0  0.9740399999999999  0.09765  0.26934  1.0000
  O   O29       1.0  0.5368699999999997  0.7077499999999999  0.8313300000000002  1.0000
  O   O30       1.0  0.26933999999999997  0.9740299999999998  0.09765000000000001  1.0000
  O   O31       1.0  0.83132  0.53689  0.70774  1.0000
  O   O32       1.0  0.09763999999999988  0.2693499999999999  0.9740400000000002  1.0000
  O   O33       1.0  0.8313199999999998  0.70775  0.5368800000000001  1.0000
  O   O34       1.0  0.09764  0.97404  0.26934  1.0000
  O   O35       1.0  0.7077499999999999  0.53689  0.83132  1.0000
  O   O36       1.0  0.9740399999999999  0.26934  0.09765000000000001  1.0000
  O   O37       1.0  0.53687  0.83134  0.70775  1.0000
  O   O38       1.0  0.26933999999999997  0.09764999999999993  0.9740300000000002  1.0000
  O   O39       1.0  0.5362999999999997  0.8310199999999999  0.5363000000000002  1.0000
  O   O40       1.0  0.5353800000000001  0.70784  0.53538  1.0000
  O   O41       1.0  0.26970999999999995  0.09822999999999996  0.2697200000000001  1.0000
  O   O42       1.0  0.26950000000000013  0.97439  0.2695  1.0000
  O   O43       1.0  0.5362999999999997  0.5363099999999998  0.8310100000000002  1.0000
  O   O44       1.0  0.53538  0.53538  0.70784  1.0000
  O   O45       1.0  0.26971  0.26972  0.09823000000000003  1.0000
  O   O46       1.0  0.2694999999999999  0.2695099999999999  0.9743900000000002  1.0000
  O   O47       1.0  0.83102  0.5363  0.53629  1.0000
  O   O48       1.0  0.7078500000000002  0.53538  0.53537  1.0000
  O   O49       1.0  0.09820999999999998  0.26972999999999997  0.2697200000000001  1.0000
  O   O50       1.0  0.97438  0.26950999999999997  0.26951000000000014  1.0000
  O   O51       1.0  0.6522200000000001  0.6522199999999999  0.6522200000000002  1.0000
  O   O52       1.0  0.15272  0.15272  0.15272  1.0000
