data_image0
_chemical_formula_structural       Zn12P16H56C24O48
_chemical_formula_sum              "Zn12 P16 H56 C24 O48"
_cell_length_a       4.87667
_cell_length_b       19.67951
_cell_length_c       28.7548
_cell_angle_alpha    90.0
_cell_angle_beta     90.0
_cell_angle_gamma    90.07779

_symmetry_space_group_name_H-M    'P 1'
_symmetry_Int_Tables_number       1

loop_
  _symmetry_equiv_pos_as_xyz
  'x,y,z'

loop_
  _atom_site_type_symbol
  _atom_site_label
  _atom_site_symmetry_multiplicity
  _atom_site_fract_x
  _atom_site_fract_y
  _atom_site_fract_z
  _atom_site_occupancy
  Zn  Zn1       1.0  0.77118  0.5409  0.9545300000000002  1.0000
  Zn  Zn2       1.0  0.77223  0.95897  0.54539  1.0000
  Zn  Zn3       1.0  0.22884  0.45910000000000006  0.45453  1.0000
  Zn  Zn4       1.0  0.22778  0.04103  0.04538000000000001  1.0000
  Zn  Zn5       1.0  0.22882999999999998  0.45910000000000006  0.04547000000000001  1.0000
  Zn  Zn6       1.0  0.22778  0.04103  0.45462  1.0000
  Zn  Zn7       1.0  0.77119  0.5409  0.54547  1.0000
  Zn  Zn8       1.0  0.77223  0.95897  0.95462  1.0000
  Zn  Zn9       1.0  0.40933  0.40223  0.24999000000000005  1.0000
  Zn  Zn10      1.0  0.40953999999999996  0.09926000000000001  0.25  1.0000
  Zn  Zn11      1.0  0.59068  0.59777  0.75  1.0000
  Zn  Zn12      1.0  0.59047  0.9007400000000001  0.75  1.0000
  P   P1        1.0  0.72859  0.39488  0.004230000000000001  1.0000
  P   P2        1.0  0.4213  0.39127  0.13742  1.0000
  P   P3        1.0  0.73136  0.10515000000000001  0.4962000000000001  1.0000
  P   P4        1.0  0.4210499999999999  0.10944  0.3627  1.0000
  P   P5        1.0  0.27142  0.60511  0.50423  1.0000
  P   P6        1.0  0.57871  0.6087300000000001  0.6374200000000002  1.0000
  P   P7        1.0  0.26866  0.8948500000000001  0.9962  1.0000
  P   P8        1.0  0.57896  0.89056  0.8627  1.0000
  P   P9        1.0  0.27142  0.60512  0.9957700000000002  1.0000
  P   P10       1.0  0.57871  0.6087100000000001  0.8625800000000002  1.0000
  P   P11       1.0  0.26866  0.8948500000000001  0.5038  1.0000
  P   P12       1.0  0.57896  0.89057  0.63731  1.0000
  P   P13       1.0  0.72859  0.39488  0.49577  1.0000
  P   P14       1.0  0.4213  0.39128  0.36258  1.0000
  P   P15       1.0  0.73136  0.10515000000000001  0.003800000000000001  1.0000
  P   P16       1.0  0.4210499999999999  0.10943000000000001  0.1373  1.0000
  H   H1        1.0  0.84169  0.31548  0.94622  1.0000
  H   H2        1.0  0.07489  0.30892  0.9928200000000003  1.0000
  H   H3        1.0  0.06546999999999999  0.30703  0.12307000000000003  1.0000
  H   H4        1.0  0.29808  0.31678  0.07606000000000003  1.0000
  H   H5        1.0  0.80082  0.39752  0.10009000000000003  1.0000
  H   H6        1.0  0.84098  0.18561  0.5543000000000001  1.0000
  H   H7        1.0  0.07512  0.19167  0.50777  1.0000
  H   H8        1.0  0.0648  0.19384  0.3766700000000001  1.0000
  H   H9        1.0  0.29643  0.18393000000000004  0.4237700000000001  1.0000
  H   H10       1.0  0.80016  0.10399  0.4002700000000001  1.0000
  H   H11       1.0  0.15832  0.68452  0.44622  1.0000
  H   H12       1.0  0.92513  0.6910700000000001  0.4928200000000001  1.0000
  H   H13       1.0  0.93455  0.69297  0.62308  1.0000
  H   H14       1.0  0.70193  0.68322  0.57606  1.0000
  H   H15       1.0  0.19918999999999998  0.6024800000000001  0.60009  1.0000
  H   H16       1.0  0.15903  0.81439  0.0543  1.0000
  H   H17       1.0  0.9248899999999999  0.80833  0.007770000000000001  1.0000
  H   H18       1.0  0.9352099999999999  0.8061600000000001  0.8766700000000002  1.0000
  H   H19       1.0  0.70359  0.8160700000000001  0.9237800000000003  1.0000
  H   H20       1.0  0.19985  0.89601  0.90027  1.0000
  H   H21       1.0  0.15833  0.68452  0.05379  1.0000
  H   H22       1.0  0.9251199999999999  0.69108  0.00718  1.0000
  H   H23       1.0  0.9345599999999998  0.6929600000000001  0.87692  1.0000
  H   H24       1.0  0.70193  0.68321  0.92393  1.0000
  H   H25       1.0  0.1992  0.6024800000000001  0.8999200000000003  1.0000
  H   H26       1.0  0.15903  0.8143800000000001  0.4457  1.0000
  H   H27       1.0  0.9248899999999999  0.80833  0.4922300000000001  1.0000
  H   H28       1.0  0.9352099999999999  0.80617  0.62334  1.0000
  H   H29       1.0  0.70359  0.8160700000000001  0.5762300000000001  1.0000
  H   H30       1.0  0.19985  0.89601  0.59974  1.0000
  H   H31       1.0  0.84168  0.31547  0.5537900000000001  1.0000
  H   H32       1.0  0.07489  0.30892  0.50719  1.0000
  H   H33       1.0  0.06545999999999999  0.30704  0.37692  1.0000
  H   H34       1.0  0.29809  0.31679  0.42393  1.0000
  H   H35       1.0  0.80082  0.39751  0.3999200000000001  1.0000
  H   H36       1.0  0.84098  0.18561  0.9457  1.0000
  H   H37       1.0  0.07512  0.19167  0.99223  1.0000
  H   H38       1.0  0.0648  0.19383000000000003  0.12333  1.0000
  H   H39       1.0  0.29641999999999996  0.18392  0.07623000000000002  1.0000
  H   H40       1.0  0.80016  0.10399  0.09974000000000002  1.0000
  H   H41       1.0  0.7000199999999999  0.24969  0.04045  1.0000
  H   H42       1.0  0.48327  0.25003  0.9909400000000003  1.0000
  H   H43       1.0  0.44621999999999995  0.25057  0.16987000000000005  1.0000
  H   H44       1.0  0.65761  0.2504  0.11990000000000003  1.0000
  H   H45       1.0  0.7000199999999999  0.24969  0.4595500000000001  1.0000
  H   H46       1.0  0.48327  0.25003  0.50907  1.0000
  H   H47       1.0  0.44623  0.25057  0.3301300000000001  1.0000
  H   H48       1.0  0.6576  0.25041  0.3801000000000001  1.0000
  H   H49       1.0  0.3  0.7503100000000001  0.54045  1.0000
  H   H50       1.0  0.51674  0.74997  0.49094  1.0000
  H   H51       1.0  0.5538  0.74942  0.6698700000000002  1.0000
  H   H52       1.0  0.34241  0.7496  0.6199  1.0000
  H   H53       1.0  0.3  0.7503100000000001  0.95956  1.0000
  H   H54       1.0  0.51675  0.74997  0.009070000000000002  1.0000
  H   H55       1.0  0.55379  0.74943  0.8301300000000003  1.0000
  H   H56       1.0  0.34241  0.74959  0.8801  1.0000
  C   C1        1.0  0.85331  0.31281  0.9843800000000001  1.0000
  C   C2        1.0  0.28523  0.31256  0.11415  1.0000
  C   C3        1.0  0.8532699999999999  0.18762  0.51612  1.0000
  C   C4        1.0  0.28435  0.18825000000000003  0.38567  1.0000
  C   C5        1.0  0.14671  0.68719  0.48438  1.0000
  C   C6        1.0  0.71478  0.68744  0.61415  1.0000
  C   C7        1.0  0.14675000000000002  0.81238  0.01611  1.0000
  C   C8        1.0  0.7156699999999999  0.81175  0.88567  1.0000
  C   C9        1.0  0.14671  0.68719  0.015620000000000004  1.0000
  C   C10       1.0  0.71479  0.68743  0.88584  1.0000
  C   C11       1.0  0.14675000000000002  0.81238  0.48389  1.0000
  C   C12       1.0  0.7156699999999999  0.81175  0.61433  1.0000
  C   C13       1.0  0.85331  0.3128  0.51562  1.0000
  C   C14       1.0  0.28523  0.31257  0.3858400000000001  1.0000
  C   C15       1.0  0.8532699999999999  0.18762  0.98389  1.0000
  C   C16       1.0  0.2843399999999999  0.18824  0.11433  1.0000
  C   C17       1.0  0.7029199999999999  0.25001  0.0022500000000000003  1.0000
  C   C18       1.0  0.4392  0.25044  0.13164  1.0000
  C   C19       1.0  0.70291  0.25001  0.49775  1.0000
  C   C20       1.0  0.4392  0.25045  0.36835  1.0000
  C   C21       1.0  0.2971  0.74999  0.50225  1.0000
  C   C22       1.0  0.56082  0.74956  0.63165  1.0000
  C   C23       1.0  0.2971  0.74999  0.9977600000000002  1.0000
  C   C24       1.0  0.56082  0.74955  0.86835  1.0000
  O   O1        1.0  0.68121  0.54521  0.88631  1.0000
  O   O2        1.0  0.58431  0.61259  0.99055  1.0000
  O   O3        1.0  0.1408  0.58509  0.9473000000000003  1.0000
  O   O4        1.0  0.8212099999999999  0.44655  0.9675700000000003  1.0000
  O   O5        1.0  0.34433  0.38748  0.19043  1.0000
  O   O6        1.0  0.74176  0.38377  0.13453  1.0000
  O   O7        1.0  0.68134  0.95394  0.61345  1.0000
  O   O8        1.0  0.5819999999999999  0.8886500000000002  0.5089500000000001  1.0000
  O   O9        1.0  0.13954  0.9136899999999999  0.55261  1.0000
  O   O10       1.0  0.83139  0.05358  0.53241  1.0000
  O   O11       1.0  0.34457  0.11137  0.3096800000000001  1.0000
  O   O12       1.0  0.74115  0.1177  0.3657200000000001  1.0000
  O   O13       1.0  0.3188  0.45479  0.3863100000000001  1.0000
  O   O14       1.0  0.4157  0.38741  0.49054  1.0000
  O   O15       1.0  0.85921  0.41491  0.4473000000000001  1.0000
  O   O16       1.0  0.17881  0.55345  0.46757  1.0000
  O   O17       1.0  0.65569  0.61252  0.69043  1.0000
  O   O18       1.0  0.25825  0.61623  0.6345300000000003  1.0000
  O   O19       1.0  0.31867  0.04605  0.11345  1.0000
  O   O20       1.0  0.41801999999999995  0.11135  0.00895  1.0000
  O   O21       1.0  0.86048  0.08631  0.05261000000000001  1.0000
  O   O22       1.0  0.16863  0.9464099999999999  0.03241  1.0000
  O   O23       1.0  0.65544  0.88863  0.8096800000000002  1.0000
  O   O24       1.0  0.25886999999999993  0.8823000000000001  0.86572  1.0000
  O   O25       1.0  0.31879  0.45478  0.1137  1.0000
  O   O26       1.0  0.4157  0.38741  0.00946  1.0000
  O   O27       1.0  0.8591999999999999  0.41492000000000007  0.05270000000000001  1.0000
  O   O28       1.0  0.17882  0.55345  0.03243  1.0000
  O   O29       1.0  0.65569  0.6124800000000001  0.80957  1.0000
  O   O30       1.0  0.25826  0.61623  0.8654700000000002  1.0000
  O   O31       1.0  0.31867  0.04606  0.38655  1.0000
  O   O32       1.0  0.41801999999999995  0.11134  0.4910600000000001  1.0000
  O   O33       1.0  0.86048  0.0863  0.4473900000000001  1.0000
  O   O34       1.0  0.16864  0.9464099999999999  0.46759  1.0000
  O   O35       1.0  0.65545  0.88863  0.69033  1.0000
  O   O36       1.0  0.25886999999999993  0.8823000000000001  0.63428  1.0000
  O   O37       1.0  0.68122  0.54522  0.6137  1.0000
  O   O38       1.0  0.58431  0.61258  0.50946  1.0000
  O   O39       1.0  0.14082  0.58508  0.55271  1.0000
  O   O40       1.0  0.8211999999999999  0.44655  0.53243  1.0000
  O   O41       1.0  0.34432  0.38752  0.30957  1.0000
  O   O42       1.0  0.74176  0.38377  0.3654700000000001  1.0000
  O   O43       1.0  0.68135  0.95394  0.88655  1.0000
  O   O44       1.0  0.58199  0.8886500000000002  0.99106  1.0000
  O   O45       1.0  0.13952999999999996  0.9136899999999999  0.9473900000000002  1.0000
  O   O46       1.0  0.83138  0.05358  0.9676000000000002  1.0000
  O   O47       1.0  0.34457  0.11136  0.19032000000000004  1.0000
  O   O48       1.0  0.74115  0.11769000000000002  0.13428000000000004  1.0000
