data_image0
_chemical_formula_structural       Mn4H64C76O16
_chemical_formula_sum              "Mn4 H64 C76 O16"
_cell_length_a       11.50843
_cell_length_b       14.76107
_cell_length_c       14.784479999999999
_cell_angle_alpha    119.41698
_cell_angle_beta     112.03324000000002
_cell_angle_gamma    91.39601000000002

_symmetry_space_group_name_H-M    'P 1'
_symmetry_Int_Tables_number       1

loop_
  _symmetry_equiv_pos_as_xyz
  'x,y,z'

loop_
  _atom_site_type_symbol
  _atom_site_label
  _atom_site_symmetry_multiplicity
  _atom_site_fract_x
  _atom_site_fract_y
  _atom_site_fract_z
  _atom_site_occupancy
  Mn  Mn1       1.0  0.33092  0.029169999999999998  0.10813  1.0000
  Mn  Mn2       1.0  0.72472  0.9198  0.89206  1.0000
  Mn  Mn3       1.0  0.030460000000000032  0.027030000000000068  0.9991000000000001  1.0000
  Mn  Mn4       1.0  0.53081  0.025810000000000007  0.00096  1.0000
  H   H1        1.0  0.34941  0.026249999999999985  0.40291  1.0000
  H   H2        1.0  0.002020000000000012  0.12661  0.30334  1.0000
  H   H3        1.0  0.97938  0.15756000000000003  0.47759000000000007  1.0000
  H   H4        1.0  0.0024800000000000212  0.17974000000000007  0.66954  1.0000
  H   H5        1.0  0.05101  0.1678800000000001  0.84217  1.0000
  H   H6        1.0  0.38095000000000007  0.04685000000000002  0.81477  1.0000
  H   H7        1.0  0.42474999999999996  0.9375000000000002  0.64338  1.0000
  H   H8        1.0  0.44388  0.9425600000000004  0.53384  1.0000
  H   H9        1.0  0.21392  0.8486100000000002  0.39496  1.0000
  H   H10       1.0  0.28036  0.7735100000000003  0.45665  1.0000
  H   H11       1.0  0.1792  0.8534900000000003  0.5045  1.0000
  H   H12       1.0  0.53004  0.12498000000000001  0.63163  1.0000
  H   H13       1.0  0.54428  0.12566  0.7545  1.0000
  H   H14       1.0  0.44039  0.28186  0.80987  1.0000
  H   H15       1.0  0.5788000000000001  0.3136000000000001  0.79443  1.0000
  H   H16       1.0  0.42101  0.27872  0.6836  1.0000
  H   H17       1.0  0.54977  0.3768  0.40628  1.0000
  H   H18       1.0  0.79186  0.17445  0.29487  1.0000
  H   H19       1.0  0.99108  0.3186100000000001  0.46286  1.0000
  H   H20       1.0  0.16252  0.48583  0.65558  1.0000
  H   H21       1.0  0.28951000000000016  0.66824  0.83382  1.0000
  H   H22       1.0  0.93674  0.7655700000000002  0.81754  1.0000
  H   H23       1.0  0.72278  0.7080700000000002  0.64446  1.0000
  H   H24       1.0  0.59096  0.59586  0.53603  1.0000
  H   H25       1.0  0.67812  0.5488600000000002  0.39338  1.0000
  H   H26       1.0  0.67725  0.6867800000000002  0.45814  1.0000
  H   H27       1.0  0.82427  0.6510300000000002  0.50166  1.0000
  H   H28       1.0  0.60237  0.5071300000000002  0.63095  1.0000
  H   H29       1.0  0.7115500000000001  0.62914  0.75395  1.0000
  H   H30       1.0  0.87035  0.52822  0.80733  1.0000
  H   H31       1.0  0.7168699999999999  0.47950000000000004  0.7912999999999999  1.0000
  H   H32       1.0  0.76483  0.40502  0.68029  1.0000
  H   H33       1.0  0.64434  0.97223  0.59501  1.0000
  H   H34       1.0  0.99644  0.87948  0.70398  1.0000
  H   H35       1.0  0.026809999999999973  0.8548400000000003  0.53481  1.0000
  H   H36       1.0  0.005769999999999983  0.82964  0.34278  1.0000
  H   H37       1.0  0.9533300000000001  0.8322600000000002  0.16334  1.0000
  H   H38       1.0  0.61738  0.9460000000000001  0.18136  1.0000
  H   H39       1.0  0.57672  0.06407  0.35759  1.0000
  H   H40       1.0  0.55588  0.059960000000000006  0.467  1.0000
  H   H41       1.0  0.7846400000000001  0.15609  0.60763  1.0000
  H   H42       1.0  0.71959  0.22901999999999997  0.54267  1.0000
  H   H43       1.0  0.82209  0.14849000000000012  0.49838  1.0000
  H   H44       1.0  0.47246  0.8773700000000002  0.37219  1.0000
  H   H45       1.0  0.4566700000000001  0.87536  0.24838000000000002  1.0000
  H   H46       1.0  0.56359  0.7210800000000002  0.19507  1.0000
  H   H47       1.0  0.42518  0.6883600000000002  0.2101  1.0000
  H   H48       1.0  0.58313  0.72486  0.32175  1.0000
  H   H49       1.0  0.44641  0.62081  0.5945  1.0000
  H   H50       1.0  0.20173000000000002  0.8237600000000003  0.6985  1.0000
  H   H51       1.0  0.0045400000000000145  0.68183  0.52459  1.0000
  H   H52       1.0  0.8336800000000001  0.5112100000000003  0.3321  1.0000
  H   H53       1.0  0.70938  0.32653  0.15947  1.0000
  H   H54       1.0  0.06546  0.23104000000000005  0.18531  1.0000
  H   H55       1.0  0.28107  0.29284000000000004  0.35574999999999996  1.0000
  H   H56       1.0  0.40913  0.40788000000000013  0.46449  1.0000
  H   H57       1.0  0.32005  0.45379000000000014  0.60483  1.0000
  H   H58       1.0  0.32466  0.31679  0.54312  1.0000
  H   H59       1.0  0.17598  0.3491200000000001  0.49678  1.0000
  H   H60       1.0  0.3972  0.49276000000000003  0.36738  1.0000
  H   H61       1.0  0.28967  0.36978  0.24441  1.0000
  H   H62       1.0  0.13023000000000004  0.4702300000000001  0.18860000000000002  1.0000
  H   H63       1.0  0.28416  0.5180200000000003  0.20489  1.0000
  H   H64       1.0  0.23577  0.5936500000000002  0.31523  1.0000
  C   C1        1.0  0.19051  0.05629000000000002  0.24100000000000002  1.0000
  C   C2        1.0  0.177  0.07536000000000002  0.34469  1.0000
  C   C3        1.0  0.27096000000000003  0.05583000000000003  0.42251000000000005  1.0000
  C   C4        1.0  0.26028  0.07373  0.51996  1.0000
  C   C5        1.0  0.07280000000000005  0.11255  0.36535  1.0000
  C   C6        1.0  0.061239999999999975  0.13044000000000006  0.46292  1.0000
  C   C7        1.0  0.15486999999999998  0.11082  0.53998  1.0000
  C   C8        1.0  0.16437  0.11828999999999999  0.64487  1.0000
  C   C9        1.0  0.08519000000000007  0.15139000000000005  0.70141  1.0000
  C   C10       1.0  0.11204000000000006  0.14494  0.7976800000000001  1.0000
  C   C11       1.0  0.23622  0.09327000000000008  0.9359800000000001  1.0000
  C   C12       1.0  0.21772  0.10656000000000004  0.8386599999999999  1.0000
  C   C13       1.0  0.2999300000000001  0.07700000000000011  0.7837000000000001  1.0000
  C   C14       1.0  0.27334  0.08289000000000005  0.68728  1.0000
  C   C15       1.0  0.34877  0.05862000000000006  0.61556  1.0000
  C   C16       1.0  0.37410999999999983  0.9451200000000004  0.56894  1.0000
  C   C17       1.0  0.25504  0.8501  0.47586  1.0000
  C   C18       1.0  0.48383  0.14236999999999994  0.68942  1.0000
  C   C19       1.0  0.48052999999999996  0.26060999999999995  0.7475299999999999  1.0000
  C   C20       1.0  0.54216  0.18470000000000006  0.24572  1.0000
  C   C21       1.0  0.66114  0.26896  0.34242  1.0000
  C   C22       1.0  0.64735  0.36714000000000013  0.42185  1.0000
  C   C23       1.0  0.7569  0.44649  0.51608  1.0000
  C   C24       1.0  0.7847000000000001  0.25137  0.35763  1.0000
  C   C25       1.0  0.89539  0.3313000000000001  0.45209  1.0000
  C   C26       1.0  0.8812400000000001  0.42848000000000014  0.53146  1.0000
  C   C27       1.0  0.97809  0.52491  0.63621  1.0000
  C   C28       1.0  0.11346  0.5465400000000001  0.6908  1.0000
  C   C29       1.0  0.18414000000000008  0.6477300000000003  0.79003  1.0000
  C   C30       1.0  0.19651999999999997  0.8357600000000002  0.93587  1.0000
  C   C31       1.0  0.12019999999999997  0.7266500000000002  0.83439  1.0000
  C   C32       1.0  0.9837000000000001  0.7036100000000001  0.78089  1.0000
  C   C33       1.0  0.91305  0.6028100000000001  0.68239  1.0000
  C   C34       1.0  0.76626  0.5571700000000003  0.61319  1.0000
  C   C35       1.0  0.6957200000000001  0.62587  0.5689  1.0000
  C   C36       1.0  0.7202  0.6278400000000001  0.47512  1.0000
  C   C37       1.0  0.70632  0.54735  0.68787  1.0000
  C   C38       1.0  0.7682900000000001  0.48671000000000003  0.74484  1.0000
  C   C39       1.0  0.7967800000000002  0.9397900000000001  0.7547600000000001  1.0000
  C   C40       1.0  0.81915  0.92749  0.65804  1.0000
  C   C41       1.0  0.72607  0.9463600000000004  0.5791  1.0000
  C   C42       1.0  0.7409  0.9309200000000002  0.48440000000000005  1.0000
  C   C43       1.0  0.92691  0.89402  0.64174  1.0000
  C   C44       1.0  0.94265  0.87908  0.54681  1.0000
  C   C45       1.0  0.84931  0.8970900000000003  0.46803000000000006  1.0000
  C   C46       1.0  0.84089  0.8883200000000001  0.36291000000000007  1.0000
  C   C47       1.0  0.92146  0.8549700000000002  0.30779  1.0000
  C   C48       1.0  0.89259  0.85619  0.20820999999999998  1.0000
  C   C49       1.0  0.7591800000000001  0.8978200000000002  0.06296  1.0000
  C   C50       1.0  0.78415  0.8905500000000002  0.16441  1.0000
  C   C51       1.0  0.70119  0.9212300000000001  0.21821  1.0000
  C   C52       1.0  0.7295500000000001  0.9199100000000002  0.31726  1.0000
  C   C53       1.0  0.65273  0.94412  0.38753  1.0000
  C   C54       1.0  0.6265  0.057310000000000035  0.43273  1.0000
  C   C55       1.0  0.745  0.15288  0.52576  1.0000
  C   C56       1.0  0.5183100000000002  0.8598500000000002  0.31413  1.0000
  C   C57       1.0  0.52307  0.7419900000000003  0.25709  1.0000
  C   C58       1.0  0.4510299999999999  0.8147500000000001  0.7584899999999999  1.0000
  C   C59       1.0  0.33407  0.72996  0.65524  1.0000
  C   C60       1.0  0.34913000000000005  0.6321  0.57649  1.0000
  C   C61       1.0  0.24044000000000001  0.55304  0.47963  1.0000
  C   C62       1.0  0.20989999999999995  0.7474700000000002  0.6357  1.0000
  C   C63       1.0  0.10038999999999997  0.6683600000000002  0.53849  1.0000
  C   C64       1.0  0.11568  0.57097  0.46067  1.0000
  C   C65       1.0  0.019790000000000023  0.47371000000000013  0.35585000000000006  1.0000
  C   C66       1.0  0.88432  0.45071000000000006  0.29974  1.0000
  C   C67       1.0  0.81473  0.34782  0.20349  1.0000
  C   C68       1.0  0.7998400000000001  0.15696000000000002  0.06528  1.0000
  C   C69       1.0  0.8789600000000001  0.2678200000000001  0.16216  1.0000
  C   C70       1.0  0.01582999999999999  0.2927800000000001  0.21649  1.0000
  C   C71       1.0  0.08577  0.39522  0.31279  1.0000
  C   C72       1.0  0.23262  0.4420500000000001  0.38366  1.0000
  C   C73       1.0  0.30462000000000006  0.37522000000000005  0.42999999999999994  1.0000
  C   C74       1.0  0.27994  0.37408000000000013  0.52404  1.0000
  C   C75       1.0  0.29362  0.4516700000000001  0.30943  1.0000
  C   C76       1.0  0.23224  0.5116000000000003  0.25136  1.0000
  O   O1        1.0  0.28777  0.02272  0.22796  1.0000
  O   O2        1.0  0.10573000000000002  0.07616000000000002  0.17141  1.0000
  O   O3        1.0  0.3357200000000001  0.06307999999999998  0.97881  1.0000
  O   O4        1.0  0.1509  0.11077999999999998  0.97479  1.0000
  O   O5        1.0  0.43155  0.19923000000000005  0.23762  1.0000
  O   O6        1.0  0.55146  0.09160000000000003  0.17091  1.0000
  O   O7        1.0  0.13565999999999995  0.9095300000000002  0.96971  1.0000
  O   O8        1.0  0.3197600000000001  0.85998  0.9899900000000001  1.0000
  O   O9        1.0  0.6935699999999999  0.9607999999999999  0.7622099999999999  1.0000
  O   O10       1.0  0.8814000000000001  0.9224500000000002  0.8299600000000001  1.0000
  O   O11       1.0  0.66433  0.9372000000000003  0.02879  1.0000
  O   O12       1.0  0.82897  0.8681700000000002  0.00919  1.0000
  O   O13       1.0  0.5613299999999999  0.7946999999999999  0.7708899999999999  1.0000
  O   O14       1.0  0.43503  0.9041500000000001  0.82814  1.0000
  O   O15       1.0  0.85611  0.08388  0.02091  1.0000
  O   O16       1.0  0.67626  0.13569  0.028410000000000005  1.0000
