data_image0
_chemical_formula_structural       Mn12H52C88S12N4O52
_chemical_formula_sum              "Mn12 H52 C88 S12 N4 O52"
_cell_length_a       10.70979
_cell_length_b       16.476519999999997
_cell_length_c       22.17296
_cell_angle_alpha    93.9538
_cell_angle_beta     90.0
_cell_angle_gamma    89.99490000000002

_space_group_name_H-M_alt    "P 1"
_space_group_IT_number       1

loop_
  _space_group_symop_operation_xyz
  'x, y, z'

loop_
  _atom_site_type_symbol
  _atom_site_label
  _atom_site_symmetry_multiplicity
  _atom_site_fract_x
  _atom_site_fract_y
  _atom_site_fract_z
  _atom_site_occupancy
  Mn  Mn1       1.0  0.66543  0.73571  0.13529  1.0000
  Mn  Mn2       1.0  0.72735  0.75858  0.96176  1.0000
  Mn  Mn3       1.0  0.91376  0.77992  0.81475  1.0000
  Mn  Mn4       1.0  0.16527  0.26435  0.36473  1.0000
  Mn  Mn5       1.0  0.22727999999999998  0.24138  0.53826  1.0000
  Mn  Mn6       1.0  0.414  0.22007  0.6853  1.0000
  Mn  Mn7       1.0  0.33456  0.2643  0.8647100000000001  1.0000
  Mn  Mn8       1.0  0.27264  0.24142  0.03824  1.0000
  Mn  Mn9       1.0  0.08623  0.22008  0.18525  1.0000
  Mn  Mn10      1.0  0.8347299999999999  0.73565  0.63526  1.0000
  Mn  Mn11      1.0  0.7727099999999999  0.75863  0.46173  1.0000
  Mn  Mn12      1.0  0.58599  0.77993  0.31469  1.0000
  H   H1        1.0  0.7540499999999999  0.54627  0.14132  1.0000
  H   H2        1.0  0.90886  0.56099  0.11733  1.0000
  H   H3        1.0  0.6963799999999999  0.42775  0.98874  1.0000
  H   H4        1.0  0.85318  0.45043  0.9712600000000001  1.0000
  H   H5        1.0  0.7477799999999999  0.41437  0.09076000000000001  1.0000
  H   H6        1.0  0.9064699999999999  0.42375  0.07183  1.0000
  H   H7        1.0  0.71357  0.57969  0.9658900000000001  1.0000
  H   H8        1.0  0.78623  0.56234  0.7431899999999999  1.0000
  H   H9        1.0  0.38057  0.0752  0.91282  1.0000
  H   H10       1.0  0.04148  0.73953  0.06989  1.0000
  H   H11       1.0  0.67749  0.42052  0.70785  1.0000
  H   H12       1.0  0.52685  0.96182  0.95545  1.0000
  H   H13       1.0  0.27198  0.74684  0.11663  1.0000
  H   H14       1.0  0.25392  0.45374  0.35865  1.0000
  H   H15       1.0  0.40876  0.439  0.3826  1.0000
  H   H16       1.0  0.19627999999999998  0.57227  0.51119  1.0000
  H   H17       1.0  0.35311  0.54968  0.52866  1.0000
  H   H18       1.0  0.24769999999999998  0.58568  0.40918000000000004  1.0000
  H   H19       1.0  0.40640999999999994  0.57624  0.42809  1.0000
  H   H20       1.0  0.21363  0.42035  0.53408  1.0000
  H   H21       1.0  0.28615  0.43759  0.75687  1.0000
  H   H22       1.0  0.88059  0.92471  0.58719  1.0000
  H   H23       1.0  0.54139  0.26022  0.43015  1.0000
  H   H24       1.0  0.17742  0.57941  0.79227  1.0000
  H   H25       1.0  0.02688  0.03816  0.54459  1.0000
  H   H26       1.0  0.7717699999999998  0.25317  0.38336  1.0000
  H   H27       1.0  0.24594  0.45373  0.85868  1.0000
  H   H28       1.0  0.09113  0.43901  0.8826700000000001  1.0000
  H   H29       1.0  0.30362  0.57225  0.01125  1.0000
  H   H30       1.0  0.14682  0.54957  0.02873  1.0000
  H   H31       1.0  0.25221  0.5856300000000002  0.90924  1.0000
  H   H32       1.0  0.09352999999999999  0.57625  0.9281700000000002  1.0000
  H   H33       1.0  0.28642  0.42032  0.0341  1.0000
  H   H34       1.0  0.21377  0.43767  0.25681  1.0000
  H   H35       1.0  0.61942  0.92481  0.08718  1.0000
  H   H36       1.0  0.95852  0.26048  0.9301  1.0000
  H   H37       1.0  0.3225  0.5794800000000001  0.29215  1.0000
  H   H38       1.0  0.47314  0.03819  0.04455  1.0000
  H   H39       1.0  0.72802  0.25317  0.88336  1.0000
  H   H40       1.0  0.74607  0.54626  0.64135  1.0000
  H   H41       1.0  0.59123  0.561  0.6174  1.0000
  H   H42       1.0  0.80372  0.42773  0.48881  1.0000
  H   H43       1.0  0.64689  0.45032999999999995  0.47132999999999997  1.0000
  H   H44       1.0  0.75229  0.41433  0.59081  1.0000
  H   H45       1.0  0.59358  0.42377  0.57191  1.0000
  H   H46       1.0  0.7863599999999998  0.57965  0.46592  1.0000
  H   H47       1.0  0.71384  0.56242  0.24313000000000004  1.0000
  H   H48       1.0  0.11939999999999999  0.0753  0.4128  1.0000
  H   H49       1.0  0.45861  0.73978  0.56985  1.0000
  H   H50       1.0  0.82257  0.4206  0.20773  1.0000
  H   H51       1.0  0.9731199999999999  0.96184  0.45541  1.0000
  H   H52       1.0  0.22823  0.7468300000000001  0.61663  1.0000
  C   C1        1.0  0.81614  0.53984  0.10191999999999998  1.0000
  C   C2        1.0  0.77709  0.46511  0.00334  1.0000
  C   C3        1.0  0.8153699999999999  0.45363  0.06982  1.0000
  C   C4        1.0  0.7683  0.59462  0.055450000000000006  1.0000
  C   C5        1.0  0.7151  0.53167  0.76798  1.0000
  C   C6        1.0  0.4591199999999999  0.04666  0.88876  1.0000
  C   C7        1.0  0.1272  0.74746  0.04483  1.0000
  C   C8        1.0  0.67016  0.5641399999999999  0.8232099999999999  1.0000
  C   C9        1.0  0.65733  0.45749999999999996  0.74916  1.0000
  C   C10       1.0  0.53685  0.98714  0.91177  1.0000
  C   C11       1.0  0.71011  0.6405  0.85569  1.0000
  C   C12       1.0  0.62967  0.96097  0.87104  1.0000
  C   C13       1.0  0.24827  0.75129  0.06935  1.0000
  C   C14       1.0  0.01511  0.75265  0.94357  1.0000
  C   C15       1.0  0.48510999999999993  0.36307  0.7828599999999999  1.0000
  C   C16       1.0  0.56711  0.43471  0.78967  1.0000
  C   C17       1.0  0.33899  0.76197  0.02562  1.0000
  C   C18       1.0  0.44091  0.1254  0.7920699999999999  1.0000
  C   C19       1.0  0.7233  0.89684  0.87774  1.0000
  C   C20       1.0  0.1265  0.7555399999999999  0.9828099999999999  1.0000
  C   C21       1.0  0.47429999999999994  0.76482  0.03686  1.0000
  C   C22       1.0  0.49430999999999997  0.06559999999999999  0.8308999999999999  1.0000
  C   C23       1.0  0.31605  0.46017  0.39802  1.0000
  C   C24       1.0  0.27704  0.5349299999999999  0.4966  1.0000
  C   C25       1.0  0.31529  0.5464  0.43011  1.0000
  C   C26       1.0  0.26831  0.40539  0.44451  1.0000
  C   C27       1.0  0.21513  0.46832  0.73204  1.0000
  C   C28       1.0  0.95913  0.95327  0.61125  1.0000
  C   C29       1.0  0.62708  0.25231  0.45521000000000006  1.0000
  C   C30       1.0  0.17028  0.43595  0.67676  1.0000
  C   C31       1.0  0.15735  0.5425  0.75091  1.0000
  C   C32       1.0  0.03688  0.012790000000000001  0.58824  1.0000
  C   C33       1.0  0.21031999999999998  0.35957  0.64426  1.0000
  C   C34       1.0  0.12967  0.03897  0.62897  1.0000
  C   C35       1.0  0.74811  0.24869000000000002  0.43065  1.0000
  C   C36       1.0  0.51507  0.24694  0.55643  1.0000
  C   C37       1.0  0.98496  0.63692  0.71728  1.0000
  C   C38       1.0  0.06715  0.56538  0.71042  1.0000
  C   C39       1.0  0.8388999999999999  0.23807  0.47436000000000006  1.0000
  C   C40       1.0  0.9408899999999999  0.87459  0.70793  1.0000
  C   C41       1.0  0.22316  0.10316  0.6223  1.0000
  C   C42       1.0  0.62645  0.24416  0.51721  1.0000
  C   C43       1.0  0.9742299999999999  0.2352  0.46316  1.0000
  C   C44       1.0  0.9943299999999999  0.93437  0.66911  1.0000
  C   C45       1.0  0.18386  0.46015999999999996  0.89807  1.0000
  C   C46       1.0  0.22289999999999996  0.53489  0.9966599999999999  1.0000
  C   C47       1.0  0.18462  0.54638  0.9301800000000001  1.0000
  C   C48       1.0  0.23168999999999998  0.40539  0.94454  1.0000
  C   C49       1.0  0.28489  0.46833  0.23202  1.0000
  C   C50       1.0  0.54087  0.95334  0.11124  1.0000
  C   C51       1.0  0.87279  0.25254  0.95517  1.0000
  C   C52       1.0  0.32983  0.43586  0.17679  1.0000
  C   C53       1.0  0.34267  0.54251  0.25084  1.0000
  C   C54       1.0  0.46314  0.01286  0.08822  1.0000
  C   C55       1.0  0.28989  0.35951  0.1443  1.0000
  C   C56       1.0  0.37032  0.03904  0.12896  1.0000
  C   C57       1.0  0.75173  0.24870999999999996  0.93065  1.0000
  C   C58       1.0  0.98488  0.24735  0.05643  1.0000
  C   C59       1.0  0.51489  0.63694  0.21713999999999997  1.0000
  C   C60       1.0  0.43289  0.5653  0.21033000000000002  1.0000
  C   C61       1.0  0.661  0.23803  0.97437  1.0000
  C   C62       1.0  0.55908  0.8746  0.20793  1.0000
  C   C63       1.0  0.27669  0.10316  0.12226  1.0000
  C   C64       1.0  0.8734899999999999  0.24446000000000004  0.01719  1.0000
  C   C65       1.0  0.52569  0.23518  0.96314  1.0000
  C   C66       1.0  0.50569  0.9344  0.1691  1.0000
  C   C67       1.0  0.68394  0.53983  0.60197  1.0000
  C   C68       1.0  0.72296  0.46507  0.5034  1.0000
  C   C69       1.0  0.6847  0.4536  0.56989  1.0000
  C   C70       1.0  0.73168  0.59461  0.55548  1.0000
  C   C71       1.0  0.78486  0.53168  0.26796  1.0000
  C   C72       1.0  0.04086  0.04673  0.38875  1.0000
  C   C73       1.0  0.37291  0.74769  0.54479  1.0000
  C   C74       1.0  0.82971  0.56405  0.32324  1.0000
  C   C75       1.0  0.84264  0.45751  0.24909  1.0000
  C   C76       1.0  0.96311  0.98722  0.41175999999999996  1.0000
  C   C77       1.0  0.78968  0.64044  0.35573  1.0000
  C   C78       1.0  0.87033  0.96103  0.37102  1.0000
  C   C79       1.0  0.25188  0.75131  0.56934  1.0000
  C   C80       1.0  0.48493  0.7530700000000001  0.44356  1.0000
  C   C81       1.0  0.01503  0.36308  0.28272  1.0000
  C   C82       1.0  0.9328399999999999  0.43462  0.28957  1.0000
  C   C83       1.0  0.16108999999999998  0.76193  0.52564  1.0000
  C   C84       1.0  0.05909999999999999  0.12542  0.29207  1.0000
  C   C85       1.0  0.77683  0.89685  0.37769  1.0000
  C   C86       1.0  0.37355  0.75585  0.48278  1.0000
  C   C87       1.0  0.02576  0.76481  0.53684  1.0000
  C   C88       1.0  0.00566  0.06563  0.33089  1.0000
  S   S1        1.0  0.55496  0.50382  0.85173  1.0000
  S   S2        1.0  0.62186  0.009419999999999996  0.80467  1.0000
  S   S3        1.0  0.27507  0.76891  0.95458  1.0000
  S   S4        1.0  0.05509  0.49640000000000006  0.64829  1.0000
  S   S5        1.0  0.12188999999999998  0.9905500000000002  0.69534  1.0000
  S   S6        1.0  0.7750499999999999  0.23096  0.54539  1.0000
  S   S7        1.0  0.4450299999999999  0.49618000000000007  0.14827  1.0000
  S   S8        1.0  0.37813  0.9905799999999999  0.19531999999999997  1.0000
  S   S9        1.0  0.72492  0.2311  0.04541  1.0000
  S   S10       1.0  0.9449  0.5036  0.3517  1.0000
  S   S11       1.0  0.8781  0.00946  0.30465  1.0000
  S   S12       1.0  0.22493999999999997  0.76905  0.45460999999999996  1.0000
  N   N1        1.0  0.74571  0.55177  0.0034800000000000005  1.0000
  N   N2        1.0  0.2458  0.44825  0.49649  1.0000
  N   N3        1.0  0.25428  0.44824  0.99651  1.0000
  N   N4        1.0  0.75419  0.55175  0.50351  1.0000
  O   O1        1.0  0.67548  0.6513600000000002  0.91186  1.0000
  O   O2        1.0  0.7729699999999999  0.69049  0.82761  1.0000
  O   O3        1.0  0.5491  0.77779  0.99379  1.0000
  O   O4        1.0  0.91258  0.73454  0.96942  1.0000
  O   O5        1.0  0.39381  0.36129  0.82117  1.0000
  O   O6        1.0  0.34159  0.16585  0.81  1.0000
  O   O7        1.0  0.030409999999999996  0.76625  0.88818  1.0000
  O   O8        1.0  0.49427  0.13494  0.7421  1.0000
  O   O9        1.0  0.7847399999999999  0.87297  0.83076  1.0000
  O   O10       1.0  0.73647  0.86944  0.93027  1.0000
  O   O11       1.0  0.50592  0.75343  0.09113  1.0000
  O   O12       1.0  0.50801  0.31027  0.7404499999999999  1.0000
  O   O13       1.0  0.7511299999999999  0.67123  0.06359  1.0000
  O   O14       1.0  0.17548  0.34861  0.58813  1.0000
  O   O15       1.0  0.2735  0.30967  0.67231  1.0000
  O   O16       1.0  0.04906  0.22221999999999997  0.50621  1.0000
  O   O17       1.0  0.41252999999999995  0.26489  0.53054  1.0000
  O   O18       1.0  0.89391  0.63883  0.67887  1.0000
  O   O19       1.0  0.8416099999999999  0.83412  0.69001  1.0000
  O   O20       1.0  0.53042  0.23367  0.61187  1.0000
  O   O21       1.0  0.99431  0.86504  0.7579  1.0000
  O   O22       1.0  0.28428  0.12717  0.66934  1.0000
  O   O23       1.0  0.23637999999999998  0.1305  0.56975  1.0000
  O   O24       1.0  0.005919999999999999  0.24656  0.4089  1.0000
  O   O25       1.0  0.00752  0.68942  0.75997  1.0000
  O   O26       1.0  0.25125  0.32877  0.4364  1.0000
  O   O27       1.0  0.32452  0.34864  0.08814  1.0000
  O   O28       1.0  0.22702  0.30952  0.17239  1.0000
  O   O29       1.0  0.45088999999999996  0.22221  0.00621  1.0000
  O   O30       1.0  0.08741  0.26546  0.03058  1.0000
  O   O31       1.0  0.60618  0.63871  0.17883  1.0000
  O   O32       1.0  0.6584  0.83416  0.18999999999999997  1.0000
  O   O33       1.0  0.9695899999999998  0.23375  0.11182  1.0000
  O   O34       1.0  0.50572  0.86506  0.2579  1.0000
  O   O35       1.0  0.21524999999999997  0.12704  0.16924  1.0000
  O   O36       1.0  0.26353  0.13057  0.06973  1.0000
  O   O37       1.0  0.49407  0.24658  0.90887  1.0000
  O   O38       1.0  0.49198  0.68973  0.25954  1.0000
  O   O39       1.0  0.24887  0.32878  0.93641  1.0000
  O   O40       1.0  0.8245199999999999  0.65139  0.41186000000000006  1.0000
  O   O41       1.0  0.7265  0.69033  0.32769  1.0000
  O   O42       1.0  0.95093  0.77778  0.49378  1.0000
  O   O43       1.0  0.58747  0.73512  0.46946000000000004  1.0000
  O   O44       1.0  0.10608  0.36118  0.32113  1.0000
  O   O45       1.0  0.15839  0.16588  0.30998  1.0000
  O   O46       1.0  0.46957  0.76633  0.38812  1.0000
  O   O47       1.0  0.00569  0.13497  0.2421  1.0000
  O   O48       1.0  0.71571  0.87283  0.33066  1.0000
  O   O49       1.0  0.76361  0.8695  0.43025  1.0000
  O   O50       1.0  0.9940699999999999  0.75345  0.5911  1.0000
  O   O51       1.0  0.99247  0.31059  0.24003  1.0000
  O   O52       1.0  0.74874  0.6712300000000001  0.5636  1.0000
