data_image0
_chemical_formula_structural       Zn6B4H64C80N32O16
_chemical_formula_sum              "Zn6 B4 H64 C80 N32 O16"
_cell_length_a       12.32569
_cell_length_b       12.31842
_cell_length_c       18.20817
_cell_angle_alpha    99.06479
_cell_angle_beta     98.92362
_cell_angle_gamma    114.51418

_space_group_name_H-M_alt    "P 1"
_space_group_IT_number       1

loop_
  _space_group_symop_operation_xyz
  'x, y, z'

loop_
  _atom_site_type_symbol
  _atom_site_label
  _atom_site_symmetry_multiplicity
  _atom_site_fract_x
  _atom_site_fract_y
  _atom_site_fract_z
  _atom_site_occupancy
  Zn  Zn1       1.0  0.65533  0.8045799999999999  0.04258  1.0000
  Zn  Zn2       1.0  0.19518999999999997  0.34447000000000005  0.4574900000000001  1.0000
  Zn  Zn3       1.0  0.34467999999999993  0.19542  0.95742  1.0000
  Zn  Zn4       1.0  0.80482  0.65553  0.54251  1.0000
  Zn  Zn5       1.0  0.74545  0.2545  0.75005  1.0000
  Zn  Zn6       1.0  0.25455999999999995  0.7455  0.24994  1.0000
  B   B1        1.0  0.96759  0.2833  0.04917  1.0000
  B   B2        1.0  0.71617  0.03182999999999996  0.45062  1.0000
  B   B3        1.0  0.03241000000000002  0.7167  0.9508300000000001  1.0000
  B   B4        1.0  0.28383  0.96817  0.54937  1.0000
  H   H1        1.0  0.04751999999999998  0.21062999999999998  0.18637  1.0000
  H   H2        1.0  0.8819099999999999  0.97482  0.18958  1.0000
  H   H3        1.0  0.75412  0.045179999999999935  0.9837  1.0000
  H   H4        1.0  0.3033  0.43101  0.93303  1.0000
  H   H5        1.0  0.10383000000000008  0.45846000000000003  0.9696100000000001  1.0000
  H   H6        1.0  0.12708  0.15973  0.04688  1.0000
  H   H7        1.0  0.93971  0.22630999999999996  0.88645  1.0000
  H   H8        1.0  0.6044299999999999  0.24566  0.8849600000000001  1.0000
  H   H9        1.0  0.7292599999999999  0.29763  0.03372  1.0000
  H   H10       1.0  0.8543999999999997  0.32752000000000003  0.17452000000000006  1.0000
  H   H11       1.0  0.004220000000000044  0.54314  0.2855300000000001  1.0000
  H   H12       1.0  0.18469999999999998  0.51883  0.10945  1.0000
  H   H13       1.0  0.56557  0.80597  0.74863  1.0000
  H   H14       1.0  0.3380099999999999  0.58445  0.87537  1.0000
  H   H15       1.0  0.6404499999999999  0.73259  0.32627  1.0000
  H   H16       1.0  0.40353  0.50497  0.10753000000000003  1.0000
  H   H17       1.0  0.78903  0.9522599999999999  0.31317  1.0000
  H   H18       1.0  0.025260000000000005  0.11776999999999999  0.31052  1.0000
  H   H19       1.0  0.95421  0.24523  0.51651  1.0000
  H   H20       1.0  0.56914  0.69676  0.56727  1.0000
  H   H21       1.0  0.5408399999999998  0.89542  0.53  1.0000
  H   H22       1.0  0.8398599999999999  0.87241  0.45289  1.0000
  H   H23       1.0  0.7729699999999998  0.05959  0.61318  1.0000
  H   H24       1.0  0.7547  0.39575  0.61552  1.0000
  H   H25       1.0  0.7019399999999997  0.2706  0.46659  1.0000
  H   H26       1.0  0.67277  0.14544000000000004  0.32572  1.0000
  H   H27       1.0  0.45734  0.99608  0.21468  1.0000
  H   H28       1.0  0.4806599999999999  0.81469  0.39013  1.0000
  H   H29       1.0  0.19403999999999993  0.43424  0.75152  1.0000
  H   H30       1.0  0.41562  0.66203  0.62482  1.0000
  H   H31       1.0  0.2664899999999999  0.35781999999999997  0.17333  1.0000
  H   H32       1.0  0.4934799999999999  0.59532  0.39215000000000005  1.0000
  H   H33       1.0  0.9524799999999999  0.78937  0.81362  1.0000
  H   H34       1.0  0.11810000000000004  0.025180000000000063  0.8104200000000001  1.0000
  H   H35       1.0  0.24587999999999993  0.95483  0.016300000000000002  1.0000
  H   H36       1.0  0.6966999999999999  0.569  0.06697000000000003  1.0000
  H   H37       1.0  0.8961699999999999  0.54155  0.030380000000000004  1.0000
  H   H38       1.0  0.8729199999999997  0.8402699999999997  0.9531200000000001  1.0000
  H   H39       1.0  0.0602899999999999  0.7736899999999999  0.11354  1.0000
  H   H40       1.0  0.39558  0.75434  0.11504  1.0000
  H   H41       1.0  0.27074  0.70237  0.96628  1.0000
  H   H42       1.0  0.14560999999999993  0.67248  0.82548  1.0000
  H   H43       1.0  0.99579  0.4568599999999999  0.71447  1.0000
  H   H44       1.0  0.8153  0.48117999999999994  0.89055  1.0000
  H   H45       1.0  0.43442999999999987  0.19403  0.25137  1.0000
  H   H46       1.0  0.6619899999999999  0.41555  0.12463000000000002  1.0000
  H   H47       1.0  0.35954999999999987  0.26741  0.67373  1.0000
  H   H48       1.0  0.5964699999999997  0.49503  0.89247  1.0000
  H   H49       1.0  0.21097000000000005  0.04774000000000007  0.6868300000000003  1.0000
  H   H50       1.0  0.9747499999999996  0.8822299999999998  0.68948  1.0000
  H   H51       1.0  0.045790000000000004  0.75478  0.4834800000000001  1.0000
  H   H52       1.0  0.4308599999999999  0.30325  0.43273  1.0000
  H   H53       1.0  0.45917  0.10458000000000005  0.47000000000000003  1.0000
  H   H54       1.0  0.16015  0.1276  0.5471  1.0000
  H   H55       1.0  0.2270299999999999  0.94041  0.38682  1.0000
  H   H56       1.0  0.24530000000000005  0.6042500000000001  0.3844800000000001  1.0000
  H   H57       1.0  0.29805999999999994  0.7293999999999999  0.5334100000000002  1.0000
  H   H58       1.0  0.32723  0.85456  0.67428  1.0000
  H   H59       1.0  0.54266  0.003919999999999997  0.78532  1.0000
  H   H60       1.0  0.51935  0.18531000000000009  0.6098600000000002  1.0000
  H   H61       1.0  0.80596  0.56576  0.24846999999999997  1.0000
  H   H62       1.0  0.5843899999999999  0.33798  0.37518  1.0000
  H   H63       1.0  0.73351  0.64219  0.82667  1.0000
  H   H64       1.0  0.50653  0.40468999999999994  0.60785  1.0000
  C   C1        1.0  0.9630299999999999  0.14324  0.14525  1.0000
  C   C2        1.0  0.8822399999999998  0.027179999999999996  0.14706  1.0000
  C   C3        1.0  0.81056  0.06113999999999999  0.03994000000000001  1.0000
  C   C4        1.0  0.23662999999999995  0.37932999999999995  0.96228  1.0000
  C   C5        1.0  0.13882999999999998  0.39375  0.9805400000000001  1.0000
  C   C6        1.0  0.14797999999999997  0.23697  0.02085  1.0000
  C   C7        1.0  0.86584  0.23883999999999997  0.90537  1.0000
  C   C8        1.0  0.69297  0.24826999999999996  0.90645  1.0000
  C   C9        1.0  0.7564399999999998  0.27747000000000005  0.9814500000000002  1.0000
  C   C10       1.0  0.9439999999999997  0.39949  0.17683  1.0000
  C   C11       1.0  0.019449999999999988  0.50598  0.23223999999999997  1.0000
  C   C12       1.0  0.11541000000000001  0.49667  0.14188000000000003  1.0000
  C   C13       1.0  0.5506099999999999  0.7890199999999999  0.8918800000000002  1.0000
  C   C14       1.0  0.4808299999999999  0.72758  0.7482800000000001  1.0000
  C   C15       1.0  0.45763  0.70583  0.81887  1.0000
  C   C16       1.0  0.3525899999999998  0.60125  0.82003  1.0000
  C   C17       1.0  0.60868  0.7202699999999999  0.17557  1.0000
  C   C18       1.0  0.5271599999999999  0.6303799999999999  0.21358  1.0000
  C   C19       1.0  0.55535  0.6532  0.2937000000000001  1.0000
  C   C20       1.0  0.4225199999999999  0.52365  0.16974  1.0000
  C   C21       1.0  0.85646  0.036589999999999984  0.35453  1.0000
  C   C22       1.0  0.9726599999999999  0.11735  0.35296  1.0000
  C   C23       1.0  0.93842  0.18883999999999998  0.46021000000000006  1.0000
  C   C24       1.0  0.6205299999999999  0.76312  0.53776  1.0000
  C   C25       1.0  0.60571  0.86056  0.51921  1.0000
  C   C26       1.0  0.7626799999999998  0.85159  0.4789900000000001  1.0000
  C   C27       1.0  0.7606899999999999  0.13369  0.59447  1.0000
  C   C28       1.0  0.75178  0.30698  0.59382  1.0000
  C   C29       1.0  0.7222499999999998  0.24338999999999997  0.5187400000000001  1.0000
  C   C30       1.0  0.60062  0.05584000000000002  0.32327  1.0000
  C   C31       1.0  0.49425  0.98059  0.26783  1.0000
  C   C32       1.0  0.5030499999999998  0.88416  0.35787  1.0000
  C   C33       1.0  0.21088999999999997  0.4492  0.60829  1.0000
  C   C34       1.0  0.27244999999999997  0.51898  0.75187  1.0000
  C   C35       1.0  0.29419  0.54214  0.68129  1.0000
  C   C36       1.0  0.39867  0.64732  0.68012  1.0000
  C   C37       1.0  0.2788  0.38985  0.32416  1.0000
  C   C38       1.0  0.3684999999999999  0.47134999999999994  0.28608  1.0000
  C   C39       1.0  0.34572  0.44305  0.20596  1.0000
  C   C40       1.0  0.47496  0.57622  0.32993  1.0000
  C   C41       1.0  0.03697000000000016  0.8567600000000001  0.8547500000000002  1.0000
  C   C42       1.0  0.11776999999999996  0.9728199999999999  0.85293  1.0000
  C   C43       1.0  0.18945000000000004  0.93886  0.9600600000000001  1.0000
  C   C44       1.0  0.7633699999999997  0.6206699999999999  0.03772  1.0000
  C   C45       1.0  0.86117  0.60626  0.01946  1.0000
  C   C46       1.0  0.8520199999999998  0.76303  0.97915  1.0000
  C   C47       1.0  0.13415999999999995  0.7611599999999998  0.09462  1.0000
  C   C48       1.0  0.3070299999999999  0.7517299999999999  0.09355000000000001  1.0000
  C   C49       1.0  0.24356999999999998  0.7225300000000001  0.018550000000000004  1.0000
  C   C50       1.0  0.056000000000000036  0.60051  0.82317  1.0000
  C   C51       1.0  0.98055  0.4940199999999999  0.76776  1.0000
  C   C52       1.0  0.88459  0.50333  0.85812  1.0000
  C   C53       1.0  0.44939  0.21098  0.10812000000000001  1.0000
  C   C54       1.0  0.51918  0.27242  0.25171  1.0000
  C   C55       1.0  0.54237  0.29418  0.18112  1.0000
  C   C56       1.0  0.64741  0.39875  0.17997  1.0000
  C   C57       1.0  0.39133  0.27973  0.82443  1.0000
  C   C58       1.0  0.47285  0.36961999999999995  0.78642  1.0000
  C   C59       1.0  0.44465  0.34681  0.7063  1.0000
  C   C60       1.0  0.5774799999999999  0.4763500000000001  0.8302600000000002  1.0000
  C   C61       1.0  0.14353999999999978  0.9634099999999999  0.64547  1.0000
  C   C62       1.0  0.02735000000000003  0.8826499999999999  0.6470300000000001  1.0000
  C   C63       1.0  0.06157999999999985  0.8111699999999998  0.53979  1.0000
  C   C64       1.0  0.37947999999999993  0.23687999999999998  0.46224000000000004  1.0000
  C   C65       1.0  0.39429  0.13945000000000002  0.48079000000000005  1.0000
  C   C66       1.0  0.23731999999999995  0.14841  0.521  1.0000
  C   C67       1.0  0.23931  0.86631  0.40552  1.0000
  C   C68       1.0  0.24822999999999992  0.6930199999999999  0.40618  1.0000
  C   C69       1.0  0.2777499999999999  0.75662  0.48125  1.0000
  C   C70       1.0  0.3993800000000001  0.94417  0.6767300000000003  1.0000
  C   C71       1.0  0.50576  0.019409999999999993  0.73217  1.0000
  C   C72       1.0  0.49694999999999995  0.11583999999999994  0.64213  1.0000
  C   C73       1.0  0.7891199999999999  0.5507999999999997  0.3917  1.0000
  C   C74       1.0  0.72756  0.48102  0.24813000000000002  1.0000
  C   C75       1.0  0.70581  0.45786  0.31871  1.0000
  C   C76       1.0  0.6013299999999999  0.35268999999999995  0.31987  1.0000
  C   C77       1.0  0.7212  0.61015  0.67584  1.0000
  C   C78       1.0  0.6314999999999997  0.52865  0.71392  1.0000
  C   C79       1.0  0.6542799999999998  0.5569600000000001  0.7940400000000001  1.0000
  C   C80       1.0  0.52504  0.42378  0.67007  1.0000
  N   N1        1.0  0.78728  0.97739  0.08112  1.0000
  N   N2        1.0  0.9166399999999998  0.16447999999999996  0.0768  1.0000
  N   N3        1.0  0.24122999999999997  0.28098999999999996  0.9876900000000001  1.0000
  N   N4        1.0  0.08238999999999999  0.30269  0.01799  1.0000
  N   N5        1.0  0.7628199999999998  0.22388  0.85897  1.0000
  N   N6        1.0  0.8674  0.27315000000000006  0.9806700000000002  1.0000
  N   N7        1.0  0.005419999999999988  0.39394  0.11917000000000001  1.0000
  N   N8        1.0  0.12721999999999994  0.5662199999999998  0.20959  1.0000
  N   N9        1.0  0.022380000000000008  0.21216  0.41912  1.0000
  N   N10       1.0  0.83506  0.08288000000000002  0.42308000000000007  1.0000
  N   N11       1.0  0.7189699999999998  0.7586299999999999  0.5124  1.0000
  N   N12       1.0  0.69664  0.9168899999999999  0.4816500000000001  1.0000
  N   N13       1.0  0.7760599999999998  0.23695  0.64108  1.0000
  N   N14       1.0  0.7262399999999998  0.13215000000000005  0.5192600000000002  1.0000
  N   N15       1.0  0.6058399999999999  0.99412  0.38070000000000004  1.0000
  N   N16       1.0  0.43376  0.87266  0.2902600000000001  1.0000
  N   N17       1.0  0.21272  0.022620000000000043  0.9188800000000001  1.0000
  N   N18       1.0  0.08336999999999993  0.8355299999999999  0.9232  1.0000
  N   N19       1.0  0.7587699999999997  0.7190099999999999  0.012310000000000001  1.0000
  N   N20       1.0  0.9176199999999998  0.6973099999999999  0.98201  1.0000
  N   N21       1.0  0.23718999999999993  0.7761299999999999  0.14103  1.0000
  N   N22       1.0  0.13260999999999998  0.72685  0.01933  1.0000
  N   N23       1.0  0.9945899999999998  0.60606  0.88082  1.0000
  N   N24       1.0  0.8727899999999997  0.43378  0.79041  1.0000
  N   N25       1.0  0.9776199999999998  0.7878399999999999  0.58087  1.0000
  N   N26       1.0  0.16493999999999998  0.91712  0.57692  1.0000
  N   N27       1.0  0.28102999999999995  0.24138  0.4876  1.0000
  N   N28       1.0  0.30335999999999996  0.08311  0.51835  1.0000
  N   N29       1.0  0.22393999999999994  0.7630599999999998  0.35892  1.0000
  N   N30       1.0  0.2737699999999999  0.8678599999999999  0.48074  1.0000
  N   N31       1.0  0.39417  0.005879999999999976  0.6193  1.0000
  N   N32       1.0  0.56624  0.12735  0.70973  1.0000
  O   O1        1.0  0.6503599999999999  0.8732  0.8891400000000003  1.0000
  O   O2        1.0  0.5190099999999999  0.7626999999999999  0.9544800000000001  1.0000
  O   O3        1.0  0.71458  0.79965  0.21126  1.0000
  O   O4        1.0  0.55732  0.7067900000000001  0.10418000000000002  1.0000
  O   O5        1.0  0.12666999999999995  0.34938  0.61092  1.0000
  O   O6        1.0  0.23720999999999998  0.48102  0.54576  1.0000
  O   O7        1.0  0.20062000000000002  0.28322  0.2888100000000001  1.0000
  O   O8        1.0  0.2912399999999999  0.44217  0.39525  1.0000
  O   O9        1.0  0.3496499999999999  0.1268  0.11085  1.0000
  O   O10       1.0  0.48099  0.23729999999999998  0.04552  1.0000
  O   O11       1.0  0.28541999999999995  0.20035  0.78873  1.0000
  O   O12       1.0  0.44267999999999996  0.2932100000000001  0.8958200000000002  1.0000
  O   O13       1.0  0.8733299999999998  0.65062  0.38908  1.0000
  O   O14       1.0  0.7627999999999999  0.51898  0.45424  1.0000
  O   O15       1.0  0.7993899999999998  0.71679  0.71119  1.0000
  O   O16       1.0  0.7087599999999998  0.55784  0.60475  1.0000
