data_image0
_chemical_formula_structural       Li4Zn4H56C68N20O24
_chemical_formula_sum              "Li4 Zn4 H56 C68 N20 O24"
_cell_length_a       12.83296
_cell_length_b       12.83689
_cell_length_c       16.79145
_cell_angle_alpha    104.45821
_cell_angle_beta     104.47921
_cell_angle_gamma    97.64317

_space_group_name_H-M_alt    "P 1"
_space_group_IT_number       1

loop_
  _space_group_symop_operation_xyz
  'x, y, z'

loop_
  _atom_site_type_symbol
  _atom_site_label
  _atom_site_symmetry_multiplicity
  _atom_site_fract_x
  _atom_site_fract_y
  _atom_site_fract_z
  _atom_site_occupancy
  Li  Li1       1.0  0.5333399999999998  0.2973399999999999  0.7472099999999998  1.0000
  Li  Li2       1.0  0.7026199999999999  0.46681999999999996  0.7528699999999998  1.0000
  Li  Li3       1.0  0.4666599999999999  0.70267  0.25279  1.0000
  Li  Li4       1.0  0.29739000000000004  0.53318  0.24712999999999996  1.0000
  Zn  Zn1       1.0  0.38377  0.11727999999999997  0.58328  1.0000
  Zn  Zn2       1.0  0.8828799999999998  0.6162399999999998  0.9167499999999997  1.0000
  Zn  Zn3       1.0  0.61623  0.8827299999999998  0.41671999999999987  1.0000
  Zn  Zn4       1.0  0.11713  0.38376  0.08325  1.0000
  H   H1        1.0  0.37210999999999983  0.8860899999999997  0.4712199999999999  1.0000
  H   H2        1.0  0.26661  0.76751  0.32358  1.0000
  H   H3        1.0  0.11025  0.03781  0.28779  1.0000
  H   H4        1.0  0.22423  0.14651  0.43554  1.0000
  H   H5        1.0  0.60593  0.70134  0.66258  1.0000
  H   H6        1.0  0.5239099999999997  0.8478399999999999  0.6143699999999997  1.0000
  H   H7        1.0  0.62795  0.1436199999999999  0.8662299999999998  1.0000
  H   H8        1.0  0.67568  0.08645999999999988  0.9459999999999997  1.0000
  H   H9        1.0  0.76334  0.5453  0.61445  1.0000
  H   H10       1.0  0.71057  0.41969  0.6128799999999998  1.0000
  H   H11       1.0  0.75208  0.5867999999999999  0.49381999999999987  1.0000
  H   H12       1.0  0.6868299999999998  0.68281  0.4642399999999999  1.0000
  H   H13       1.0  0.8311699999999999  0.8873499999999995  0.9427999999999997  1.0000
  H   H14       1.0  0.8200899999999998  0.021959999999999903  0.95618  1.0000
  H   H15       1.0  0.11418999999999997  0.62802  0.028969999999999992  1.0000
  H   H16       1.0  0.23275999999999997  0.7335799999999999  0.17659999999999995  1.0000
  H   H17       1.0  0.9621099999999998  0.8896399999999999  0.21210999999999994  1.0000
  H   H18       1.0  0.8534699999999998  0.7755899999999999  0.06437999999999998  1.0000
  H   H19       1.0  0.29878999999999994  0.39409999999999995  0.8374299999999999  1.0000
  H   H20       1.0  0.1522199999999999  0.47610999999999987  0.8855999999999998  1.0000
  H   H21       1.0  0.85621  0.3719899999999999  0.6338299999999998  1.0000
  H   H22       1.0  0.9132999999999999  0.32430999999999993  0.55403  1.0000
  H   H23       1.0  0.4547499999999999  0.23674999999999988  0.8856499999999998  1.0000
  H   H24       1.0  0.5803899999999999  0.2894999999999999  0.8872499999999999  1.0000
  H   H25       1.0  0.41323  0.24804999999999996  0.006319999999999998  1.0000
  H   H26       1.0  0.31726  0.31333  0.03593  1.0000
  H   H27       1.0  0.11249999999999999  0.16883999999999996  0.55723  1.0000
  H   H28       1.0  0.9778199999999999  0.17991999999999986  0.5438599999999998  1.0000
  H   H29       1.0  0.6278999999999999  0.11391999999999992  0.5287799999999998  1.0000
  H   H30       1.0  0.73339  0.23248999999999997  0.67642  1.0000
  H   H31       1.0  0.8897499999999999  0.96219  0.7122099999999998  1.0000
  H   H32       1.0  0.77578  0.85349  0.56447  1.0000
  H   H33       1.0  0.39406999999999975  0.29866  0.33742  1.0000
  H   H34       1.0  0.4761  0.15215999999999993  0.38562999999999986  1.0000
  H   H35       1.0  0.37206  0.85638  0.13376999999999994  1.0000
  H   H36       1.0  0.32432999999999995  0.9135399999999998  0.053999999999999986  1.0000
  H   H37       1.0  0.23666999999999994  0.45469999999999994  0.3855499999999999  1.0000
  H   H38       1.0  0.2894299999999999  0.58031  0.3871199999999999  1.0000
  H   H39       1.0  0.24791999999999995  0.4132099999999999  0.50618  1.0000
  H   H40       1.0  0.31317999999999996  0.31718999999999997  0.53576  1.0000
  H   H41       1.0  0.16883999999999996  0.11265  0.057199999999999994  1.0000
  H   H42       1.0  0.17992  0.9780399999999999  0.043819999999999984  1.0000
  H   H43       1.0  0.88581  0.3719799999999999  0.9710299999999997  1.0000
  H   H44       1.0  0.7672499999999999  0.2664199999999999  0.8233999999999998  1.0000
  H   H45       1.0  0.03788999999999994  0.11035999999999989  0.7878999999999998  1.0000
  H   H46       1.0  0.14653999999999992  0.22441999999999987  0.9356199999999998  1.0000
  H   H47       1.0  0.70121  0.6059  0.16256999999999994  1.0000
  H   H48       1.0  0.8477899999999998  0.5238999999999999  0.11439999999999999  1.0000
  H   H49       1.0  0.14379999999999996  0.6280099999999998  0.3661699999999999  1.0000
  H   H50       1.0  0.08669999999999993  0.67569  0.44596999999999987  1.0000
  H   H51       1.0  0.5452599999999999  0.7632499999999998  0.11434999999999997  1.0000
  H   H52       1.0  0.41961000000000004  0.71051  0.11274999999999998  1.0000
  H   H53       1.0  0.58678  0.75196  0.99368  1.0000
  H   H54       1.0  0.6827399999999999  0.6866699999999999  0.9640699999999998  1.0000
  H   H55       1.0  0.8875099999999998  0.83117  0.4427799999999999  1.0000
  H   H56       1.0  0.022179999999999957  0.82008  0.4561399999999999  1.0000
  C   C1        1.0  0.31261999999999995  0.9158799999999999  0.4284399999999999  1.0000
  C   C2        1.0  0.25333  0.8502699999999999  0.34586  1.0000
  C   C3        1.0  0.17614999999999997  0.8914399999999999  0.29357  1.0000
  C   C4        1.0  0.16508999999999996  0.9997899999999998  0.3267699999999999  1.0000
  C   C5        1.0  0.22848  0.06110000000000001  0.4093  1.0000
  C   C6        1.0  0.5346  0.05377999999999993  0.7080999999999997  1.0000
  C   C7        1.0  0.5897099999999997  0.97018  0.7385399999999998  1.0000
  C   C8        1.0  0.65691  0.9928299999999998  0.82419  1.0000
  C   C9        1.0  0.7128599999999998  0.9117399999999998  0.84937  1.0000
  C   C10       1.0  0.69206  0.80568  0.7910799999999998  1.0000
  C   C11       1.0  0.62136  0.7834999999999998  0.7066699999999998  1.0000
  C   C12       1.0  0.57398  0.86442  0.6804099999999997  1.0000
  C   C13       1.0  0.74083  0.71463  0.8147  1.0000
  C   C14       1.0  0.51987  0.33121  0.5860999999999998  1.0000
  C   C15       1.0  0.51007  0.41684999999999994  0.54101  1.0000
  C   C16       1.0  0.6050399999999998  0.48672999999999994  0.5412699999999998  1.0000
  C   C17       1.0  0.5960599999999998  0.56993  0.50046  1.0000
  C   C18       1.0  0.08432999999999999  0.68747  0.07169  1.0000
  C   C19       1.0  0.14994  0.74679  0.15426999999999993  1.0000
  C   C20       1.0  0.10864999999999994  0.8238999999999996  0.20647999999999994  1.0000
  C   C21       1.0  0.0002199999999999774  0.83486  0.17320999999999995  1.0000
  C   C22       1.0  0.9389399999999999  0.77144  0.09067999999999997  1.0000
  C   C23       1.0  0.9462299999999998  0.46533999999999986  0.7919199999999997  1.0000
  C   C24       1.0  0.029840000000000012  0.41025999999999996  0.76146  1.0000
  C   C25       1.0  0.007099999999999993  0.34307999999999994  0.67583  1.0000
  C   C26       1.0  0.08819999999999995  0.28715999999999997  0.6506299999999999  1.0000
  C   C27       1.0  0.19434999999999988  0.30799999999999983  0.7089099999999998  1.0000
  C   C28       1.0  0.21658999999999984  0.37865999999999983  0.7933299999999998  1.0000
  C   C29       1.0  0.13565999999999992  0.42599999999999993  0.8195899999999998  1.0000
  C   C30       1.0  0.2854299999999999  0.2592999999999998  0.6852999999999998  1.0000
  C   C31       1.0  0.66885  0.48017999999999983  0.9139299999999998  1.0000
  C   C32       1.0  0.5831699999999997  0.4899399999999998  0.9590099999999998  1.0000
  C   C33       1.0  0.5133199999999999  0.39498999999999984  0.9587999999999998  1.0000
  C   C34       1.0  0.4300999999999999  0.4039799999999999  0.9995999999999999  1.0000
  C   C35       1.0  0.68739  0.08412000000000004  0.57156  1.0000
  C   C36       1.0  0.7466799999999999  0.14973999999999993  0.6541399999999998  1.0000
  C   C37       1.0  0.82385  0.10856999999999996  0.70643  1.0000
  C   C38       1.0  0.83492  0.0002099999999999245  0.6732399999999997  1.0000
  C   C39       1.0  0.7715299999999999  0.9388999999999996  0.5906999999999998  1.0000
  C   C40       1.0  0.46540999999999993  0.9462199999999998  0.2918999999999999  1.0000
  C   C41       1.0  0.4102899999999999  0.029829999999999964  0.2614599999999999  1.0000
  C   C42       1.0  0.3431  0.007179999999999978  0.17580999999999994  1.0000
  C   C43       1.0  0.28714999999999996  0.08825999999999998  0.15062999999999993  1.0000
  C   C44       1.0  0.30794  0.19431999999999994  0.20891999999999994  1.0000
  C   C45       1.0  0.37865  0.21649999999999997  0.29333  1.0000
  C   C46       1.0  0.42602  0.13558  0.31959  1.0000
  C   C47       1.0  0.25916999999999996  0.28537  0.18529999999999994  1.0000
  C   C48       1.0  0.48013  0.6688  0.4138999999999999  1.0000
  C   C49       1.0  0.48992999999999987  0.5831499999999998  0.4589899999999999  1.0000
  C   C50       1.0  0.39495999999999987  0.5132699999999999  0.4587299999999999  1.0000
  C   C51       1.0  0.40394  0.43006999999999984  0.4995399999999999  1.0000
  C   C52       1.0  0.9156699999999997  0.3125399999999999  0.9283099999999997  1.0000
  C   C53       1.0  0.85007  0.2532199999999999  0.8457299999999998  1.0000
  C   C54       1.0  0.89135  0.1761099999999999  0.7935199999999998  1.0000
  C   C55       1.0  0.9997799999999998  0.16514999999999985  0.8267899999999998  1.0000
  C   C56       1.0  0.06106999999999992  0.22856999999999988  0.9093199999999998  1.0000
  C   C57       1.0  0.05377999999999997  0.53466  0.20807999999999993  1.0000
  C   C58       1.0  0.97016  0.58974  0.23853999999999995  1.0000
  C   C59       1.0  0.9928999999999998  0.6569299999999998  0.3241699999999999  1.0000
  C   C60       1.0  0.91181  0.71285  0.3493699999999999  1.0000
  C   C61       1.0  0.80565  0.692  0.2910899999999999  1.0000
  C   C62       1.0  0.7834099999999998  0.62134  0.20666999999999994  1.0000
  C   C63       1.0  0.86435  0.574  0.18040999999999993  1.0000
  C   C64       1.0  0.7145699999999999  0.7406999999999999  0.31469999999999987  1.0000
  C   C65       1.0  0.33115  0.5198299999999999  0.08606999999999997  1.0000
  C   C66       1.0  0.41683  0.51007  0.04099  1.0000
  C   C67       1.0  0.48669  0.60501  0.04119999999999999  1.0000
  C   C68       1.0  0.5699  0.59602  0.0004  1.0000
  N   N1        1.0  0.29976  0.019289999999999946  0.4604099999999999  1.0000
  N   N2        1.0  0.6762099999999999  0.09301999999999996  0.8869099999999998  1.0000
  N   N3        1.0  0.7120699999999995  0.4722599999999999  0.5766299999999998  1.0000
  N   N4        1.0  0.69567  0.63383  0.50352  1.0000
  N   N5        1.0  0.7806899999999999  0.9414499999999999  0.9339899999999998  1.0000
  N   N6        1.0  0.98086  0.7002199999999998  0.039649999999999984  1.0000
  N   N7        1.0  0.90681  0.32375  0.61314  1.0000
  N   N8        1.0  0.52781  0.2879999999999998  0.9234899999999998  1.0000
  N   N9        1.0  0.36618999999999985  0.30444999999999983  0.9965999999999998  1.0000
  N   N10       1.0  0.05837000000000001  0.21927  0.56604  1.0000
  N   N11       1.0  0.7002399999999999  0.9807099999999999  0.5395899999999999  1.0000
  N   N12       1.0  0.32379  0.9069799999999999  0.11308999999999997  1.0000
  N   N13       1.0  0.28793  0.52774  0.4233699999999999  1.0000
  N   N14       1.0  0.30434  0.36616999999999994  0.49647999999999987  1.0000
  N   N15       1.0  0.21932  0.05854999999999999  0.06600999999999997  1.0000
  N   N16       1.0  0.019150000000000004  0.29979  0.96036  1.0000
  N   N17       1.0  0.09319  0.67625  0.38686  1.0000
  N   N18       1.0  0.4722  0.7119999999999999  0.07650999999999997  1.0000
  N   N19       1.0  0.63382  0.6955599999999998  0.003399999999999999  1.0000
  N   N20       1.0  0.94163  0.7807299999999999  0.4339599999999999  1.0000
  O   O1        1.0  0.4654299999999999  0.019799999999999922  0.6312799999999997  1.0000
  O   O2        1.0  0.55589  0.15314  0.75489  1.0000
  O   O3        1.0  0.6998799999999997  0.6169499999999998  0.7690799999999998  1.0000
  O   O4        1.0  0.82556  0.74076  0.8839399999999998  1.0000
  O   O5        1.0  0.45012  0.23958999999999994  0.54791  1.0000
  O   O6        1.0  0.5923899999999999  0.3488299999999999  0.6586999999999997  1.0000
  O   O7        1.0  0.9803  0.5345599999999999  0.8687099999999998  1.0000
  O   O8        1.0  0.8468  0.4440099999999999  0.7451899999999998  1.0000
  O   O9        1.0  0.38317  0.30013999999999985  0.7310399999999998  1.0000
  O   O10       1.0  0.2592799999999999  0.1747099999999999  0.6159799999999997  1.0000
  O   O11       1.0  0.76054  0.5498699999999997  0.9521499999999998  1.0000
  O   O12       1.0  0.6511599999999996  0.40774999999999995  0.8413299999999998  1.0000
  O   O13       1.0  0.53457  0.9802099999999998  0.3687199999999999  1.0000
  O   O14       1.0  0.44411999999999996  0.8468599999999998  0.24510999999999994  1.0000
  O   O15       1.0  0.30012  0.38306  0.23091999999999993  1.0000
  O   O16       1.0  0.17445  0.25924  0.11605999999999997  1.0000
  O   O17       1.0  0.54988  0.76041  0.4520899999999999  1.0000
  O   O18       1.0  0.40761  0.65117  0.3413  1.0000
  O   O19       1.0  0.0197  0.46544  0.13129  1.0000
  O   O20       1.0  0.15320999999999996  0.55599  0.25481  1.0000
  O   O21       1.0  0.61684  0.6998699999999998  0.26896  1.0000
  O   O22       1.0  0.74072  0.8252899999999999  0.38402999999999987  1.0000
  O   O23       1.0  0.23946999999999993  0.45013999999999993  0.04784999999999998  1.0000
  O   O24       1.0  0.34885  0.59226  0.15867  1.0000
