data_image0
_chemical_formula_structural       Cd2H72C80N16O8
_chemical_formula_sum              "Cd2 H72 C80 N16 O8"
_cell_length_a       12.24098
_cell_length_b       12.43503
_cell_length_c       18.1826
_cell_angle_alpha    80.48960999999998
_cell_angle_beta     70.85695
_cell_angle_gamma    60.61225000000001

_symmetry_space_group_name_H-M    'P 1'
_symmetry_Int_Tables_number       1

loop_
  _symmetry_equiv_pos_as_xyz
  'x,y,z'

loop_
  _atom_site_type_symbol
  _atom_site_label
  _atom_site_symmetry_multiplicity
  _atom_site_fract_x
  _atom_site_fract_y
  _atom_site_fract_z
  _atom_site_occupancy
  Cd  Cd1       1.0  0.9128299999999999  0.29224  0.73793  1.0000
  Cd  Cd2       1.0  0.08716999999999997  0.70775  0.26207  1.0000
  H   H1        1.0  0.4548  0.20652  0.59857  1.0000
  H   H2        1.0  0.60221  0.24853  0.62194  1.0000
  H   H3        1.0  0.48380000000000006  0.5390599999999999  0.76184  1.0000
  H   H4        1.0  0.24971000000000007  0.58557  0.79762  1.0000
  H   H5        1.0  0.19082999999999997  0.46320999999999996  0.73398  1.0000
  H   H6        1.0  0.18516000000000002  0.24561999999999998  0.55272  1.0000
  H   H7        1.0  0.20021000000000003  0.15544  0.6371  1.0000
  H   H8        1.0  0.4298300000000001  0.98862  0.64405  1.0000
  H   H9        1.0  0.3585100000000001  0.17556  0.43106  1.0000
  H   H10       1.0  0.17728000000000005  0.8619499999999998  0.64752  1.0000
  H   H11       1.0  0.9574899999999998  0.97673  0.67854  1.0000
  H   H12       1.0  0.7791000000000001  0.28763999999999995  0.55261  1.0000
  H   H13       1.0  0.9931300000000001  0.24523999999999996  0.45257  1.0000
  H   H14       1.0  0.1989000000000001  0.05645  0.46858  1.0000
  H   H15       1.0  0.4959  0.73136  0.58524  1.0000
  H   H16       1.0  0.36086000000000007  0.71245  0.64786  1.0000
  H   H17       1.0  0.66197  0.56078  0.50597  1.0000
  H   H18       1.0  0.7346500000000007  0.37890999999999997  0.42948  1.0000
  H   H19       1.0  0.25679  0.29134  0.90228  1.0000
  H   H20       1.0  0.46787  0.25462  0.8765  1.0000
  H   H21       1.0  0.7777099999999999  0.96522  0.73688  1.0000
  H   H22       1.0  0.6268099999999999  0.91539  0.70156  1.0000
  H   H23       1.0  0.38301  0.03729  0.76447  1.0000
  H   H24       1.0  0.9854900000000001  0.25538  0.94334  1.0000
  H   H25       1.0  0.9820200000000003  0.35209  0.86177  1.0000
  H   H26       1.0  0.05930000000000002  0.51676  0.85603  1.0000
  H   H27       1.0  0.96684  0.3225799999999999  0.06528  1.0000
  H   H28       1.0  0.68647  0.63463  0.85354  1.0000
  H   H29       1.0  0.60012  0.52609  0.82708  1.0000
  H   H30       1.0  0.61412  0.21299999999999997  0.9520199999999999  1.0000
  H   H31       1.0  0.6965299999999999  0.25209  0.049  1.0000
  H   H32       1.0  0.73003  0.4407499999999999  0.03211  1.0000
  H   H33       1.0  0.8103  0.7699099999999999  0.91567  1.0000
  H   H34       1.0  0.7182100000000001  0.78661  0.853  1.0000
  H   H35       1.0  0.7273600000000001  0.93563  0.9978700000000001  1.0000
  H   H36       1.0  0.54398  0.12013  0.07214  1.0000
  H   H37       1.0  0.5452  0.79349  0.40143  1.0000
  H   H38       1.0  0.39779000000000014  0.7514699999999997  0.37806  1.0000
  H   H39       1.0  0.5162000000000002  0.46094  0.23815999999999998  1.0000
  H   H40       1.0  0.7502800000000001  0.41443  0.20238  1.0000
  H   H41       1.0  0.80917  0.53679  0.26602  1.0000
  H   H42       1.0  0.8148399999999999  0.75437  0.44728  1.0000
  H   H43       1.0  0.7997900000000003  0.8445499999999998  0.3629  1.0000
  H   H44       1.0  0.57017  0.01138  0.35594  1.0000
  H   H45       1.0  0.6414899999999999  0.8244399999999997  0.56893  1.0000
  H   H46       1.0  0.8227300000000002  0.13803999999999997  0.35247  1.0000
  H   H47       1.0  0.04252  0.02327  0.32146  1.0000
  H   H48       1.0  0.22090000000000004  0.7123599999999999  0.44739  1.0000
  H   H49       1.0  0.006860000000000056  0.75476  0.54743  1.0000
  H   H50       1.0  0.8011000000000004  0.9435499999999998  0.53142  1.0000
  H   H51       1.0  0.5041  0.26863999999999993  0.41475  1.0000
  H   H52       1.0  0.6391300000000002  0.28756  0.35214  1.0000
  H   H53       1.0  0.3380300000000002  0.43922  0.49403  1.0000
  H   H54       1.0  0.26535  0.62109  0.57051  1.0000
  H   H55       1.0  0.74321  0.70865  0.09772  1.0000
  H   H56       1.0  0.5321300000000001  0.7453899999999999  0.12349  1.0000
  H   H57       1.0  0.22229  0.03479  0.26312  1.0000
  H   H58       1.0  0.37318000000000007  0.08461  0.29843  1.0000
  H   H59       1.0  0.61698  0.96271  0.23553000000000002  1.0000
  H   H60       1.0  0.01451000000000009  0.7446199999999997  0.05665  1.0000
  H   H61       1.0  0.01797000000000009  0.6479199999999999  0.13823  1.0000
  H   H62       1.0  0.9406999999999999  0.48324  0.14396  1.0000
  H   H63       1.0  0.03316000000000008  0.67742  0.9347199999999999  1.0000
  H   H64       1.0  0.31352  0.36538  0.14646  1.0000
  H   H65       1.0  0.39988000000000007  0.47391999999999995  0.17292  1.0000
  H   H66       1.0  0.38588000000000017  0.7870099999999999  0.04798  1.0000
  H   H67       1.0  0.30347000000000013  0.74791  0.9509999999999998  1.0000
  H   H68       1.0  0.26996999999999993  0.55925  0.96788  1.0000
  H   H69       1.0  0.18969  0.23009  0.08433  1.0000
  H   H70       1.0  0.2817900000000001  0.2134  0.14699  1.0000
  H   H71       1.0  0.27263000000000004  0.06437  0.00213  1.0000
  H   H72       1.0  0.45602  0.87987  0.92786  1.0000
  C   C1        1.0  0.39199000000000006  0.34832  0.67193  1.0000
  C   C2        1.0  0.52167  0.32538  0.65877  1.0000
  C   C3        1.0  0.45566999999999996  0.4853  0.73744  1.0000
  C   C4        1.0  0.32488  0.51224  0.75657  1.0000
  C   C5        1.0  0.29128000000000004  0.44403  0.72281  1.0000
  C   C6        1.0  0.25213  0.19525999999999996  0.58875  1.0000
  C   C7        1.0  0.3794200000000001  0.09473999999999999  0.54315  1.0000
  C   C8        1.0  0.4604900000000002  0.99376  0.58079  1.0000
  C   C9        1.0  0.42088000000000003  0.09884999999999998  0.46157  1.0000
  C   C10       1.0  0.25291000000000013  0.2945499999999999  0.62837  1.0000
  C   C11       1.0  0.09292000000000003  0.00411  0.57569  1.0000
  C   C12       1.0  0.96786  0.03524  0.62752  1.0000
  C   C13       1.0  0.8696500000000003  0.20678999999999997  0.55715  1.0000
  C   C14       1.0  0.9893600000000005  0.18309  0.502  1.0000
  C   C15       1.0  0.10384999999999998  0.07948  0.51027  1.0000
  C   C16       1.0  0.41195000000000004  0.71976  0.58651  1.0000
  C   C17       1.0  0.4584400000000002  0.60455  0.54297  1.0000
  C   C18       1.0  0.59069  0.53429  0.50364  1.0000
  C   C19       1.0  0.63164  0.43123  0.46084  1.0000
  C   C20       1.0  0.32521999999999984  0.83393  0.54758  1.0000
  C   C21       1.0  0.40733  0.15362  0.82619  1.0000
  C   C22       1.0  0.5005  0.17733  0.83988  1.0000
  C   C23       1.0  0.6721000000000003  0.01763  0.76151  1.0000
  C   C24       1.0  0.5878100000000004  0.9892399999999999  0.74243  1.0000
  C   C25       1.0  0.45306  0.05693  0.77577  1.0000
  C   C26       1.0  0.03294999999999997  0.3094199999999999  0.90723  1.0000
  C   C27       1.0  0.016629999999999957  0.40712  0.9548400000000001  1.0000
  C   C28       1.0  0.03337999999999995  0.5091699999999999  0.91924  1.0000
  C   C29       1.0  0.9824000000000005  0.40007  0.0364  1.0000
  C   C30       1.0  0.17037000000000002  0.21439  0.86255  1.0000
  C   C31       1.0  0.67092  0.49505  0.92688  1.0000
  C   C32       1.0  0.6227400000000002  0.46597  0.87693  1.0000
  C   C33       1.0  0.62949  0.29341  0.94686  1.0000
  C   C34       1.0  0.67637  0.31518  0.00026  1.0000
  C   C35       1.0  0.6962600000000003  0.41851999999999995  0.9913799999999999  1.0000
  C   C36       1.0  0.71678  0.7797  0.91436  1.0000
  C   C37       1.0  0.6048599999999997  0.89465  0.9577600000000001  1.0000
  C   C38       1.0  0.6277600000000001  0.96414  0.99835  1.0000
  C   C39       1.0  0.5241500000000001  0.06811999999999999  0.04024  1.0000
  C   C40       1.0  0.7077700000000005  0.6648199999999999  0.95348  1.0000
  C   C41       1.0  0.60801  0.65168  0.32806  1.0000
  C   C42       1.0  0.4783200000000001  0.67463  0.34122  1.0000
  C   C43       1.0  0.54432  0.5147  0.26256  1.0000
  C   C44       1.0  0.67511  0.48776  0.24342  1.0000
  C   C45       1.0  0.7087200000000002  0.55597  0.27718  1.0000
  C   C46       1.0  0.7478700000000003  0.80473  0.41125  1.0000
  C   C47       1.0  0.62058  0.90525  0.45685  1.0000
  C   C48       1.0  0.5395100000000003  0.00624  0.41921  1.0000
  C   C49       1.0  0.5791200000000001  0.90115  0.53843  1.0000
  C   C50       1.0  0.7471000000000001  0.70544  0.37162  1.0000
  C   C51       1.0  0.9070800000000001  0.9958899999999998  0.42431  1.0000
  C   C52       1.0  0.03213999999999998  0.96476  0.37248  1.0000
  C   C53       1.0  0.13035000000000008  0.7932099999999999  0.44285  1.0000
  C   C54       1.0  0.010640000000000132  0.8169099999999999  0.49799  1.0000
  C   C55       1.0  0.8961500000000002  0.9205199999999999  0.48972999999999994  1.0000
  C   C56       1.0  0.5880500000000001  0.28023999999999993  0.41348  1.0000
  C   C57       1.0  0.54156  0.3954499999999999  0.45703  1.0000
  C   C58       1.0  0.4093100000000001  0.46571  0.49635  1.0000
  C   C59       1.0  0.3683600000000003  0.56876  0.53916  1.0000
  C   C60       1.0  0.6747800000000002  0.16607  0.45241  1.0000
  C   C61       1.0  0.59267  0.84639  0.1738  1.0000
  C   C62       1.0  0.49948999999999993  0.82268  0.16012  1.0000
  C   C63       1.0  0.3279000000000001  0.9823699999999997  0.23849  1.0000
  C   C64       1.0  0.41219000000000006  0.010760000000000002  0.25756  1.0000
  C   C65       1.0  0.5469400000000001  0.94308  0.22423  1.0000
  C   C66       1.0  0.96704  0.69059  0.09277  1.0000
  C   C67       1.0  0.9833700000000002  0.59288  0.04515  1.0000
  C   C68       1.0  0.96662  0.49083  0.08076  1.0000
  C   C69       1.0  0.017599999999999918  0.59993  0.9636000000000001  1.0000
  C   C70       1.0  0.82962  0.7856299999999999  0.13744  1.0000
  C   C71       1.0  0.32907000000000003  0.50495  0.07312  1.0000
  C   C72       1.0  0.3772500000000002  0.53404  0.12306999999999998  1.0000
  C   C73       1.0  0.37049999999999994  0.70659  0.05314  1.0000
  C   C74       1.0  0.3236300000000001  0.68482  0.99974  1.0000
  C   C75       1.0  0.30374000000000007  0.58148  0.00862  1.0000
  C   C76       1.0  0.28322  0.22029999999999997  0.08564  1.0000
  C   C77       1.0  0.39514  0.10535  0.04224  1.0000
  C   C78       1.0  0.37223  0.03586  0.00164  1.0000
  C   C79       1.0  0.47585000000000005  0.93188  0.9597599999999998  1.0000
  C   C80       1.0  0.2922400000000001  0.33518  0.04653  1.0000
  N   N1        1.0  0.5533100000000002  0.39335  0.68928  1.0000
  N   N2        1.0  0.37125  0.27319  0.6338  1.0000
  N   N3        1.0  0.85825  0.13273  0.6188  1.0000
  N   N4        1.0  0.19901999999999997  0.89875  0.59394  1.0000
  N   N5        1.0  0.6298199999999999  0.10995000000000003  0.80975  1.0000
  N   N6        1.0  0.2741799999999999  0.22825  0.86417  1.0000
  N   N7        1.0  0.6003600000000001  0.3692500000000001  0.88653  1.0000
  N   N8        1.0  0.6913199999999999  0.59944  0.9076  1.0000
  N   N9        1.0  0.44669000000000003  0.60665  0.31072  1.0000
  N   N10       1.0  0.62874  0.72682  0.3662  1.0000
  N   N11       1.0  0.1417500000000001  0.8672599999999999  0.3812  1.0000
  N   N12       1.0  0.80098  0.10125  0.40605  1.0000
  N   N13       1.0  0.37018  0.89005  0.19025  1.0000
  N   N14       1.0  0.72582  0.77176  0.13583  1.0000
  N   N15       1.0  0.39962999999999993  0.63075  0.11347  1.0000
  N   N16       1.0  0.30867000000000017  0.40055999999999997  0.09239  1.0000
  O   O1        1.0  0.14761  0.3862  0.65584  1.0000
  O   O2        1.0  0.36468000000000017  0.86408  0.47984000000000004  1.0000
  O   O3        1.0  0.18093  0.132  0.82639  1.0000
  O   O4        1.0  0.7119400000000001  0.6350099999999999  0.02119  1.0000
  O   O5        1.0  0.85238  0.6138  0.34416  1.0000
  O   O6        1.0  0.6353200000000002  0.13591999999999999  0.52014  1.0000
  O   O7        1.0  0.8190600000000002  0.86803  0.1736  1.0000
  O   O8        1.0  0.28807000000000005  0.36498999999999987  0.9788000000000001  1.0000
