data_image0
_chemical_formula_structural       Zn2H80C64N16
_chemical_formula_sum              "Zn2 H80 C64 N16"
_cell_length_a       13.95725
_cell_length_b       11.684709999999999
_cell_length_c       15.923669999999998
_cell_angle_alpha    75.31641
_cell_angle_beta     64.75833
_cell_angle_gamma    53.48403

_symmetry_space_group_name_H-M    'P 1'
_symmetry_Int_Tables_number       1

loop_
  _symmetry_equiv_pos_as_xyz
  'x,y,z'

loop_
  _atom_site_type_symbol
  _atom_site_label
  _atom_site_symmetry_multiplicity
  _atom_site_fract_x
  _atom_site_fract_y
  _atom_site_fract_z
  _atom_site_occupancy
  Zn  Zn1       1.0  0.62432  0.74945  0.75088  1.0000
  Zn  Zn2       1.0  0.3756799999999999  0.25055  0.24912000000000006  1.0000
  H   H1        1.0  0.7438399999999998  0.67809  0.9052900000000002  1.0000
  H   H2        1.0  0.68814  0.35225  0.06734  1.0000
  H   H3        1.0  0.61581  0.34918  0.9479200000000002  1.0000
  H   H4        1.0  0.6270799999999999  0.49811999999999995  0.80617  1.0000
  H   H5        1.0  0.6884299999999999  0.61778  0.10956  1.0000
  H   H6        1.0  0.7881799999999999  0.42924  0.10825  1.0000
  H   H7        1.0  0.81464  0.67411  0.11886  1.0000
  H   H8        1.0  0.9221200000000002  0.48986  0.13821  1.0000
  H   H9        1.0  0.017609999999999938  0.31862  0.01493  1.0000
  H   H10       1.0  0.9678099999999998  0.38488  0.9172500000000001  1.0000
  H   H11       1.0  0.35386999999999996  0.8195  0.90283  1.0000
  H   H12       1.0  0.24502  0.1494  0.0652  1.0000
  H   H13       1.0  0.43488  0.15235  0.94755  1.0000
  H   H14       1.0  0.5644199999999998  0.0024  0.8059900000000002  1.0000
  H   H15       1.0  0.2092400000000002  0.87954  0.10586  1.0000
  H   H16       1.0  0.10946000000000002  0.06786  0.10659  1.0000
  H   H17       1.0  0.0726  0.82448  0.11722000000000003  1.0000
  H   H18       1.0  0.9474699999999998  0.0092  0.13784  1.0000
  H   H19       1.0  0.97089  0.1803  0.013740000000000004  1.0000
  H   H20       1.0  0.11371999999999993  0.1133  0.9144800000000001  1.0000
  H   H21       1.0  0.5764  0.67882  0.59586  1.0000
  H   H22       1.0  0.9577799999999995  0.35514  0.43351  1.0000
  H   H23       1.0  0.031880000000000006  0.35174  0.55415  1.0000
  H   H24       1.0  0.8709799999999999  0.49878  0.69657  1.0000
  H   H25       1.0  0.69291  0.61927  0.39157  1.0000
  H   H26       1.0  0.78167  0.4308699999999999  0.39232  1.0000
  H   H27       1.0  0.5102500000000001  0.67647  0.3829  1.0000
  H   H28       1.0  0.58751  0.49256  0.36173  1.0000
  H   H29       1.0  0.66397  0.3191  0.48394  1.0000
  H   H30       1.0  0.64717  0.38411  0.58254  1.0000
  H   H31       1.0  0.8274100000000001  0.81826  0.59815  1.0000
  H   H32       1.0  0.6087799999999995  0.14493  0.4342700000000001  1.0000
  H   H33       1.0  0.4147100000000001  0.15214  0.55368  1.0000
  H   H34       1.0  0.43405  0.00434  0.69606  1.0000
  H   H35       1.0  0.9127  0.87694  0.39435  1.0000
  H   H36       1.0  0.8238199999999997  0.0652  0.39340000000000014  1.0000
  H   H37       1.0  0.1034  0.82215  0.38395  1.0000
  H   H38       1.0  0.045349999999999994  0.00643  0.36201  1.0000
  H   H39       1.0  0.8507200000000001  0.17983  0.48447  1.0000
  H   H40       1.0  0.77284  0.11495  0.58404  1.0000
  H   H41       1.0  0.25616  0.32191  0.09471000000000003  1.0000
  H   H42       1.0  0.31187000000000004  0.64775  0.93266  1.0000
  H   H43       1.0  0.3842  0.65081  0.05207  1.0000
  H   H44       1.0  0.37292  0.50188  0.19383000000000003  1.0000
  H   H45       1.0  0.31158000000000025  0.38221  0.89044  1.0000
  H   H46       1.0  0.2118200000000001  0.57076  0.89175  1.0000
  H   H47       1.0  0.18536000000000002  0.32588  0.8811400000000001  1.0000
  H   H48       1.0  0.07788000000000007  0.51013  0.86179  1.0000
  H   H49       1.0  0.9823900000000002  0.68138  0.98507  1.0000
  H   H50       1.0  0.03219  0.61512  0.08275  1.0000
  H   H51       1.0  0.6461399999999999  0.1805  0.09717000000000002  1.0000
  H   H52       1.0  0.75499  0.8506  0.9348  1.0000
  H   H53       1.0  0.5651199999999997  0.84764  0.05245  1.0000
  H   H54       1.0  0.43558  0.99759  0.194  1.0000
  H   H55       1.0  0.7907699999999999  0.12046  0.89414  1.0000
  H   H56       1.0  0.8905400000000001  0.93213  0.89341  1.0000
  H   H57       1.0  0.92741  0.17552  0.88278  1.0000
  H   H58       1.0  0.052530000000000056  0.9907999999999999  0.86216  1.0000
  H   H59       1.0  0.029119999999999955  0.81969  0.98626  1.0000
  H   H60       1.0  0.8862899999999999  0.8866900000000001  0.08552  1.0000
  H   H61       1.0  0.4235999999999999  0.32118  0.40414  1.0000
  H   H62       1.0  0.042220000000000035  0.64485  0.56649  1.0000
  H   H63       1.0  0.9681299999999999  0.64825  0.44586  1.0000
  H   H64       1.0  0.12901999999999994  0.50121  0.30343  1.0000
  H   H65       1.0  0.3070999999999998  0.38073  0.6084300000000002  1.0000
  H   H66       1.0  0.21833000000000002  0.56913  0.60768  1.0000
  H   H67       1.0  0.4897599999999999  0.32352  0.6171  1.0000
  H   H68       1.0  0.4124899999999999  0.50744  0.6382700000000001  1.0000
  H   H69       1.0  0.33604  0.68089  0.51606  1.0000
  H   H70       1.0  0.35283  0.61589  0.41746  1.0000
  H   H71       1.0  0.17258999999999994  0.18173  0.40185000000000004  1.0000
  H   H72       1.0  0.3912299999999998  0.8550700000000001  0.56573  1.0000
  H   H73       1.0  0.5852900000000001  0.84786  0.44633  1.0000
  H   H74       1.0  0.5659499999999997  0.99566  0.30394  1.0000
  H   H75       1.0  0.0873  0.12305  0.60565  1.0000
  H   H76       1.0  0.17617999999999992  0.9347899999999999  0.6066  1.0000
  H   H77       1.0  0.8966  0.17784  0.61605  1.0000
  H   H78       1.0  0.9546499999999997  0.99356  0.63799  1.0000
  H   H79       1.0  0.14928000000000005  0.82016  0.51553  1.0000
  H   H80       1.0  0.22715999999999997  0.8850400000000002  0.41596  1.0000
  C   C1        1.0  0.7156299999999999  0.60477  0.91674  1.0000
  C   C2        1.0  0.71928  0.51906  0.99507  1.0000
  C   C3        1.0  0.6827999999999997  0.42395  0.00818  1.0000
  C   C4        1.0  0.6466899999999999  0.41896  0.93984  1.0000
  C   C5        1.0  0.6492700000000001  0.50408  0.86206  1.0000
  C   C6        1.0  0.76533  0.52507  0.06341  1.0000
  C   C7        1.0  0.90004  0.57329  0.08421  1.0000
  C   C8        1.0  0.98887  0.40966  0.96674  1.0000
  C   C9        1.0  0.36918999999999985  0.8942500000000001  0.91451  1.0000
  C   C10       1.0  0.28740000000000004  0.98099  0.9924000000000002  1.0000
  C   C11       1.0  0.30921999999999994  0.07758  0.00601  1.0000
  C   C12       1.0  0.41233999999999993  0.08253  0.93871  1.0000
  C   C13       1.0  0.48740000000000006  0.99657  0.8612100000000001  1.0000
  C   C14       1.0  0.17587999999999998  0.9731500000000001  0.06067  1.0000
  C   C15       1.0  0.02016  0.92597  0.08344  1.0000
  C   C16       1.0  0.04461999999999996  0.08926  0.96534  1.0000
  C   C17       1.0  0.67761  0.60593  0.58466  1.0000
  C   C18       1.0  0.7600599999999996  0.52042  0.50621  1.0000
  C   C19       1.0  0.89118  0.42569  0.49327000000000004  1.0000
  C   C20       1.0  0.9315099999999998  0.42069  0.5621400000000001  1.0000
  C   C21       1.0  0.8435299999999996  0.50515  0.64017  1.0000
  C   C22       1.0  0.7086499999999999  0.52637  0.4375  1.0000
  C   C23       1.0  0.5260700000000001  0.57492  0.4165  1.0000
  C   C24       1.0  0.6014799999999999  0.40931  0.53292  1.0000
  C   C25       1.0  0.7376300000000001  0.8927499999999999  0.58643  1.0000
  C   C26       1.0  0.7332799999999999  0.9781100000000001  0.50789  1.0000
  C   C27       1.0  0.61555  0.07429  0.49402  1.0000
  C   C28       1.0  0.5070199999999999  0.08118  0.56211  1.0000
  C   C29       1.0  0.51726  0.99685  0.6403000000000001  1.0000
  C   C30       1.0  0.8522600000000001  0.97076  0.43944  1.0000
  C   C31       1.0  0.05461999999999995  0.92425  0.41702000000000006  1.0000
  C   C32       1.0  0.8664599999999999  0.08986  0.53368  1.0000
  C   C33       1.0  0.28437  0.39523  0.08326  1.0000
  C   C34       1.0  0.28073  0.48094000000000003  0.004930000000000001  1.0000
  C   C35       1.0  0.3171999999999999  0.57605  0.99182  1.0000
  C   C36       1.0  0.3533200000000001  0.58103  0.06016000000000001  1.0000
  C   C37       1.0  0.35074  0.49592  0.13794  1.0000
  C   C38       1.0  0.23466999999999993  0.47492000000000006  0.93659  1.0000
  C   C39       1.0  0.09995999999999988  0.4267  0.9157900000000002  1.0000
  C   C40       1.0  0.011139999999999971  0.59034  0.03326  1.0000
  C   C41       1.0  0.63081  0.10574  0.08549  1.0000
  C   C42       1.0  0.71261  0.019  0.007600000000000001  1.0000
  C   C43       1.0  0.69079  0.9224100000000001  0.99399  1.0000
  C   C44       1.0  0.58766  0.9174700000000001  0.06129  1.0000
  C   C45       1.0  0.5126099999999998  0.00343  0.13879  1.0000
  C   C46       1.0  0.82413  0.026840000000000003  0.93933  1.0000
  C   C47       1.0  0.9798399999999999  0.07402  0.91656  1.0000
  C   C48       1.0  0.9553899999999996  0.9107300000000002  0.03466  1.0000
  C   C49       1.0  0.32239  0.39407  0.41534  1.0000
  C   C50       1.0  0.23994999999999997  0.47958  0.49379  1.0000
  C   C51       1.0  0.10882000000000006  0.5743  0.50673  1.0000
  C   C52       1.0  0.06848999999999991  0.5793  0.43786  1.0000
  C   C53       1.0  0.15648  0.49484  0.35984  1.0000
  C   C54       1.0  0.29136  0.47362  0.5625  1.0000
  C   C55       1.0  0.4739399999999999  0.42507  0.58349  1.0000
  C   C56       1.0  0.3985299999999998  0.59068  0.46708000000000005  1.0000
  C   C57       1.0  0.2623799999999999  0.10725000000000001  0.4135700000000001  1.0000
  C   C58       1.0  0.26672  0.02188  0.49211  1.0000
  C   C59       1.0  0.38445999999999997  0.9257100000000001  0.50598  1.0000
  C   C60       1.0  0.49298000000000003  0.91882  0.4379  1.0000
  C   C61       1.0  0.48274999999999996  0.00314  0.35971  1.0000
  C   C62       1.0  0.14773999999999998  0.02923  0.56056  1.0000
  C   C63       1.0  0.9453800000000001  0.07575  0.58298  1.0000
  C   C64       1.0  0.13354  0.91013  0.46632  1.0000
  N   N1        1.0  0.6834899999999999  0.59836  0.84863  1.0000
  N   N2        1.0  0.87364  0.53963  0.01735  1.0000
  N   N3        1.0  0.4678900000000001  0.90107  0.84717  1.0000
  N   N4        1.0  0.11157000000000006  0.9588799999999998  0.01524  1.0000
  N   N5        1.0  0.7154499999999997  0.59923  0.65333  1.0000
  N   N6        1.0  0.5861799999999996  0.54023  0.48341  1.0000
  N   N7        1.0  0.63176  0.90104  0.65437  1.0000
  N   N8        1.0  0.9299499999999998  0.95826  0.4848600000000001  1.0000
  N   N9        1.0  0.31652  0.40163  0.15137  1.0000
  N   N10       1.0  0.12636999999999984  0.46036000000000005  0.9826500000000002  1.0000
  N   N11       1.0  0.5321099999999997  0.09892  0.15283  1.0000
  N   N12       1.0  0.8884399999999999  0.04111000000000001  0.9847600000000002  1.0000
  N   N13       1.0  0.2845599999999999  0.40076  0.3466700000000001  1.0000
  N   N14       1.0  0.41383  0.45977  0.51659  1.0000
  N   N15       1.0  0.36823999999999996  0.09895  0.34563  1.0000
  N   N16       1.0  0.07006  0.04174  0.51514  1.0000
