data_image0
_chemical_formula_structural       Ag8H64C64N32
_chemical_formula_sum              "Ag8 H64 C64 N32"
_cell_length_a       12.50501
_cell_length_b       12.62854
_cell_length_c       15.461760000000002
_cell_angle_alpha    89.9906
_cell_angle_beta     89.9991
_cell_angle_gamma    115.76

_space_group_name_H-M_alt    "P 1"
_space_group_IT_number       1

loop_
  _space_group_symop_operation_xyz
  'x, y, z'

loop_
  _atom_site_type_symbol
  _atom_site_label
  _atom_site_symmetry_multiplicity
  _atom_site_fract_x
  _atom_site_fract_y
  _atom_site_fract_z
  _atom_site_occupancy
  Ag  Ag1       1.0  0.49951  0.21344  0.4732300000000001  1.0000
  Ag  Ag2       1.0  0.15392999999999996  0.87439  0.22539  1.0000
  Ag  Ag3       1.0  0.21342999999999993  0.4930899999999999  0.469  1.0000
  Ag  Ag4       1.0  0.87442  0.15182  0.22264000000000006  1.0000
  Ag  Ag5       1.0  0.50067  0.78654  0.9729700000000002  1.0000
  Ag  Ag6       1.0  0.84644  0.1257  0.72501  1.0000
  Ag  Ag7       1.0  0.7866499999999998  0.50675  0.96924  1.0000
  Ag  Ag8       1.0  0.12575000000000006  0.8481000000000001  0.7228400000000003  1.0000
  H   H1        1.0  0.53112  0.36217000000000005  0.2830900000000001  1.0000
  H   H2        1.0  0.43468  0.32033  0.13637  1.0000
  H   H3        1.0  0.24799  0.13191  0.11693  1.0000
  H   H4        1.0  0.28371  0.03561  0.3700400000000001  1.0000
  H   H5        1.0  0.6202400000000001  0.08776  0.57858  1.0000
  H   H6        1.0  0.76617  0.0033600000000000006  0.55642  1.0000
  H   H7        1.0  0.88367  0.05119  0.4161300000000001  1.0000
  H   H8        1.0  0.70857  0.24967  0.33722  1.0000
  H   H9        1.0  0.51467  0.31095  0.6736100000000003  1.0000
  H   H10       1.0  0.87273  0.67277  0.3158100000000001  1.0000
  H   H11       1.0  0.52055  0.06377  0.9361900000000002  1.0000
  H   H12       1.0  0.54993  0.22851999999999997  0.04119000000000001  1.0000
  H   H13       1.0  0.68362  0.25437  0.16912000000000005  1.0000
  H   H14       1.0  0.72998  0.96124  0.09264  1.0000
  H   H15       1.0  0.067  0.52139  0.9404000000000002  1.0000
  H   H16       1.0  0.23007999999999998  0.54896  0.048450000000000014  1.0000
  H   H17       1.0  0.25477  0.68274  0.17487  1.0000
  H   H18       1.0  0.9605  0.729  0.09407000000000003  1.0000
  H   H19       1.0  0.36133  0.53385  0.2769000000000001  1.0000
  H   H20       1.0  0.32296  0.43385999999999997  0.13194000000000006  1.0000
  H   H21       1.0  0.13570000000000002  0.24480000000000002  0.11406  1.0000
  H   H22       1.0  0.035559999999999974  0.283  0.3656  1.0000
  H   H23       1.0  0.09073000000000002  0.61477  0.5783100000000002  1.0000
  H   H24       1.0  0.99941  0.7543  0.55563  1.0000
  H   H25       1.0  0.04660000000000004  0.8714900000000001  0.41561  1.0000
  H   H26       1.0  0.25016  0.70185  0.33577  1.0000
  H   H27       1.0  0.30887  0.51298  0.66867  1.0000
  H   H28       1.0  0.66821  0.8754999999999998  0.31198  1.0000
  H   H29       1.0  0.43963  0.44183999999999996  0.7516  1.0000
  H   H30       1.0  0.33549  0.33063  0.4510900000000001  1.0000
  H   H31       1.0  0.6958  0.70153  0.37041000000000013  1.0000
  H   H32       1.0  0.9750700000000001  0.9737200000000001  0.16570000000000004  1.0000
  H   H33       1.0  0.47950000000000004  0.9362800000000001  0.4362400000000001  1.0000
  H   H34       1.0  0.4502  0.77146  0.5412200000000003  1.0000
  H   H35       1.0  0.31616000000000005  0.7451500000000001  0.6689800000000002  1.0000
  H   H36       1.0  0.26973  0.03838  0.5926  1.0000
  H   H37       1.0  0.46888  0.63785  0.7828000000000003  1.0000
  H   H38       1.0  0.56543  0.67982  0.6360800000000002  1.0000
  H   H39       1.0  0.7522899999999999  0.8681299999999998  0.61679  1.0000
  H   H40       1.0  0.71601  0.96449  0.86977  1.0000
  H   H41       1.0  0.3798099999999999  0.91221  0.07896  1.0000
  H   H42       1.0  0.23387  0.9966  0.056910000000000016  1.0000
  H   H43       1.0  0.11650999999999997  0.9490500000000001  0.9165200000000002  1.0000
  H   H44       1.0  0.29108  0.7501  0.8377000000000002  1.0000
  H   H45       1.0  0.4852699999999999  0.68946  0.17319  1.0000
  H   H46       1.0  0.12717  0.32711  0.81519  1.0000
  H   H47       1.0  0.63865  0.46645  0.7771600000000002  1.0000
  H   H48       1.0  0.6772299999999999  0.56628  0.63213  1.0000
  H   H49       1.0  0.8645999999999999  0.75522  0.6141800000000002  1.0000
  H   H50       1.0  0.9644899999999998  0.7171900000000001  0.8658500000000002  1.0000
  H   H51       1.0  0.90911  0.38509  0.07808  1.0000
  H   H52       1.0  0.0007300000000000007  0.24587  0.05562000000000002  1.0000
  H   H53       1.0  0.9534299999999998  0.12824  0.9157500000000002  1.0000
  H   H54       1.0  0.74989  0.29771  0.8354900000000002  1.0000
  H   H55       1.0  0.69086  0.48718  0.16941  1.0000
  H   H56       1.0  0.33165  0.12437  0.8118500000000002  1.0000
  H   H57       1.0  0.9329399999999998  0.47888  0.4397800000000001  1.0000
  H   H58       1.0  0.76998  0.45116  0.54801  1.0000
  H   H59       1.0  0.7451  0.31679  0.67409  1.0000
  H   H60       1.0  0.03918  0.27045  0.59283  1.0000
  H   H61       1.0  0.56007  0.55885  0.2518  1.0000
  H   H62       1.0  0.66481  0.66878  0.95114  1.0000
  H   H63       1.0  0.30393  0.29833  0.8701100000000003  1.0000
  H   H64       1.0  0.02541  0.026420000000000003  0.66495  1.0000
  C   C1        1.0  0.45274  0.28126  0.26934000000000013  1.0000
  C   C2        1.0  0.39928  0.25708  0.18878  1.0000
  C   C3        1.0  0.29638  0.15333  0.17745000000000005  1.0000
  C   C4        1.0  0.31415999999999994  0.10062  0.31823  1.0000
  C   C5        1.0  0.67076  0.10231  0.51909  1.0000
  C   C6        1.0  0.75309  0.056870000000000004  0.50635  1.0000
  C   C7        1.0  0.818  0.08373  0.4301000000000001  1.0000
  C   C8        1.0  0.72207  0.19452  0.3862100000000001  1.0000
  C   C9        1.0  0.45749  0.34431  0.64261  1.0000
  C   C10       1.0  0.85453  0.74513  0.29393  1.0000
  C   C11       1.0  0.57253  0.07752  0.99496  1.0000
  C   C12       1.0  0.5906499999999999  0.16903  0.052030000000000014  1.0000
  C   C13       1.0  0.6646699999999998  0.18412000000000003  0.12249000000000003  1.0000
  C   C14       1.0  0.69116  0.02195  0.07927000000000002  1.0000
  C   C15       1.0  0.07953  0.57279  0.9990200000000001  1.0000
  C   C16       1.0  0.17054999999999998  0.59026  0.05757000000000002  1.0000
  C   C17       1.0  0.18464999999999998  0.66393  0.12747  1.0000
  C   C18       1.0  0.022139999999999996  0.69061  0.08181000000000002  1.0000
  C   C19       1.0  0.28171  0.45365  0.26406  1.0000
  C   C20       1.0  0.25911  0.39835  0.18435000000000007  1.0000
  C   C21       1.0  0.1562  0.29426  0.17392000000000005  1.0000
  C   C22       1.0  0.10123  0.31372  0.3138200000000001  1.0000
  C   C23       1.0  0.10377000000000002  0.66416  0.5186600000000001  1.0000
  C   C24       1.0  0.055189999999999996  0.74359  0.50587  1.0000
  C   C25       1.0  0.08100999999999994  0.80765  0.42959000000000014  1.0000
  C   C26       1.0  0.19488999999999995  0.7151099999999999  0.38514  1.0000
  C   C27       1.0  0.34389  0.45601  0.6399200000000003  1.0000
  C   C28       1.0  0.74158  0.8569100000000001  0.2916900000000001  1.0000
  C   C29       1.0  0.41601  0.41655  0.68457  1.0000
  C   C30       1.0  0.3586  0.35544  0.51854  1.0000
  C   C31       1.0  0.75787  0.76193  0.3239  1.0000
  C   C32       1.0  0.9110599999999998  0.91126  0.21044000000000004  1.0000
  C   C33       1.0  0.42742  0.92241  0.49495000000000006  1.0000
  C   C34       1.0  0.40938  0.83086  0.5520400000000002  1.0000
  C   C35       1.0  0.33526  0.81561  0.62244  1.0000
  C   C36       1.0  0.3087300000000001  0.9778200000000001  0.5792000000000003  1.0000
  C   C37       1.0  0.54715  0.71884  0.76905  1.0000
  C   C38       1.0  0.6007599999999998  0.7430099999999998  0.6885000000000002  1.0000
  C   C39       1.0  0.70372  0.84676  0.6772500000000002  1.0000
  C   C40       1.0  0.68563  0.8994999999999999  0.81795  1.0000
  C   C41       1.0  0.32928  0.89771  0.019480000000000008  1.0000
  C   C42       1.0  0.24689000000000003  0.9431000000000002  0.006780000000000001  1.0000
  C   C43       1.0  0.182  0.9163000000000001  0.9305500000000002  1.0000
  C   C44       1.0  0.27768000000000004  0.8053400000000001  0.88664  1.0000
  C   C45       1.0  0.54244  0.65589  0.14242000000000005  1.0000
  C   C46       1.0  0.14549  0.25485  0.7933100000000002  1.0000
  C   C47       1.0  0.71833  0.54654  0.76431  1.0000
  C   C48       1.0  0.7410099999999998  0.60178  0.6845400000000003  1.0000
  C   C49       1.0  0.8439899999999999  0.70584  0.67409  1.0000
  C   C50       1.0  0.8988599999999998  0.68646  0.8140500000000003  1.0000
  C   C51       1.0  0.89614  0.33562  0.018490000000000006  1.0000
  C   C52       1.0  0.9448899999999998  0.25634  0.005780000000000002  1.0000
  C   C53       1.0  0.91919  0.19223  0.9295200000000002  1.0000
  C   C54       1.0  0.8052  0.28455  0.88488  1.0000
  C   C55       1.0  0.656  0.54412  0.14037  1.0000
  C   C56       1.0  0.25837  0.143  0.7914200000000002  1.0000
  C   C57       1.0  0.92043  0.42731  0.4983300000000001  1.0000
  C   C58       1.0  0.8294699999999999  0.40978999999999993  0.55696  1.0000
  C   C59       1.0  0.8153299999999999  0.33583  0.62673  1.0000
  C   C60       1.0  0.97766  0.30905  0.58079  1.0000
  C   C61       1.0  0.58384  0.58383  0.18473  1.0000
  C   C62       1.0  0.64153  0.64423  0.01863  1.0000
  C   C63       1.0  0.24201  0.23799  0.8235  1.0000
  C   C64       1.0  0.08925  0.08878  0.7098000000000002  1.0000
  N   N1        1.0  0.40646  0.2028  0.33699  1.0000
  N   N2        1.0  0.25658  0.06893  0.24211000000000005  1.0000
  N   N3        1.0  0.65557  0.17365  0.4582200000000001  1.0000
  N   N4        1.0  0.80246  0.15413  0.36856  1.0000
  N   N5        1.0  0.42851  0.31354  0.5569100000000002  1.0000
  N   N6        1.0  0.9336799999999998  0.82191  0.23611000000000004  1.0000
  N   N7        1.0  0.6227  0.00169  0.00879  1.0000
  N   N8        1.0  0.7169  0.10992999999999999  0.13632000000000005  1.0000
  N   N9        1.0  0.0030100000000000066  0.62284  0.01154  1.0000
  N   N10       1.0  0.11016999999999998  0.7164699999999999  0.13977000000000006  1.0000
  N   N11       1.0  0.20278999999999997  0.40753  0.33186  1.0000
  N   N12       1.0  0.07067000000000001  0.25484  0.23847  1.0000
  N   N13       1.0  0.17557  0.64988  0.4572500000000001  1.0000
  N   N14       1.0  0.15281999999999998  0.79388  0.36786  1.0000
  N   N15       1.0  0.31477  0.42508  0.55432  1.0000
  N   N16       1.0  0.8199999999999997  0.93403  0.23371000000000006  1.0000
  N   N17       1.0  0.37706999999999996  0.9980999999999999  0.50866  1.0000
  N   N18       1.0  0.2831399999999999  0.88988  0.63631  1.0000
  N   N19       1.0  0.59325  0.79734  0.8366500000000002  1.0000
  N   N20       1.0  0.74341  0.93113  0.74189  1.0000
  N   N21       1.0  0.34435  0.82636  0.9585600000000002  1.0000
  N   N22       1.0  0.19731999999999994  0.8458000000000001  0.8690200000000002  1.0000
  N   N23       1.0  0.57158  0.68631  0.05669000000000001  1.0000
  N   N24       1.0  0.06661  0.17817  0.7353100000000002  1.0000
  N   N25       1.0  0.79727  0.59265  0.83209  1.0000
  N   N26       1.0  0.92943  0.74528  0.73867  1.0000
  N   N27       1.0  0.82428  0.34969  0.9570100000000002  1.0000
  N   N28       1.0  0.84756  0.20599  0.8676100000000002  1.0000
  N   N29       1.0  0.68525  0.57469  0.054730000000000015  1.0000
  N   N30       1.0  0.1801  0.06587  0.73338  1.0000
  N   N31       1.0  0.99676  0.377  0.51059  1.0000
  N   N32       1.0  0.8897799999999999  0.28323  0.63889  1.0000
