data_image0
_chemical_formula_structural       Cu6H48C84O24
_chemical_formula_sum              "Cu6 H48 C84 O24"
_cell_length_a       14.32368
_cell_length_b       19.11824
_cell_length_c       19.141759999999998
_cell_angle_alpha    114.05044
_cell_angle_beta     104.42951
_cell_angle_gamma    104.48633000000001

_symmetry_space_group_name_H-M    'P 1'
_symmetry_Int_Tables_number       1

loop_
  _symmetry_equiv_pos_as_xyz
  'x,y,z'

loop_
  _atom_site_type_symbol
  _atom_site_label
  _atom_site_symmetry_multiplicity
  _atom_site_fract_x
  _atom_site_fract_y
  _atom_site_fract_z
  _atom_site_occupancy
  Cu  Cu1       1.0  0.52396  0.55028  0.97715  1.0000
  Cu  Cu2       1.0  0.9745200000000002  0.42678  0.45017  1.0000
  Cu  Cu3       1.0  0.5474600000000002  0.023040000000000123  0.5730700000000002  1.0000
  Cu  Cu4       1.0  0.47604000000000013  0.44972000000000006  0.02285  1.0000
  Cu  Cu5       1.0  0.025480000000000044  0.57322  0.54983  1.0000
  Cu  Cu6       1.0  0.4525400000000001  0.97696  0.4269300000000001  1.0000
  H   H1        1.0  0.86455  0.16132  0.61946  1.0000
  H   H2        1.0  0.027550000000000064  0.23879000000000006  0.4854100000000001  1.0000
  H   H3        1.0  0.86358  0.15529000000000007  0.35757  1.0000
  H   H4        1.0  0.69844  0.07577000000000006  0.3612700000000001  1.0000
  H   H5        1.0  0.029650000000000044  0.17114000000000004  0.68449  1.0000
  H   H6        1.0  0.19142000000000015  0.26049000000000017  0.8153500000000002  1.0000
  H   H7        1.0  0.26832  0.44411  0.74138  1.0000
  H   H8        1.0  0.10499000000000007  0.3572900000000001  0.61209  1.0000
  H   H9        1.0  0.7033000000000004  0.4592500000000001  0.83848  1.0000
  H   H10       1.0  0.78822  0.2471400000000001  0.7610200000000003  1.0000
  H   H11       1.0  0.7078300000000003  0.20294000000000015  0.8445800000000002  1.0000
  H   H12       1.0  0.62291  0.28683  0.92442  1.0000
  H   H13       1.0  0.8583700000000002  0.5145100000000002  0.8284700000000003  1.0000
  H   H14       1.0  0.9314800000000001  0.55556  0.73925  1.0000
  H   H15       1.0  0.82407  0.29716  0.55637  1.0000
  H   H16       1.0  0.7469600000000004  0.25531  0.6432  1.0000
  H   H17       1.0  0.24516  0.3794800000000001  0.54132  1.0000
  H   H18       1.0  0.5417800000000002  0.5139300000000002  0.75314  1.0000
  H   H19       1.0  0.5058300000000002  0.6421600000000002  0.7976500000000002  1.0000
  H   H20       1.0  0.33755000000000007  0.63844  0.71424  1.0000
  H   H21       1.0  0.34482000000000007  0.31462  0.48627  1.0000
  H   H22       1.0  0.37618000000000007  0.18357000000000004  0.44472  1.0000
  H   H23       1.0  0.5266  0.25821000000000005  0.70224  1.0000
  H   H24       1.0  0.49200000000000005  0.3876300000000001  0.7447500000000002  1.0000
  H   H25       1.0  0.13544000000000012  0.8386900000000003  0.38054  1.0000
  H   H26       1.0  0.9724400000000002  0.7612100000000003  0.51459  1.0000
  H   H27       1.0  0.13641  0.8447199999999999  0.64243  1.0000
  H   H28       1.0  0.30155  0.9242300000000001  0.63873  1.0000
  H   H29       1.0  0.9703500000000004  0.8288600000000003  0.31551  1.0000
  H   H30       1.0  0.8085700000000001  0.7395100000000002  0.18465  1.0000
  H   H31       1.0  0.7316800000000002  0.55589  0.2586200000000001  1.0000
  H   H32       1.0  0.895  0.64271  0.38791  1.0000
  H   H33       1.0  0.2966900000000001  0.54076  0.16152  1.0000
  H   H34       1.0  0.21178  0.75286  0.23898000000000005  1.0000
  H   H35       1.0  0.29216000000000014  0.7970700000000002  0.15542000000000006  1.0000
  H   H36       1.0  0.3770800000000001  0.71317  0.07558000000000002  1.0000
  H   H37       1.0  0.14162000000000005  0.48549000000000003  0.17153000000000004  1.0000
  H   H38       1.0  0.06852000000000001  0.44444  0.26075  1.0000
  H   H39       1.0  0.1759200000000001  0.7028500000000001  0.44363000000000014  1.0000
  H   H40       1.0  0.2530300000000001  0.7446900000000002  0.3568  1.0000
  H   H41       1.0  0.7548300000000002  0.6205200000000001  0.4586800000000001  1.0000
  H   H42       1.0  0.4582100000000001  0.48607  0.24686000000000005  1.0000
  H   H43       1.0  0.49416  0.35785  0.20235  1.0000
  H   H44       1.0  0.66244  0.36157  0.28576  1.0000
  H   H45       1.0  0.6551700000000001  0.68538  0.51373  1.0000
  H   H46       1.0  0.62381  0.81643  0.55528  1.0000
  H   H47       1.0  0.47340000000000004  0.74179  0.29776000000000014  1.0000
  H   H48       1.0  0.508  0.6123799999999999  0.25525  1.0000
  C   C1        1.0  0.67351  0.07012000000000004  0.4942900000000001  1.0000
  C   C2        1.0  0.7727900000000002  0.11366000000000007  0.4906000000000001  1.0000
  C   C3        1.0  0.8661300000000001  0.1596500000000001  0.5623300000000002  1.0000
  C   C4        1.0  0.9588000000000002  0.20591  0.56188  1.0000
  C   C5        1.0  0.9562000000000002  0.20367000000000002  0.48699  1.0000
  C   C6        1.0  0.8637100000000002  0.15666000000000005  0.41496  1.0000
  C   C7        1.0  0.77162  0.11183  0.41632  1.0000
  C   C8        1.0  0.055740000000000046  0.2578000000000001  0.63891  1.0000
  C   C9        1.0  0.08088000000000006  0.23145000000000007  0.69736  1.0000
  C   C10       1.0  0.1715100000000001  0.2807700000000002  0.7702700000000002  1.0000
  C   C11       1.0  0.23969000000000007  0.3575700000000001  0.7862400000000003  1.0000
  C   C12       1.0  0.2154  0.38443  0.72842  1.0000
  C   C13       1.0  0.12436999999999994  0.33511  0.65571  1.0000
  C   C14       1.0  0.3365700000000001  0.41025000000000017  0.86406  1.0000
  C   C15       1.0  0.6036000000000002  0.42521000000000014  0.9296800000000002  1.0000
  C   C16       1.0  0.6593800000000002  0.37809  0.88627  1.0000
  C   C17       1.0  0.7066  0.4037900000000001  0.84027  1.0000
  C   C18       1.0  0.7528700000000002  0.3568600000000001  0.7941000000000003  1.0000
  C   C19       1.0  0.75227  0.28406  0.79627  1.0000
  C   C20       1.0  0.7068600000000002  0.25910000000000016  0.8433000000000003  1.0000
  C   C21       1.0  0.6599400000000001  0.30560000000000004  0.8882200000000002  1.0000
  C   C22       1.0  0.79789  0.38195  0.74228  1.0000
  C   C23       1.0  0.84949  0.46681  0.76841  1.0000
  C   C24       1.0  0.8911  0.49017  0.71915  1.0000
  C   C25       1.0  0.88253  0.4289900000000001  0.64259  1.0000
  C   C26       1.0  0.831  0.34424  0.61588  1.0000
  C   C27       1.0  0.7889900000000003  0.32110000000000016  0.6651400000000002  1.0000
  C   C28       1.0  0.92698  0.45402  0.59002  1.0000
  C   C29       1.0  0.17921000000000015  0.5049100000000001  0.5748600000000003  1.0000
  C   C30       1.0  0.2821200000000001  0.50876  0.62246  1.0000
  C   C31       1.0  0.30365  0.4369  0.59681  1.0000
  C   C32       1.0  0.3966600000000001  0.4374900000000002  0.6437000000000003  1.0000
  C   C33       1.0  0.46900000000000003  0.51249  0.71648  1.0000
  C   C34       1.0  0.4486400000000001  0.58462  0.74151  1.0000
  C   C35       1.0  0.35530000000000006  0.58316  0.6951  1.0000
  C   C36       1.0  0.4163800000000001  0.3603700000000002  0.6184500000000003  1.0000
  C   C37       1.0  0.38318  0.3018  0.53362  1.0000
  C   C38       1.0  0.40105  0.22893000000000002  0.51001  1.0000
  C   C39       1.0  0.45325000000000004  0.2133  0.57095  1.0000
  C   C40       1.0  0.4866300000000001  0.27117  0.65565  1.0000
  C   C41       1.0  0.46809  0.3438000000000001  0.67902  1.0000
  C   C42       1.0  0.47232000000000013  0.13556  0.54573  1.0000
  C   C43       1.0  0.32648  0.9298900000000001  0.50571  1.0000
  C   C44       1.0  0.2272100000000001  0.88635  0.5094000000000002  1.0000
  C   C45       1.0  0.13387000000000013  0.8403500000000003  0.4376700000000001  1.0000
  C   C46       1.0  0.04119  0.7941  0.43812  1.0000
  C   C47       1.0  0.04379000000000011  0.7963400000000003  0.51301  1.0000
  C   C48       1.0  0.13628000000000032  0.8433400000000003  0.5850400000000002  1.0000
  C   C49       1.0  0.22837000000000016  0.8881700000000003  0.5836800000000002  1.0000
  C   C50       1.0  0.94426  0.74221  0.36109  1.0000
  C   C51       1.0  0.9191100000000001  0.7685500000000001  0.30264000000000013  1.0000
  C   C52       1.0  0.8284800000000002  0.7192300000000003  0.22973  1.0000
  C   C53       1.0  0.7603000000000002  0.64244  0.21376  1.0000
  C   C54       1.0  0.78459  0.61557  0.27158  1.0000
  C   C55       1.0  0.8756300000000002  0.66489  0.34429  1.0000
  C   C56       1.0  0.66342  0.58976  0.13594  1.0000
  C   C57       1.0  0.3963900000000001  0.57479  0.07032  1.0000
  C   C58       1.0  0.34061  0.62192  0.11373  1.0000
  C   C59       1.0  0.2934  0.59622  0.15973  1.0000
  C   C60       1.0  0.24713000000000007  0.64314  0.20591  1.0000
  C   C61       1.0  0.2477200000000001  0.7159400000000002  0.20373  1.0000
  C   C62       1.0  0.29314000000000007  0.7409000000000001  0.15670000000000006  1.0000
  C   C63       1.0  0.3400500000000001  0.69441  0.11178  1.0000
  C   C64       1.0  0.20211000000000007  0.61806  0.25772  1.0000
  C   C65       1.0  0.15051  0.5332  0.23159  1.0000
  C   C66       1.0  0.10890000000000007  0.50984  0.28085  1.0000
  C   C67       1.0  0.11746  0.57101  0.35741  1.0000
  C   C68       1.0  0.16899000000000003  0.6557600000000001  0.38412000000000013  1.0000
  C   C69       1.0  0.21100000000000002  0.67891  0.3348600000000001  1.0000
  C   C70       1.0  0.07301000000000005  0.54599  0.40998  1.0000
  C   C71       1.0  0.8207900000000001  0.49510000000000004  0.42514000000000013  1.0000
  C   C72       1.0  0.7178800000000002  0.4912500000000001  0.37754  1.0000
  C   C73       1.0  0.6963400000000001  0.5631  0.40319  1.0000
  C   C74       1.0  0.60334  0.56251  0.3563000000000001  1.0000
  C   C75       1.0  0.53099  0.48752  0.28352  1.0000
  C   C76       1.0  0.55136  0.41539000000000004  0.25849  1.0000
  C   C77       1.0  0.64469  0.41684  0.3049  1.0000
  C   C78       1.0  0.5836200000000001  0.6396300000000003  0.3815500000000001  1.0000
  C   C79       1.0  0.6168100000000002  0.6982  0.46638  1.0000
  C   C80       1.0  0.59894  0.7710699999999999  0.48999  1.0000
  C   C81       1.0  0.54674  0.7867  0.42905  1.0000
  C   C82       1.0  0.51336  0.7288400000000002  0.34435  1.0000
  C   C83       1.0  0.5319  0.6562  0.32098  1.0000
  C   C84       1.0  0.52768  0.86444  0.4542700000000001  1.0000
  O   O1        1.0  0.6791100000000001  0.07589999999999998  0.56455  1.0000
  O   O2        1.0  0.58993  0.03154000000000007  0.4274100000000001  1.0000
  O   O3        1.0  0.3519700000000001  0.38423000000000007  0.9163800000000002  1.0000
  O   O4        1.0  0.39796000000000015  0.4779700000000003  0.8732700000000002  1.0000
  O   O5        1.0  0.60226  0.4893600000000001  0.92351  1.0000
  O   O6        1.0  0.5595300000000001  0.39687000000000017  0.9686400000000002  1.0000
  O   O7        1.0  0.9676500000000001  0.5324300000000001  0.61558  1.0000
  O   O8        1.0  0.9215900000000001  0.39536  0.52286  1.0000
  O   O9        1.0  0.11443000000000003  0.43435000000000007  0.51053  1.0000
  O   O10       1.0  0.16254000000000016  0.5719100000000003  0.60268  1.0000
  O   O11       1.0  0.43494  0.08306000000000005  0.4673500000000001  1.0000
  O   O12       1.0  0.5249000000000003  0.12663000000000016  0.6041600000000003  1.0000
  O   O13       1.0  0.32088  0.9241  0.43545  1.0000
  O   O14       1.0  0.41007000000000027  0.9684700000000004  0.5725900000000003  1.0000
  O   O15       1.0  0.6480300000000002  0.61578  0.08363  1.0000
  O   O16       1.0  0.6020300000000002  0.52204  0.12673000000000006  1.0000
  O   O17       1.0  0.3977400000000001  0.51065  0.07649000000000003  1.0000
  O   O18       1.0  0.4404700000000001  0.60313  0.03136  1.0000
  O   O19       1.0  0.03234000000000003  0.46757000000000004  0.38442  1.0000
  O   O20       1.0  0.07840000000000001  0.60465  0.47714  1.0000
  O   O21       1.0  0.8855600000000002  0.56566  0.48947  1.0000
  O   O22       1.0  0.83746  0.42809000000000014  0.3973300000000001  1.0000
  O   O23       1.0  0.56506  0.9169400000000001  0.5326500000000002  1.0000
  O   O24       1.0  0.47509000000000007  0.87338  0.39584000000000014  1.0000
