data_image0
_chemical_formula_structural       Y8H36C84N12O48
_chemical_formula_sum              "Y8 H36 C84 N12 O48"
_cell_length_a       8.03507
_cell_length_b       16.437179999999998
_cell_length_c       28.35789
_cell_angle_alpha    90.0
_cell_angle_beta     90.0
_cell_angle_gamma    90.01441

_symmetry_space_group_name_H-M    'P 1'
_symmetry_Int_Tables_number       1

loop_
  _symmetry_equiv_pos_as_xyz
  'x,y,z'

loop_
  _atom_site_type_symbol
  _atom_site_label
  _atom_site_symmetry_multiplicity
  _atom_site_fract_x
  _atom_site_fract_y
  _atom_site_fract_z
  _atom_site_occupancy
  Y   Y1        1.0  0.98521  0.78624  0.5828200000000002  1.0000
  Y   Y2        1.0  0.51469  0.28622999999999993  0.41716000000000003  1.0000
  Y   Y3        1.0  0.01479  0.21376  0.08282  1.0000
  Y   Y4        1.0  0.48531  0.71377  0.91716  1.0000
  Y   Y5        1.0  0.01479  0.21376  0.41718  1.0000
  Y   Y6        1.0  0.48531  0.71377  0.58284  1.0000
  Y   Y7        1.0  0.98521  0.78624  0.9171800000000002  1.0000
  Y   Y8        1.0  0.51469  0.28622999999999993  0.08284000000000002  1.0000
  H   H1        1.0  0.8832500000000002  0.45998  0.39517  1.0000
  H   H2        1.0  0.31257  0.52405  0.4783900000000001  1.0000
  H   H3        1.0  0.88769  0.68256  0.46389000000000014  1.0000
  H   H4        1.0  0.33435  0.5867599999999998  0.6771500000000003  1.0000
  H   H5        1.0  0.6167000000000002  0.95993  0.6048500000000002  1.0000
  H   H6        1.0  0.18746  0.024149999999999994  0.52165  1.0000
  H   H7        1.0  0.61261  0.18255  0.53615  1.0000
  H   H8        1.0  0.16566  0.08677  0.32285  1.0000
  H   H9        1.0  0.11675  0.54002  0.89517  1.0000
  H   H10       1.0  0.68744  0.4759499999999999  0.97839  1.0000
  H   H11       1.0  0.11231  0.31744999999999995  0.96389  1.0000
  H   H12       1.0  0.66566  0.41324  0.17715  1.0000
  H   H13       1.0  0.38331  0.04007  0.10485000000000003  1.0000
  H   H14       1.0  0.8125500000000002  0.97585  0.02165  1.0000
  H   H15       1.0  0.3874  0.81745  0.03615  1.0000
  H   H16       1.0  0.83434  0.91323  0.8228500000000002  1.0000
  H   H17       1.0  0.11675  0.54002  0.60483  1.0000
  H   H18       1.0  0.68744  0.4759499999999999  0.52161  1.0000
  H   H19       1.0  0.11231  0.31744999999999995  0.53611  1.0000
  H   H20       1.0  0.66566  0.41324  0.32285  1.0000
  H   H21       1.0  0.38331  0.04007  0.39515000000000006  1.0000
  H   H22       1.0  0.8125500000000002  0.97585  0.47835  1.0000
  H   H23       1.0  0.3874  0.81745  0.4638500000000001  1.0000
  H   H24       1.0  0.83434  0.91323  0.6771500000000003  1.0000
  H   H25       1.0  0.8832500000000002  0.45998  0.10483  1.0000
  H   H26       1.0  0.31257  0.52405  0.021610000000000004  1.0000
  H   H27       1.0  0.88769  0.68256  0.03611000000000002  1.0000
  H   H28       1.0  0.33435  0.5867599999999998  0.8228500000000002  1.0000
  H   H29       1.0  0.6167000000000002  0.95993  0.8951500000000002  1.0000
  H   H30       1.0  0.18746  0.024149999999999994  0.9783500000000002  1.0000
  H   H31       1.0  0.61261  0.18255  0.96385  1.0000
  H   H32       1.0  0.16566  0.08677  0.17715  1.0000
  H   H33       1.0  0.10574  0.78825  0.7500000000000002  1.0000
  H   H34       1.0  0.39433  0.28829  0.25  1.0000
  H   H35       1.0  0.89427  0.21176  0.25  1.0000
  H   H36       1.0  0.60567  0.71171  0.7500000000000002  1.0000
  C   C1        1.0  0.9501300000000003  0.50326  0.4173000000000001  1.0000
  C   C2        1.0  0.10949  0.48299  0.4341000000000001  1.0000
  C   C3        1.0  0.19087  0.53803  0.4636500000000001  1.0000
  C   C4        1.0  0.10988  0.61067  0.47529  1.0000
  C   C5        1.0  0.9525  0.6260499999999999  0.4555300000000001  1.0000
  C   C6        1.0  0.18467  0.66742  0.51039  1.0000
  C   C7        1.0  0.18486  0.40249  0.4224700000000001  1.0000
  C   C8        1.0  0.29976  0.61774  0.70965  1.0000
  C   C9        1.0  0.21656  0.69284  0.7077  1.0000
  C   C10       1.0  0.17223000000000005  0.73105  0.6621100000000002  1.0000
  C   C11       1.0  0.54999  0.003229999999999999  0.5827  1.0000
  C   C12       1.0  0.39061  0.98296  0.5659000000000001  1.0000
  C   C13       1.0  0.3092000000000001  0.03805  0.5364100000000002  1.0000
  C   C14       1.0  0.39008  0.11074999999999999  0.52481  1.0000
  C   C15       1.0  0.54766  0.12607  0.54451  1.0000
  C   C16       1.0  0.31483  0.16755  0.48979000000000006  1.0000
  C   C17       1.0  0.31527  0.90244  0.57752  1.0000
  C   C18       1.0  0.20023  0.11773  0.29034  1.0000
  C   C19       1.0  0.28341  0.19285  0.29230000000000006  1.0000
  C   C20       1.0  0.32776  0.23101  0.33789000000000013  1.0000
  C   C21       1.0  0.049880000000000015  0.49674000000000007  0.9173  1.0000
  C   C22       1.0  0.89052  0.51701  0.9341000000000003  1.0000
  C   C23       1.0  0.80914  0.4619699999999999  0.9636500000000002  1.0000
  C   C24       1.0  0.8901300000000002  0.38933  0.97529  1.0000
  C   C25       1.0  0.04751  0.37395  0.95553  1.0000
  C   C26       1.0  0.81533  0.33258  0.010390000000000003  1.0000
  C   C27       1.0  0.81514  0.59751  0.92247  1.0000
  C   C28       1.0  0.70024  0.38225999999999993  0.20965  1.0000
  C   C29       1.0  0.78345  0.30716  0.20770000000000005  1.0000
  C   C30       1.0  0.82778  0.26895  0.16211000000000003  1.0000
  C   C31       1.0  0.45002  0.9967699999999999  0.08271  1.0000
  C   C32       1.0  0.6094  0.01704  0.0659  1.0000
  C   C33       1.0  0.69081  0.9619499999999997  0.03641  1.0000
  C   C34       1.0  0.60993  0.88926  0.024810000000000002  1.0000
  C   C35       1.0  0.45234  0.87393  0.044510000000000015  1.0000
  C   C36       1.0  0.68518  0.83246  0.98979  1.0000
  C   C37       1.0  0.68474  0.09756  0.07752  1.0000
  C   C38       1.0  0.7997800000000003  0.88227  0.79034  1.0000
  C   C39       1.0  0.7166  0.80716  0.7923  1.0000
  C   C40       1.0  0.67225  0.76899  0.8378900000000002  1.0000
  C   C41       1.0  0.049880000000000015  0.49674000000000007  0.5827  1.0000
  C   C42       1.0  0.89052  0.51701  0.5659000000000001  1.0000
  C   C43       1.0  0.80914  0.4619699999999999  0.53635  1.0000
  C   C44       1.0  0.8901300000000002  0.38933  0.52471  1.0000
  C   C45       1.0  0.04751  0.37395  0.54447  1.0000
  C   C46       1.0  0.81533  0.33258  0.48961000000000005  1.0000
  C   C47       1.0  0.81514  0.59751  0.57753  1.0000
  C   C48       1.0  0.70024  0.38225999999999993  0.29035  1.0000
  C   C49       1.0  0.78345  0.30716  0.29230000000000006  1.0000
  C   C50       1.0  0.82778  0.26895  0.33789000000000013  1.0000
  C   C51       1.0  0.45002  0.9967699999999999  0.41729  1.0000
  C   C52       1.0  0.6094  0.01704  0.4341000000000001  1.0000
  C   C53       1.0  0.69081  0.9619499999999997  0.46359  1.0000
  C   C54       1.0  0.60993  0.88926  0.4751900000000001  1.0000
  C   C55       1.0  0.45234  0.87393  0.45549  1.0000
  C   C56       1.0  0.68518  0.83246  0.51021  1.0000
  C   C57       1.0  0.68474  0.09756  0.42248  1.0000
  C   C58       1.0  0.7997800000000003  0.88227  0.70966  1.0000
  C   C59       1.0  0.7166  0.80716  0.7077  1.0000
  C   C60       1.0  0.67225  0.76899  0.6621100000000002  1.0000
  C   C61       1.0  0.9501300000000003  0.50326  0.08270000000000002  1.0000
  C   C62       1.0  0.10949  0.48299  0.0659  1.0000
  C   C63       1.0  0.19087  0.53803  0.03635  1.0000
  C   C64       1.0  0.10988  0.61067  0.02471  1.0000
  C   C65       1.0  0.9525  0.6260499999999999  0.04447000000000001  1.0000
  C   C66       1.0  0.18467  0.66742  0.98961  1.0000
  C   C67       1.0  0.18486  0.40249  0.07753  1.0000
  C   C68       1.0  0.29976  0.61774  0.79035  1.0000
  C   C69       1.0  0.21656  0.69284  0.7923  1.0000
  C   C70       1.0  0.17223000000000005  0.73105  0.8378900000000002  1.0000
  C   C71       1.0  0.54999  0.003229999999999999  0.9172900000000003  1.0000
  C   C72       1.0  0.39061  0.98296  0.9341000000000003  1.0000
  C   C73       1.0  0.3092000000000001  0.03805  0.9635900000000002  1.0000
  C   C74       1.0  0.39008  0.11074999999999999  0.9751900000000002  1.0000
  C   C75       1.0  0.54766  0.12607  0.9554900000000002  1.0000
  C   C76       1.0  0.31483  0.16755  0.01021  1.0000
  C   C77       1.0  0.31527  0.90244  0.92248  1.0000
  C   C78       1.0  0.20023  0.11773  0.20966  1.0000
  C   C79       1.0  0.28341  0.19285  0.20770000000000005  1.0000
  C   C80       1.0  0.32776  0.23101  0.16211000000000003  1.0000
  C   C81       1.0  0.17215  0.73051  0.7500000000000002  1.0000
  C   C82       1.0  0.32787000000000005  0.23054  0.25  1.0000
  C   C83       1.0  0.8278600000000003  0.2695  0.25  1.0000
  C   C84       1.0  0.67214  0.76946  0.7500000000000002  1.0000
  N   N1        1.0  0.8729300000000002  0.57379  0.42688  1.0000
  N   N2        1.0  0.62727  0.07376  0.57312  1.0000
  N   N3        1.0  0.12707  0.42621  0.9268800000000001  1.0000
  N   N4        1.0  0.37273  0.92624  0.07312000000000002  1.0000
  N   N5        1.0  0.12707  0.42621  0.57312  1.0000
  N   N6        1.0  0.37273  0.92624  0.42688  1.0000
  N   N7        1.0  0.8729300000000002  0.57379  0.07312000000000002  1.0000
  N   N8        1.0  0.62727  0.07376  0.9268800000000001  1.0000
  N   N9        1.0  0.33986  0.57987  0.7500000000000002  1.0000
  N   N10       1.0  0.16015000000000004  0.07983  0.25  1.0000
  N   N11       1.0  0.66015  0.4201299999999999  0.25  1.0000
  N   N12       1.0  0.83985  0.92017  0.7500000000000002  1.0000
  O   O1        1.0  0.0674  0.7891499999999998  0.66173  1.0000
  O   O2        1.0  0.23301  0.70318  0.6231  1.0000
  O   O3        1.0  0.10909000000000003  0.73445  0.5190500000000001  1.0000
  O   O4        1.0  0.31923  0.64633  0.53067  1.0000
  O   O5        1.0  0.08598  0.34574  0.4098500000000001  1.0000
  O   O6        1.0  0.34203  0.39392  0.42608  1.0000
  O   O7        1.0  0.4325400000000001  0.28914  0.33828  1.0000
  O   O8        1.0  0.2670700000000001  0.20308  0.3769200000000001  1.0000
  O   O9        1.0  0.39075  0.23442  0.4809400000000001  1.0000
  O   O10       1.0  0.17958  0.14652999999999994  0.46976  1.0000
  O   O11       1.0  0.41412  0.84573  0.59014  1.0000
  O   O12       1.0  0.15804  0.89387  0.57391  1.0000
  O   O13       1.0  0.93261  0.21085  0.16173000000000004  1.0000
  O   O14       1.0  0.7669900000000002  0.29682  0.1231  1.0000
  O   O15       1.0  0.8909200000000003  0.26555  0.01905  1.0000
  O   O16       1.0  0.68077  0.35367  0.03067  1.0000
  O   O17       1.0  0.9140300000000002  0.65426  0.90985  1.0000
  O   O18       1.0  0.6579800000000002  0.60609  0.9260800000000002  1.0000
  O   O19       1.0  0.56746  0.7108599999999999  0.83828  1.0000
  O   O20       1.0  0.7329300000000002  0.79692  0.8769200000000003  1.0000
  O   O21       1.0  0.60925  0.76559  0.9809400000000003  1.0000
  O   O22       1.0  0.82042  0.85347  0.96976  1.0000
  O   O23       1.0  0.58589  0.15427  0.09014  1.0000
  O   O24       1.0  0.8419700000000002  0.10612999999999997  0.07391000000000003  1.0000
  O   O25       1.0  0.93261  0.21085  0.3382700000000001  1.0000
  O   O26       1.0  0.7669900000000002  0.29682  0.3769000000000001  1.0000
  O   O27       1.0  0.8909200000000003  0.26555  0.48095  1.0000
  O   O28       1.0  0.68077  0.35367  0.46933000000000014  1.0000
  O   O29       1.0  0.9140300000000002  0.65426  0.59015  1.0000
  O   O30       1.0  0.6579800000000002  0.60609  0.57392  1.0000
  O   O31       1.0  0.56746  0.7108599999999999  0.66172  1.0000
  O   O32       1.0  0.7329300000000002  0.79692  0.6230800000000002  1.0000
  O   O33       1.0  0.60925  0.76559  0.51906  1.0000
  O   O34       1.0  0.82042  0.85347  0.5302300000000001  1.0000
  O   O35       1.0  0.58589  0.15427  0.40986  1.0000
  O   O36       1.0  0.8419700000000002  0.10612999999999997  0.42609000000000014  1.0000
  O   O37       1.0  0.0674  0.7891499999999998  0.83827  1.0000
  O   O38       1.0  0.23301  0.70318  0.8769  1.0000
  O   O39       1.0  0.10909000000000003  0.73445  0.9809500000000002  1.0000
  O   O40       1.0  0.31923  0.64633  0.9693300000000002  1.0000
  O   O41       1.0  0.08598  0.34574  0.09015  1.0000
  O   O42       1.0  0.34203  0.39392  0.07392000000000003  1.0000
  O   O43       1.0  0.4325400000000001  0.28914  0.16172000000000006  1.0000
  O   O44       1.0  0.2670700000000001  0.20308  0.12308000000000002  1.0000
  O   O45       1.0  0.39075  0.23442  0.019060000000000004  1.0000
  O   O46       1.0  0.17958  0.14652999999999994  0.030240000000000003  1.0000
  O   O47       1.0  0.41412  0.84573  0.90986  1.0000
  O   O48       1.0  0.15804  0.89387  0.92609  1.0000
