data_image0
_chemical_formula_structural       Zn8H48C88N24O32
_chemical_formula_sum              "Zn8 H48 C88 N24 O32"
_cell_length_a       9.35336
_cell_length_b       16.24275
_cell_length_c       18.60998
_cell_angle_alpha    117.4139
_cell_angle_beta     89.92697
_cell_angle_gamma    90.08736

_space_group_name_H-M_alt    "P 1"
_space_group_IT_number       1

loop_
  _space_group_symop_operation_xyz
  'x, y, z'

loop_
  _atom_site_type_symbol
  _atom_site_label
  _atom_site_symmetry_multiplicity
  _atom_site_fract_x
  _atom_site_fract_y
  _atom_site_fract_z
  _atom_site_occupancy
  Zn  Zn1       1.0  0.97017  0.29082  0.43928  1.0000
  Zn  Zn2       1.0  0.9615599999999999  0.71255  0.06190999999999999  1.0000
  Zn  Zn3       1.0  0.46831  0.21276  0.56623  1.0000
  Zn  Zn4       1.0  0.4612299999999999  0.78765  0.93846  1.0000
  Zn  Zn5       1.0  0.029829999999999992  0.7092  0.56065  1.0000
  Zn  Zn6       1.0  0.03844999999999999  0.28745000000000004  0.93808  1.0000
  Zn  Zn7       1.0  0.5316499999999997  0.78718  0.4337  1.0000
  Zn  Zn8       1.0  0.53879  0.21236  0.061529999999999994  1.0000
  H   H1        1.0  0.69759  0.48446  0.08224  1.0000
  H   H2        1.0  0.02221  0.41157  0.36343  1.0000
  H   H3        1.0  0.27779  0.23232  0.41084  1.0000
  H   H4        1.0  0.45403  0.63537  0.21623  1.0000
  H   H5        1.0  0.014169999999999999  0.59445  0.13852  1.0000
  H   H6        1.0  0.4606299999999999  0.36839  0.28054  1.0000
  H   H7        1.0  0.48666  0.2607600000000001  0.34147  1.0000
  H   H8        1.0  0.26805  0.7702799999999999  0.08533999999999997  1.0000
  H   H9        1.0  0.47948999999999997  0.74297  0.15377999999999994  1.0000
  H   H10       1.0  0.48391  0.54088  0.30164  1.0000
  H   H11       1.0  0.48313999999999996  0.44921  0.20372  1.0000
  H   H12       1.0  0.80292  0.02390999999999999  0.42225  1.0000
  H   H13       1.0  0.19697  0.015009999999999996  0.91701  1.0000
  H   H14       1.0  0.51956  0.08995999999999998  0.64021  1.0000
  H   H15       1.0  0.77519  0.26942  0.59248  1.0000
  H   H16       1.0  0.9551099999999999  0.86181  0.78216  1.0000
  H   H17       1.0  0.51601  0.90411  0.8615799999999998  1.0000
  H   H18       1.0  0.9605799999999999  0.12960999999999998  0.71854  1.0000
  H   H19       1.0  0.9857  0.23893999999999996  0.65923  1.0000
  H   H20       1.0  0.7690999999999999  0.7287599999999999  0.9150599999999998  1.0000
  H   H21       1.0  0.9802699999999999  0.75493  0.84533  1.0000
  H   H22       1.0  0.98375  0.95748  0.69808  1.0000
  H   H23       1.0  0.9833999999999999  0.050139999999999844  0.7956899999999998  1.0000
  H   H24       1.0  0.30078  0.47755  0.57773  1.0000
  H   H25       1.0  0.30244  0.5155  0.9177  1.0000
  H   H26       1.0  0.9778199999999999  0.58841  0.63655  1.0000
  H   H27       1.0  0.7222399999999998  0.76766  0.58914  1.0000
  H   H28       1.0  0.546  0.36462999999999995  0.7837499999999998  1.0000
  H   H29       1.0  0.98586  0.40553  0.86147  1.0000
  H   H30       1.0  0.5394  0.63163  0.71948  1.0000
  H   H31       1.0  0.5133499999999998  0.73923  0.65852  1.0000
  H   H32       1.0  0.7319399999999998  0.22971999999999998  0.91464  1.0000
  H   H33       1.0  0.5205199999999999  0.25703  0.84619  1.0000
  H   H34       1.0  0.51614  0.45912  0.69835  1.0000
  H   H35       1.0  0.51691  0.55081  0.7962699999999998  1.0000
  H   H36       1.0  0.19713  0.9761299999999999  0.5777999999999998  1.0000
  H   H37       1.0  0.80304  0.98498  0.08299  1.0000
  H   H38       1.0  0.48039  0.91009  0.35984  1.0000
  H   H39       1.0  0.22476  0.73057  0.4075  1.0000
  H   H40       1.0  0.044919999999999995  0.13821  0.21784  1.0000
  H   H41       1.0  0.48400999999999994  0.0959  0.13841  1.0000
  H   H42       1.0  0.03944  0.87035  0.28138999999999986  1.0000
  H   H43       1.0  0.01428  0.76104  0.34071  1.0000
  H   H44       1.0  0.2309  0.27125  0.08494  1.0000
  H   H45       1.0  0.01974  0.24509000000000003  0.15467  1.0000
  H   H46       1.0  0.01624  0.04247999999999999  0.30186  1.0000
  H   H47       1.0  0.016640000000000002  0.94982  0.20424  1.0000
  H   H48       1.0  0.6992799999999999  0.52241  0.42225999999999997  1.0000
  C   C1        1.0  0.6109599999999998  0.49193  0.046699999999999985  1.0000
  C   C2        1.0  0.61729  0.56031  0.02117  1.0000
  C   C3        1.0  0.005579999999999999  0.15427999999999997  0.46278  1.0000
  C   C4        1.0  0.12704  0.38051999999999997  0.3585199999999999  1.0000
  C   C5        1.0  0.74736  0.61959  0.04018  1.0000
  C   C6        1.0  0.23832999999999996  0.39995  0.3175599999999999  1.0000
  C   C7        1.0  0.27036  0.27929999999999994  0.3839799999999999  1.0000
  C   C8        1.0  0.23173  0.6062600000000002  0.18230999999999994  1.0000
  C   C9        1.0  0.36427  0.64917  0.18639  1.0000
  C   C10       1.0  0.19635  0.54794  0.22043999999999994  1.0000
  C   C11       1.0  0.11931999999999997  0.62486  0.14209  1.0000
  C   C12       1.0  0.37065  0.35647  0.3116499999999999  1.0000
  C   C13       1.0  0.38572  0.29573  0.34515  1.0000
  C   C14       1.0  0.20105999999999996  0.45918  0.28068  1.0000
  C   C15       1.0  0.26196  0.72439  0.11335  1.0000
  C   C16       1.0  0.37839  0.70876  0.15174  1.0000
  C   C17       1.0  0.008469999999999997  0.07204000000000005  0.47841  1.0000
  C   C18       1.0  0.12036000000000002  0.058650000000000035  0.52248  1.0000
  C   C19       1.0  0.25156  0.11801999999999988  0.5450199999999997  1.0000
  C   C20       1.0  0.5051  0.56908  0.9748399999999999  1.0000
  C   C21       1.0  0.49766999999999995  0.65002  0.95791  1.0000
  C   C22       1.0  0.88958  0.012859999999999996  0.45584  1.0000
  C   C23       1.0  0.11057  0.007769999999999826  0.9528799999999997  1.0000
  C   C24       1.0  0.11736000000000005  0.9399300000000004  0.97897  1.0000
  C   C25       1.0  0.5049  0.34711  0.53892  1.0000
  C   C26       1.0  0.62481  0.12046000000000005  0.64433  1.0000
  C   C27       1.0  0.24755  0.88101  0.96009  1.0000
  C   C28       1.0  0.73717  0.09965000000000004  0.68358  1.0000
  C   C29       1.0  0.76828  0.2218799999999999  0.6187599999999998  1.0000
  C   C30       1.0  0.73318  0.89162  0.81711  1.0000
  C   C31       1.0  0.86552  0.84855  0.81261  1.0000
  C   C32       1.0  0.69716  0.94988  0.77913  1.0000
  C   C33       1.0  0.62089  0.8734999999999999  0.8578599999999997  1.0000
  C   C34       1.0  0.86987  0.14270999999999995  0.68876  1.0000
  C   C35       1.0  0.8845099999999999  0.20427999999999993  0.65609  1.0000
  C   C36       1.0  0.7007  0.03950999999999996  0.71975  1.0000
  C   C37       1.0  0.7630299999999999  0.7742599999999998  0.8866799999999998  1.0000
  C   C38       1.0  0.87937  0.78933  0.84766  1.0000
  C   C39       1.0  0.5072699999999999  0.42895999999999995  0.52281  1.0000
  C   C40       1.0  0.6202899999999999  0.4417799999999999  0.4789699999999999  1.0000
  C   C41       1.0  0.75181  0.38316  0.45825  1.0000
  C   C42       1.0  0.00534  0.93131  0.02562  1.0000
  C   C43       1.0  0.9977999999999999  0.85051  0.04272999999999998  1.0000
  C   C44       1.0  0.38840999999999987  0.48785000000000006  0.54416  1.0000
  C   C45       1.0  0.38907  0.50804  0.95325  1.0000
  C   C46       1.0  0.38271  0.4396799999999999  0.97879  1.0000
  C   C47       1.0  0.99444  0.8457999999999999  0.53733  1.0000
  C   C48       1.0  0.8729999999999999  0.61947  0.64145  1.0000
  C   C49       1.0  0.25263  0.38043  0.95982  1.0000
  C   C50       1.0  0.7617  0.60006  0.68242  1.0000
  C   C51       1.0  0.72967  0.72068  0.61599  1.0000
  C   C52       1.0  0.76831  0.3937199999999999  0.8176799999999997  1.0000
  C   C53       1.0  0.63575  0.3508399999999999  0.8135799999999997  1.0000
  C   C54       1.0  0.80369  0.45205  0.77954  1.0000
  C   C55       1.0  0.88071  0.37512000000000006  0.8579  1.0000
  C   C56       1.0  0.62937  0.64353  0.6883399999999997  1.0000
  C   C57       1.0  0.61429  0.70426  0.65483  1.0000
  C   C58       1.0  0.7989899999999998  0.54083  0.71931  1.0000
  C   C59       1.0  0.7380399999999999  0.27560999999999997  0.8866299999999999  1.0000
  C   C60       1.0  0.62162  0.29124  0.84823  1.0000
  C   C61       1.0  0.99151  0.92805  0.52172  1.0000
  C   C62       1.0  0.8796599999999999  0.9413800000000001  0.4776  1.0000
  C   C63       1.0  0.7485299999999998  0.88193  0.45496  1.0000
  C   C64       1.0  0.49493  0.43089  0.02511  1.0000
  C   C65       1.0  0.50235  0.34996  0.04204  1.0000
  C   C66       1.0  0.11042  0.98719  0.5442499999999998  1.0000
  C   C67       1.0  0.88943  0.9922199999999999  0.04712  1.0000
  C   C68       1.0  0.88265  0.06006  0.02103  1.0000
  C   C69       1.0  0.49493999999999994  0.65285  0.46106  1.0000
  C   C70       1.0  0.37515  0.87957  0.3557  1.0000
  C   C71       1.0  0.75245  0.11898  0.03991  1.0000
  C   C72       1.0  0.26281  0.9003599999999998  0.3164099999999999  1.0000
  C   C73       1.0  0.23166  0.77812  0.38123  1.0000
  C   C74       1.0  0.26683  0.10839  0.18288  1.0000
  C   C75       1.0  0.13449999999999998  0.15146999999999994  0.18738999999999995  1.0000
  C   C76       1.0  0.30284999999999995  0.05013  0.22087  1.0000
  C   C77       1.0  0.37912  0.1265  0.14214  1.0000
  C   C78       1.0  0.13012999999999997  0.85728  0.31119999999999987  1.0000
  C   C79       1.0  0.11545999999999998  0.79571  0.34387  1.0000
  C   C80       1.0  0.2993  0.9605  0.28025  1.0000
  C   C81       1.0  0.23698  0.22575  0.11331999999999998  1.0000
  C   C82       1.0  0.12063999999999998  0.21068999999999996  0.15234  1.0000
  C   C83       1.0  0.49272  0.571  0.47717  1.0000
  C   C84       1.0  0.37971999999999995  0.5582000000000003  0.52103  1.0000
  C   C85       1.0  0.24819  0.61682  0.54175  1.0000
  C   C86       1.0  0.99467  0.06867999999999995  0.9743700000000001  1.0000
  C   C87       1.0  0.0022200000000000006  0.14948000000000009  0.95725  1.0000
  C   C88       1.0  0.61162  0.51214  0.45583  1.0000
  N   N1        1.0  0.14257999999999998  0.32166  0.39045  1.0000
  N   N2        1.0  0.13444999999999996  0.68244  0.10882999999999997  1.0000
  N   N3        1.0  0.061669999999999996  0.53119  0.2334  1.0000
  N   N4        1.0  0.06478  0.4759900000000001  0.27073  1.0000
  N   N5        1.0  0.28898  0.504  0.24936000000000003  1.0000
  N   N6        1.0  0.43737  0.51002  0.2454  1.0000
  N   N7        1.0  0.6401099999999997  0.18009999999999995  0.61317  1.0000
  N   N8        1.0  0.6356699999999997  0.81627  0.8914  1.0000
  N   N9        1.0  0.56222  0.9661099999999999  0.7663699999999998  1.0000
  N   N10       1.0  0.56463  0.021899999999999902  0.7296299999999999  1.0000
  N   N11       1.0  0.78919  0.99464  0.7506  1.0000
  N   N12       1.0  0.93755  0.98909  0.75444  1.0000
  N   N13       1.0  0.85746  0.67831  0.60951  1.0000
  N   N14       1.0  0.8655599999999999  0.31755  0.89117  1.0000
  N   N15       1.0  0.9383699999999998  0.46879  0.76657  1.0000
  N   N16       1.0  0.93526  0.52399  0.72925  1.0000
  N   N17       1.0  0.7110599999999999  0.496  0.75063  1.0000
  N   N18       1.0  0.56267  0.48999  0.75459  1.0000
  N   N19       1.0  0.35983  0.81991  0.38683  1.0000
  N   N20       1.0  0.3643399999999999  0.18373  0.10859  1.0000
  N   N21       1.0  0.43779  0.03392999999999998  0.23366  1.0000
  N   N22       1.0  0.43538  0.97814  0.27041  1.0000
  N   N23       1.0  0.21081999999999998  0.005340000000000008  0.24936999999999998  1.0000
  N   N24       1.0  0.062459999999999995  0.010879999999999996  0.2455  1.0000
  O   O1        1.0  0.05062  0.23249  0.51608  1.0000
  O   O2        1.0  0.8149  0.62278  0.98125  1.0000
  O   O3        1.0  0.9493099999999999  0.14607999999999993  0.39656999999999987  1.0000
  O   O4        1.0  0.7927499999999997  0.66238  0.11251999999999997  1.0000
  O   O5        1.0  0.32171  0.12408  0.4878199999999999  1.0000
  O   O6        1.0  0.29337  0.15838  0.61784  1.0000
  O   O7        1.0  0.54382  0.7283500000000002  0.01084  1.0000
  O   O8        1.0  0.43642  0.64256  0.8931  1.0000
  O   O9        1.0  0.5570799999999998  0.27040999999999993  0.48766999999999994  1.0000
  O   O10       1.0  0.31533  0.8785500000000003  0.01918  1.0000
  O   O11       1.0  0.44237  0.35433  0.60356  1.0000
  O   O12       1.0  0.29274  0.8377200000000002  0.88772  1.0000
  O   O13       1.0  0.8219699999999999  0.37942  0.51638  1.0000
  O   O14       1.0  0.79427  0.34148  0.38562  1.0000
  O   O15       1.0  0.044069999999999984  0.7721800000000001  0.9897599999999999  1.0000
  O   O16       1.0  0.9364099999999999  0.85788  0.10752  1.0000
  O   O17       1.0  0.9494299999999999  0.7676  0.484  1.0000
  O   O18       1.0  0.18511  0.37723  0.01876  1.0000
  O   O19       1.0  0.05072  0.85393  0.60351  1.0000
  O   O20       1.0  0.20722  0.33763  0.88748  1.0000
  O   O21       1.0  0.6783799999999998  0.87572  0.5121  1.0000
  O   O22       1.0  0.7067399999999999  0.84169  0.38214  1.0000
  O   O23       1.0  0.45618999999999993  0.27163000000000004  0.9891300000000001  1.0000
  O   O24       1.0  0.56361  0.35743  0.10684999999999997  1.0000
  O   O25       1.0  0.44266999999999995  0.72953  0.51227  1.0000
  O   O26       1.0  0.68468  0.12143999999999996  0.9808099999999998  1.0000
  O   O27       1.0  0.55764  0.64567  0.39646  1.0000
  O   O28       1.0  0.7072799999999998  0.16228  0.11228  1.0000
  O   O29       1.0  0.17799999999999996  0.62055  0.48362  1.0000
  O   O30       1.0  0.20577999999999994  0.65851  0.61439  1.0000
  O   O31       1.0  0.95595  0.22781  0.01022  1.0000
  O   O32       1.0  0.0636  0.14211000000000007  0.89246  1.0000
