data_image0
_chemical_formula_structural       Mg6H66C90O18
_chemical_formula_sum              "Mg6 H66 C90 O18"
_cell_length_a       6.97251
_cell_length_b       32.867929999999994
_cell_length_c       32.89939
_cell_angle_alpha    119.49613
_cell_angle_beta     94.02778
_cell_angle_gamma    94.09619

_space_group_name_H-M_alt    "P 1"
_space_group_IT_number       1

loop_
  _space_group_symop_operation_xyz
  'x, y, z'

loop_
  _atom_site_type_symbol
  _atom_site_label
  _atom_site_symmetry_multiplicity
  _atom_site_fract_x
  _atom_site_fract_y
  _atom_site_fract_z
  _atom_site_occupancy
  Mg  Mg1       1.0  0.6391400000000002  0.6973299999999999  0.3308  1.0000
  Mg  Mg2       1.0  0.36399000000000015  0.3019500000000001  0.6682200000000003  1.0000
  Mg  Mg3       1.0  0.9428199999999995  0.6328  0.30227  1.0000
  Mg  Mg4       1.0  0.0632  0.36705  0.69873  1.0000
  Mg  Mg5       1.0  0.30818  0.6696299999999998  0.36725000000000013  1.0000
  Mg  Mg6       1.0  0.6960900000000001  0.3325700000000001  0.6338800000000002  1.0000
  H   H1        1.0  0.011299999999999977  0.95166  0.42027  1.0000
  H   H2        1.0  0.5475200000000001  0.9285200000000001  0.5153100000000002  1.0000
  H   H3        1.0  0.74207  0.09973999999999994  0.55569  1.0000
  H   H4        1.0  0.99802  0.16834999999999994  0.59367  1.0000
  H   H5        1.0  0.3097400000000001  0.19412000000000013  0.5799500000000002  1.0000
  H   H6        1.0  0.69132  0.8067600000000003  0.4119000000000001  1.0000
  H   H7        1.0  0.9989799999999999  0.8320499999999997  0.4104600000000001  1.0000
  H   H8        1.0  0.25306  0.90078  0.44329  1.0000
  H   H9        1.0  0.2342  0.11445999999999995  0.49398  1.0000
  H   H10       1.0  0.17829  0.012609999999999996  0.56407  1.0000
  H   H11       1.0  0.6547399999999999  0.84288  0.3538500000000001  1.0000
  H   H12       1.0  0.9097500000000001  0.8560900000000001  0.36005  1.0000
  H   H13       1.0  0.75739  0.89009  0.3473600000000001  1.0000
  H   H14       1.0  0.89826  0.0056400000000000105  0.59043  1.0000
  H   H15       1.0  0.6439800000000001  0.002280000000000012  0.57895  1.0000
  H   H16       1.0  0.8014800000000003  0.04517000000000014  0.5754200000000003  1.0000
  H   H17       1.0  0.0024200000000000224  0.05585000000000001  0.42538  1.0000
  H   H18       1.0  0.82623  0.07504000000000006  0.46500000000000014  1.0000
  H   H19       1.0  0.8439100000000002  0.014150000000000057  0.4305000000000001  1.0000
  H   H20       1.0  0.38276  0.11808999999999995  0.64525  1.0000
  H   H21       1.0  0.59608  0.09946999999999999  0.61945  1.0000
  H   H22       1.0  0.42858  0.05898999999999999  0.62421  1.0000
  H   H23       1.0  0.06045999999999997  0.46863  0.04835000000000001  1.0000
  H   H24       1.0  0.61904  0.5865899999999998  0.07134  1.0000
  H   H25       1.0  0.6446400000000001  0.4566800000000001  0.9006400000000002  1.0000
  H   H26       1.0  0.83088  0.42637000000000014  0.8319400000000002  1.0000
  H   H27       1.0  0.11692999999999995  0.38607999999999987  0.80679  1.0000
  H   H28       1.0  0.888  0.60556  0.19320000000000007  1.0000
  H   H29       1.0  0.17034  0.57854  0.16838  1.0000
  H   H30       1.0  0.35477  0.54331  0.09953000000000002  1.0000
  H   H31       1.0  0.12009  0.37948  0.88572  1.0000
  H   H32       1.0  0.16445000000000004  0.55145  0.98738  1.0000
  H   H33       1.0  0.8128200000000001  0.51116  0.1572  1.0000
  H   H34       1.0  0.05485000000000002  0.50425  0.14426000000000005  1.0000
  H   H35       1.0  0.8686400000000001  0.45743  0.11022000000000003  1.0000
  H   H36       1.0  0.8918800000000002  0.5847100000000001  0.9943100000000002  1.0000
  H   H37       1.0  0.64103  0.5766299999999998  0.99776  1.0000
  H   H38       1.0  0.7547999999999999  0.53027  0.95474  1.0000
  H   H39       1.0  0.9443300000000001  0.3694300000000001  0.9443700000000003  1.0000
  H   H40       1.0  0.74965  0.39005  0.92518  1.0000
  H   H41       1.0  0.8289100000000001  0.4165200000000001  0.9859700000000002  1.0000
  H   H42       1.0  0.2631300000000001  0.52698  0.88198  1.0000
  H   H43       1.0  0.4959700000000001  0.52033  0.9006700000000002  1.0000
  H   H44       1.0  0.3679500000000001  0.5654  0.9409400000000002  1.0000
  H   H45       1.0  0.5909  0.57986  0.53124  1.0000
  H   H46       1.0  0.03273000000000004  0.48453999999999997  0.4129700000000001  1.0000
  H   H47       1.0  0.18673  0.44411  0.54353  1.0000
  H   H48       1.0  0.40269  0.40589  0.5743200000000003  1.0000
  H   H49       1.0  0.72843  0.42110999999999993  0.6140700000000001  1.0000
  H   H50       1.0  0.28106000000000003  0.5875700000000001  0.3945900000000001  1.0000
  H   H51       1.0  0.59023  0.58973  0.42166  1.0000
  H   H52       1.0  0.8107199999999999  0.55686  0.45763  1.0000
  H   H53       1.0  0.7405399999999999  0.5062999999999999  0.6201400000000002  1.0000
  H   H54       1.0  0.6127699999999999  0.4360899999999999  0.44836000000000004  1.0000
  H   H55       1.0  0.30068000000000006  0.64622  0.4888300000000001  1.0000
  H   H56       1.0  0.54959  0.64021  0.49594  1.0000
  H   H57       1.0  0.40947  0.6528  0.54253  1.0000
  H   H58       1.0  0.30719999999999986  0.40944999999999987  0.41504  1.0000
  H   H59       1.0  0.06456999999999999  0.42098  0.42327  1.0000
  H   H60       1.0  0.22551000000000002  0.42441999999999996  0.4695500000000001  1.0000
  H   H61       1.0  0.57578  0.57474  0.63035  1.0000
  H   H62       1.0  0.36041  0.53492  0.60978  1.0000
  H   H63       1.0  0.4122000000000001  0.56967  0.5836400000000003  1.0000
  H   H64       1.0  0.73599  0.35503  0.4729  1.0000
  H   H65       1.0  0.97552  0.38054  0.47977  1.0000
  H   H66       1.0  0.8032599999999999  0.3755699999999999  0.43451  1.0000
  C   C1        1.0  0.7751899999999997  0.9054599999999999  0.4194  1.0000
  C   C2        1.0  0.90924  0.9462899999999997  0.44129  1.0000
  C   C3        1.0  0.9173199999999997  0.9809899999999999  0.4888  1.0000
  C   C4        1.0  0.78615  0.97414  0.51645  1.0000
  C   C5        1.0  0.6512699999999999  0.9337199999999996  0.49456  1.0000
  C   C6        1.0  0.64239  0.89931  0.44695  1.0000
  C   C7        1.0  0.8463900000000001  0.17356999999999995  0.59045  1.0000
  C   C8        1.0  0.7038099999999999  0.1353399999999999  0.56993  1.0000
  C   C9        1.0  0.50684  0.14251  0.56705  1.0000
  C   C10       1.0  0.46035999999999994  0.18795000000000003  0.58239  1.0000
  C   C11       1.0  0.39858  0.77335  0.39372  1.0000
  C   C12       1.0  0.19845999999999986  0.7804799999999997  0.39134  1.0000
  C   C13       1.0  0.040399999999999964  0.7413499999999998  0.36601  1.0000
  C   C14       1.0  0.96006  0.25901  0.63428  1.0000
  C   C15       1.0  0.8012499999999999  0.22012999999999994  0.60828  1.0000
  C   C16       1.0  0.60283  0.22751000000000007  0.6030800000000002  1.0000
  C   C17       1.0  0.53988  0.8128  0.41107000000000005  1.0000
  C   C18       1.0  0.49023  0.85821  0.4278400000000001  1.0000
  C   C19       1.0  0.2926  0.86527  0.4286700000000001  1.0000
  C   C20       1.0  0.15144000000000002  0.82691  0.4104800000000001  1.0000
  C   C21       1.0  0.35174  0.10226999999999999  0.5484300000000001  1.0000
  C   C22       1.0  0.22047999999999998  0.09186000000000001  0.50939  1.0000
  C   C23       1.0  0.07272  0.05378999999999999  0.48935  1.0000
  C   C24       1.0  0.061460000000000105  0.023790000000000092  0.5086900000000001  1.0000
  C   C25       1.0  0.19037  0.035249999999999955  0.54869  1.0000
  C   C26       1.0  0.33119  0.07448  0.57008  1.0000
  C   C27       1.0  0.7732  0.87167  0.36743  1.0000
  C   C28       1.0  0.78246  0.008609999999999998  0.56793  1.0000
  C   C29       1.0  0.92897  0.048900000000000034  0.45019000000000003  1.0000
  C   C30       1.0  0.44196000000000013  0.08821000000000008  0.6169700000000002  1.0000
  C   C31       1.0  0.8711899999999999  0.51403  0.09463  1.0000
  C   C32       1.0  0.96353  0.49496999999999997  0.05372  1.0000
  C   C33       1.0  0.93596  0.50768  0.01894  1.0000
  C   C34       1.0  0.8113199999999999  0.54207  0.02569  1.0000
  C   C35       1.0  0.71776  0.5607  0.06619  1.0000
  C   C36       1.0  0.74482  0.54778  0.10077  1.0000
  C   C37       1.0  0.6741199999999999  0.41767  0.82684  1.0000
  C   C38       1.0  0.57034  0.43517999999999996  0.8651300000000001  1.0000
  C   C39       1.0  0.36619  0.4248899999999999  0.85815  1.0000
  C   C40       1.0  0.27369000000000004  0.39481000000000005  0.8128200000000001  1.0000
  C   C41       1.0  0.6292899999999998  0.62067  0.22682000000000005  1.0000
  C   C42       1.0  0.4219399999999999  0.61074  0.21980000000000005  1.0000
  C   C43       1.0  0.30253000000000013  0.6240200000000001  0.25876000000000005  1.0000
  C   C44       1.0  0.70019  0.3758799999999999  0.74132  1.0000
  C   C45       1.0  0.58164  0.38888  0.7803900000000003  1.0000
  C   C46       1.0  0.37607999999999997  0.37623  0.77324  1.0000
  C   C47       1.0  0.73048  0.59865  0.18728  1.0000
  C   C48       1.0  0.63483  0.57  0.14196  1.0000
  C   C49       1.0  0.43017  0.56388  0.135  1.0000
  C   C50       1.0  0.32796999999999993  0.5837  0.17343  1.0000
  C   C51       1.0  0.2507800000000001  0.4462700000000001  0.8982200000000002  1.0000
  C   C52       1.0  0.12916000000000005  0.41749  0.9084100000000003  1.0000
  C   C53       1.0  0.01856000000000007  0.43544000000000016  0.9462700000000002  1.0000
  C   C54       1.0  0.037170000000000085  0.48480000000000006  0.9762000000000002  1.0000
  C   C55       1.0  0.15472000000000005  0.5134400000000001  0.9648400000000001  1.0000
  C   C56       1.0  0.25712  0.49569  0.92582  1.0000
  C   C57       1.0  0.9029  0.49593999999999994  0.12853  1.0000
  C   C58       1.0  0.77293  0.55921  0.99131  1.0000
  C   C59       1.0  0.8788400000000001  0.40128  0.9512100000000002  1.0000
  C   C60       1.0  0.35297  0.52888  0.9119  1.0000
  C   C61       1.0  0.35598999999999986  0.58068  0.48595000000000005  1.0000
  C   C62       1.0  0.46780999999999995  0.55882  0.5049  1.0000
  C   C63       1.0  0.42798  0.5112799999999997  0.49209  1.0000
  C   C64       1.0  0.26939  0.48350999999999994  0.45761  1.0000
  C   C65       1.0  0.15693  0.50534  0.43899  1.0000
  C   C66       1.0  0.19608000000000006  0.5529700000000001  0.4522200000000001  1.0000
  C   C67       1.0  0.25445  0.40949000000000013  0.5828100000000003  1.0000
  C   C68       1.0  0.13344  0.43001  0.56495  1.0000
  C   C69       1.0  0.9393799999999998  0.43321  0.5750400000000002  1.0000
  C   C70       1.0  0.8766599999999998  0.4183300000000001  0.6054200000000002  1.0000
  C   C71       1.0  0.007520000000000042  0.60606  0.37951  1.0000
  C   C72       1.0  0.80977  0.6086699999999998  0.38920000000000005  1.0000
  C   C73       1.0  0.67799  0.63437  0.37574000000000013  1.0000
  C   C74       1.0  0.32274  0.36593  0.62457  1.0000
  C   C75       1.0  0.19060000000000002  0.39202000000000004  0.6117200000000003  1.0000
  C   C76       1.0  0.9977800000000002  0.39774  0.6245200000000002  1.0000
  C   C77       1.0  0.13046  0.58853  0.40151  1.0000
  C   C78       1.0  0.06335000000000003  0.57197  0.4302200000000001  1.0000
  C   C79       1.0  0.8649899999999999  0.5712300000000001  0.4365400000000001  1.0000
  C   C80       1.0  0.7427300000000001  0.5895600000000001  0.41645000000000004  1.0000
  C   C81       1.0  0.8033299999999999  0.45186  0.55344  1.0000
  C   C82       1.0  0.7112  0.49091  0.58217  1.0000
  C   C83       1.0  0.5830100000000001  0.5109000000000001  0.5642500000000001  1.0000
  C   C84       1.0  0.55227  0.4914899999999999  0.51496  1.0000
  C   C85       1.0  0.6411099999999996  0.4514999999999999  0.48633  1.0000
  C   C86       1.0  0.76076  0.43013  0.50406  1.0000
  C   C87       1.0  0.40561000000000014  0.63271  0.50408  1.0000
  C   C88       1.0  0.21408999999999995  0.4319799999999999  0.4405600000000001  1.0000
  C   C89       1.0  0.47783000000000025  0.54992  0.5985500000000002  1.0000
  C   C90       1.0  0.82403  0.3831  0.4710200000000001  1.0000
  O   O1        1.0  0.45868  0.73086  0.3799300000000001  1.0000
  O   O2        1.0  0.08044999999999992  0.6985099999999996  0.34982  1.0000
  O   O3        1.0  0.8680099999999997  0.7492099999999998  0.3588900000000001  1.0000
  O   O4        1.0  0.13107000000000008  0.2508  0.6421400000000003  1.0000
  O   O5        1.0  0.92275  0.30198999999999987  0.64961  1.0000
  O   O6        1.0  0.54289  0.27027  0.618  1.0000
  O   O7        1.0  0.73276  0.64961  0.26917  1.0000
  O   O8        1.0  0.38343999999999995  0.65143  0.30161  1.0000
  O   O9        1.0  0.1234399999999999  0.6079299999999997  0.25079  1.0000
  O   O10       1.0  0.8798800000000001  0.39130999999999994  0.7493000000000001  1.0000
  O   O11       1.0  0.6185099999999999  0.34878  0.69843  1.0000
  O   O12       1.0  0.27347000000000005  0.3485400000000001  0.7305400000000002  1.0000
  O   O13       1.0  0.08304999999999996  0.6198999999999999  0.35097  1.0000
  O   O14       1.0  0.73303  0.64948  0.34816  1.0000
  O   O15       1.0  0.5149700000000001  0.64284  0.3917200000000001  1.0000
  O   O16       1.0  0.48604  0.35805  0.60866  1.0000
  O   O17       1.0  0.26863  0.3504699999999999  0.65199  1.0000
  O   O18       1.0  0.9231399999999998  0.3835199999999999  0.65288  1.0000
