data_image0
_chemical_formula_structural       Cd18H32C16N80Cl18
_chemical_formula_sum              "Cd18 H32 C16 N80 Cl18"
_cell_length_a       13.44153
_cell_length_b       13.545710000000001
_cell_length_c       19.30439
_cell_angle_alpha    86.63745
_cell_angle_beta     69.59684999999999
_cell_angle_gamma    80.31166

_space_group_name_H-M_alt    "P 1"
_space_group_IT_number       1

loop_
  _space_group_symop_operation_xyz
  'x, y, z'

loop_
  _atom_site_type_symbol
  _atom_site_label
  _atom_site_symmetry_multiplicity
  _atom_site_fract_x
  _atom_site_fract_y
  _atom_site_fract_z
  _atom_site_occupancy
  Cd  Cd1       1.0  0.1988899999999999  0.99079  0.29819  1.0000
  Cd  Cd2       1.0  0.10266000000000002  0.19334999999999997  0.18382  1.0000
  Cd  Cd3       1.0  0.36127  0.37954999999999994  0.07483  1.0000
  Cd  Cd4       1.0  0.85515  0.36913  0.29286999999999996  1.0000
  Cd  Cd5       1.0  0.50286  0.01392  0.29634  1.0000
  Cd  Cd6       1.0  0.7074600000000002  0.80092  0.18329  1.0000
  Cd  Cd7       1.0  0.5491700000000002  0.61131  0.09916999999999998  1.0000
  Cd  Cd8       1.0  0.8650000000000001  0.6372499999999998  0.2878899999999999  1.0000
  Cd  Cd9       1.0  0.7993799999999999  0.01384  0.70381  1.0000
  Cd  Cd10      1.0  0.8906400000000001  0.8011099999999998  0.8169299999999998  1.0000
  Cd  Cd11      1.0  0.6480700000000001  0.61127  0.901  1.0000
  Cd  Cd12      1.0  0.1527  0.63749  0.71224  1.0000
  Cd  Cd13      1.0  0.49740999999999985  0.99095  0.70175  1.0000
  Cd  Cd14      1.0  0.2866  0.19380999999999995  0.81598  1.0000
  Cd  Cd15      1.0  0.43615999999999994  0.37956999999999996  0.92504  1.0000
  Cd  Cd16      1.0  0.14790999999999999  0.36947  0.70701  1.0000
  Cd  Cd17      1.0  0.0004500000000000627  0.9986699999999998  0.50029  1.0000
  Cd  Cd18      1.0  0.5008200000000003  0.9986299999999999  0.4998699999999999  1.0000
  H   H1        1.0  0.22649000000000008  0.6182399999999998  0.10638  1.0000
  H   H2        1.0  0.10034999999999994  0.68429  0.15024  1.0000
  H   H3        1.0  0.8392200000000001  0.22638999999999998  0.53802  1.0000
  H   H4        1.0  0.79698  0.32418  0.48853  1.0000
  H   H5        1.0  0.12560999999999997  0.02551  0.62283  1.0000
  H   H6        1.0  0.55051  0.23942999999999995  0.2351  1.0000
  H   H7        1.0  0.5024200000000001  0.33741  0.18909999999999993  1.0000
  H   H8        1.0  0.06954  0.05433999999999999  0.04702  1.0000
  H   H9        1.0  0.6871800000000001  0.38276  0.10690999999999998  1.0000
  H   H10       1.0  0.7538700000000002  0.31540999999999997  0.16086  1.0000
  H   H11       1.0  0.62618  0.77079  0.53499  1.0000
  H   H12       1.0  0.7244200000000001  0.6780399999999998  0.48368  1.0000
  H   H13       1.0  0.25514  0.98289  0.62282  1.0000
  H   H14       1.0  0.20169  0.76669  0.25038  1.0000
  H   H15       1.0  0.29018000000000005  0.66435  0.20357  1.0000
  H   H16       1.0  0.85127  0.9239299999999999  0.04718  1.0000
  H   H17       1.0  0.7938500000000001  0.38253  0.8929199999999999  1.0000
  H   H18       1.0  0.91459  0.31540999999999997  0.83874  1.0000
  H   H19       1.0  0.16043  0.77037  0.46515  1.0000
  H   H20       1.0  0.20774000000000012  0.6779  0.5164199999999998  1.0000
  H   H21       1.0  0.87852  0.9817699999999998  0.3768399999999999  1.0000
  H   H22       1.0  0.4520400000000001  0.7668699999999998  0.74969  1.0000
  H   H23       1.0  0.49337000000000014  0.66464  0.7966899999999998  1.0000
  H   H24       1.0  0.8985400000000001  0.92378  0.9529  1.0000
  H   H25       1.0  0.33236000000000004  0.6182199999999998  0.8938699999999999  1.0000
  H   H26       1.0  0.2502900000000002  0.6843399999999998  0.8500199999999998  1.0000
  H   H27       1.0  0.3763700000000001  0.22621999999999995  0.4620099999999999  1.0000
  H   H28       1.0  0.28512  0.32423  0.51148  1.0000
  H   H29       1.0  0.7485099999999998  0.02519  0.37651  1.0000
  H   H30       1.0  0.7855700000000001  0.23984  0.7647699999999998  1.0000
  H   H31       1.0  0.69129  0.3377  0.8108099999999999  1.0000
  H   H32       1.0  0.11671  0.05425999999999999  0.95281  1.0000
  C   C1        1.0  0.11792000000000001  0.53601  0.17323  1.0000
  C   C2        1.0  0.91464  0.21844999999999998  0.42789  1.0000
  C   C3        1.0  0.4226700000000001  0.21891999999999998  0.20805999999999994  1.0000
  C   C4        1.0  0.7087800000000001  0.46273999999999993  0.18305  1.0000
  C   C5        1.0  0.66631  0.7854899999999998  0.42474  1.0000
  C   C6        1.0  0.3588799999999999  0.77959  0.22076  1.0000
  C   C7        1.0  0.89159  0.4628  0.8168899999999998  1.0000
  C   C8        1.0  0.09061000000000012  0.78536  0.5753799999999998  1.0000
  C   C9        1.0  0.57939  0.77976  0.7795599999999998  1.0000
  C   C10       1.0  0.29088  0.53616  0.82684  1.0000
  C   C11       1.0  0.34201  0.21848  0.57207  1.0000
  C   C12       1.0  0.6307800000000001  0.21901999999999994  0.79192  1.0000
  C   C13       1.0  0.1609800000000001  0.15995  0.9999299999999999  1.0000
  C   C14       1.0  0.80773  0.81744  6.999999999999997e-05  1.0000
  C   C15       1.0  0.23998999999999993  0.99773  0.52085  1.0000
  C   C16       1.0  0.7609200000000002  0.99982  0.47908  1.0000
  N   N1        1.0  0.1714700000000001  0.4430599999999999  0.15088999999999997  1.0000
  N   N2        1.0  0.10358000000000003  0.37967  0.18805  1.0000
  N   N3        1.0  0.014180000000000002  0.43099  0.23106  1.0000
  N   N4        1.0  0.019720000000000036  0.52988  0.22405999999999998  1.0000
  N   N5        1.0  0.15679000000000004  0.6233599999999999  0.15047  1.0000
  N   N6        1.0  0.9345100000000001  0.25847  0.35956  1.0000
  N   N7        1.0  0.025070000000000016  0.20191999999999996  0.3158  1.0000
  N   N8        1.0  0.05782000000000007  0.13079  0.3547899999999999  1.0000
  N   N9        1.0  0.9908199999999999  0.13828  0.4255  1.0000
  N   N10       1.0  0.8293100000000002  0.25069  0.48926999999999987  1.0000
  N   N11       1.0  0.17892000000000005  0.00625  0.47736  1.0000
  N   N12       1.0  0.24750000000000005  0.007239999999999999  0.4071499999999999  1.0000
  N   N13       1.0  0.39889  0.13469  0.24748999999999993  1.0000
  N   N14       1.0  0.30832000000000004  0.11641  0.23829999999999998  1.0000
  N   N15       1.0  0.27880000000000005  0.18569  0.19602  1.0000
  N   N16       1.0  0.34897999999999996  0.25165  0.17519  1.0000
  N   N17       1.0  0.5099400000000001  0.26229  0.19989999999999994  1.0000
  N   N18       1.0  0.16865  0.1983  0.06044  1.0000
  N   N19       1.0  0.24441  0.25911  0.0358  1.0000
  N   N20       1.0  0.6703800000000001  0.55548  0.16408999999999999  1.0000
  N   N21       1.0  0.6991400000000001  0.6201799999999998  0.20129  1.0000
  N   N22       1.0  0.7503  0.57047  0.24193  1.0000
  N   N23       1.0  0.75734  0.47114999999999996  0.23286  1.0000
  N   N24       1.0  0.69837  0.37556  0.15703  1.0000
  N   N25       1.0  0.71996  0.75053  0.3553  1.0000
  N   N26       1.0  0.6722200000000002  0.80712  0.31212  1.0000
  N   N27       1.0  0.5955300000000001  0.8739099999999997  0.3521199999999999  1.0000
  N   N28       1.0  0.58912  0.8630599999999998  0.4232899999999999  1.0000
  N   N29       1.0  0.6876  0.75064  0.4864899999999999  1.0000
  N   N30       1.0  0.34427999999999986  0.99356  0.47754  1.0000
  N   N31       1.0  0.34561  0.99906  0.40712  1.0000
  N   N32       1.0  0.3473100000000002  0.8667399999999997  0.2557599999999999  1.0000
  N   N33       1.0  0.44811000000000006  0.88251  0.24516999999999997  1.0000
  N   N34       1.0  0.51724  0.80914  0.20626  1.0000
  N   N35       1.0  0.46473  0.7425299999999998  0.18931999999999996  1.0000
  N   N36       1.0  0.27656  0.73873  0.21596  1.0000
  N   N37       1.0  0.7402  0.77874  0.06086  1.0000
  N   N38       1.0  0.69007  0.71747  0.03606999999999999  1.0000
  N   N39       1.0  0.83415  0.5555  0.83595  1.0000
  N   N40       1.0  0.9000800000000001  0.6202799999999999  0.7988  1.0000
  N   N41       1.0  0.9919699999999998  0.57066  0.75811  1.0000
  N   N42       1.0  0.9900400000000001  0.47132  0.76715  1.0000
  N   N43       1.0  0.8551800000000002  0.37556  0.8427699999999998  1.0000
  N   N44       1.0  0.07528000000000014  0.7509199999999998  0.6449099999999998  1.0000
  N   N45       1.0  0.9844099999999999  0.80759  0.68813  1.0000
  N   N46       1.0  0.94726  0.87386  0.64805  1.0000
  N   N47       1.0  0.011669999999999974  0.8626199999999999  0.57681  1.0000
  N   N48       1.0  0.17358999999999988  0.75045  0.51357  1.0000
  N   N49       1.0  0.8218800000000005  0.99453  0.52247  1.0000
  N   N50       1.0  0.75271  0.9994599999999999  0.5929099999999998  1.0000
  N   N51       1.0  0.6029700000000002  0.86691  0.7446099999999998  1.0000
  N   N52       1.0  0.6931400000000004  0.8825999999999999  0.75527  1.0000
  N   N53       1.0  0.7232200000000002  0.80918  0.7941799999999998  1.0000
  N   N54       1.0  0.65369  0.7426099999999999  0.8110499999999999  1.0000
  N   N55       1.0  0.49222  0.739  0.78428  1.0000
  N   N56       1.0  0.80095  0.7787899999999999  0.9393  1.0000
  N   N57       1.0  0.7260800000000001  0.71745  0.96411  1.0000
  N   N58       1.0  0.3219000000000001  0.4432  0.84922  1.0000
  N   N59       1.0  0.29129999999999995  0.37986999999999993  0.81197  1.0000
  N   N60       1.0  0.24509000000000006  0.4312299999999999  0.7688999999999999  1.0000
  N   N61       1.0  0.24377999999999997  0.5301  0.77588  1.0000
  N   N62       1.0  0.3070400000000001  0.62344  0.84968  1.0000
  N   N63       1.0  0.29442  0.25922  0.64022  1.0000
  N   N64       1.0  0.34123  0.20269999999999996  0.68396  1.0000
  N   N65       1.0  0.4121100000000001  0.13086  0.64514  1.0000
  N   N66       1.0  0.41522000000000003  0.13786  0.5745699999999998  1.0000
  N   N67       1.0  0.31782  0.25063  0.5108  1.0000
  N   N68       1.0  0.6562500000000001  0.00865  0.5225299999999998  1.0000
  N   N69       1.0  0.6546200000000001  0.00845  0.59282  1.0000
  N   N70       1.0  0.64653  0.13478  0.75249  1.0000
  N   N71       1.0  0.54675  0.1165  0.7616499999999999  1.0000
  N   N72       1.0  0.4748800000000001  0.18581  0.80391  1.0000
  N   N73       1.0  0.5242000000000003  0.25175  0.8247499999999998  1.0000
  N   N74       1.0  0.7097900000000001  0.26255  0.8000799999999999  1.0000
  N   N75       1.0  0.22909  0.19847  0.93942  1.0000
  N   N76       1.0  0.28025000000000017  0.25919  0.9640899999999999  1.0000
  N   N77       1.0  0.09271999999999996  0.09554  0.9999  1.0000
  N   N78       1.0  0.87479  0.88262  6.999999999999997e-05  1.0000
  N   N79       1.0  0.20168999999999995  0.99038  0.5956  1.0000
  N   N80       1.0  0.7977900000000002  0.99354  0.40436  1.0000
  Cl  Cl1       1.0  0.12208000000000002  0.9977199999999999  0.19192  1.0000
  Cl  Cl2       1.0  0.88915  0.22524  0.20124  1.0000
  Cl  Cl3       1.0  0.06714000000000007  0.8708099999999998  0.3816799999999999  1.0000
  Cl  Cl4       1.0  0.6809  0.99602  0.18129  1.0000
  Cl  Cl5       1.0  0.9134300000000001  0.76737  0.18288  1.0000
  Cl  Cl6       1.0  0.5539200000000002  0.12853  0.37942  1.0000
  Cl  Cl7       1.0  0.86156  0.9961899999999999  0.8191499999999999  1.0000
  Cl  Cl8       1.0  0.09580999999999995  0.76721  0.81767  1.0000
  Cl  Cl9       1.0  0.9338999999999997  0.12848  0.62071  1.0000
  Cl  Cl10      1.0  0.31375000000000003  0.99817  0.80764  1.0000
  Cl  Cl11      1.0  0.09060000000000003  0.22519  0.7982599999999999  1.0000
  Cl  Cl12      1.0  0.4509400000000001  0.87013  0.6179399999999998  1.0000
  Cl  Cl13      1.0  0.40568000000000004  0.49939  0.17092  1.0000
  Cl  Cl14      1.0  0.5765600000000004  0.49938  0.82901  1.0000
  Cl  Cl15      1.0  0.45943  0.6762399999999998  0.00015  1.0000
  Cl  Cl16      1.0  0.66873  0.4642699999999999  2e-05  1.0000
  Cl  Cl17      1.0  0.81396  0.50661  0.39775  1.0000
  Cl  Cl18      1.0  0.21153000000000008  0.50683  0.6021799999999999  1.0000
