data_image0
_chemical_formula_structural       Zn12H24C72O48
_chemical_formula_sum              "Zn12 H24 C72 O48"
_cell_length_a       12.17558
_cell_length_b       16.85357
_cell_length_c       28.06164
_cell_angle_alpha    106.71937
_cell_angle_beta     89.97049999999999
_cell_angle_gamma    111.00011

_space_group_name_H-M_alt    "P 1"
_space_group_IT_number       1

loop_
  _space_group_symop_operation_xyz
  'x, y, z'

loop_
  _atom_site_type_symbol
  _atom_site_label
  _atom_site_symmetry_multiplicity
  _atom_site_fract_x
  _atom_site_fract_y
  _atom_site_fract_z
  _atom_site_occupancy
  Zn  Zn1       1.0  0.14259000000000002  0.53424  0.12985  1.0000
  Zn  Zn2       1.0  0.23192999999999994  0.38071999999999995  0.12057999999999998  1.0000
  Zn  Zn3       1.0  0.23308999999999996  0.047499999999999945  0.8105999999999999  1.0000
  Zn  Zn4       1.0  0.6113199999999999  0.4685399999999999  0.37194  1.0000
  Zn  Zn5       1.0  0.85022  0.6194999999999998  0.37981  1.0000
  Zn  Zn6       1.0  0.18667999999999987  0.9521199999999996  0.6886499999999999  1.0000
  Zn  Zn7       1.0  0.8573999999999999  0.46575999999999984  0.8701599999999999  1.0000
  Zn  Zn8       1.0  0.7680599999999996  0.6192799999999997  0.8794199999999999  1.0000
  Zn  Zn9       1.0  0.7668999999999999  0.9524999999999998  0.18939999999999999  1.0000
  Zn  Zn10      1.0  0.38866999999999996  0.53145  0.62806  1.0000
  Zn  Zn11      1.0  0.14976999999999996  0.38049000000000005  0.62019  1.0000
  Zn  Zn12      1.0  0.81331  0.04786999999999997  0.3113499999999999  1.0000
  H   H1        1.0  0.22528999999999996  0.22927999999999996  0.9599399999999999  1.0000
  H   H2        1.0  0.029879999999999973  0.24273999999999996  0.83628  1.0000
  H   H3        1.0  0.052529999999999924  0.41875999999999985  0.9851599999999998  1.0000
  H   H4        1.0  0.48135  0.52014  0.2503  1.0000
  H   H5        1.0  0.72788  0.7887899999999999  0.32153  1.0000
  H   H6        1.0  0.47783000000000003  0.73503  0.19662999999999994  1.0000
  H   H7        1.0  0.9940899999999999  0.77143  0.53974  1.0000
  H   H8        1.0  0.79093  0.7568699999999998  0.66501  1.0000
  H   H9        1.0  0.63243  0.58432  0.51623  1.0000
  H   H10       1.0  0.9606  0.48020000000000007  0.25085  1.0000
  H   H11       1.0  0.93708  0.21089999999999995  0.17785  1.0000
  H   H12       1.0  0.74483  0.26514  0.3044  1.0000
  H   H13       1.0  0.7747  0.77072  0.040059999999999985  1.0000
  H   H14       1.0  0.9701099999999999  0.7572499999999998  0.16372  1.0000
  H   H15       1.0  0.94746  0.58124  0.01485  1.0000
  H   H16       1.0  0.51864  0.47986000000000006  0.7497  1.0000
  H   H17       1.0  0.27210999999999996  0.21120999999999995  0.6784699999999999  1.0000
  H   H18       1.0  0.52216  0.2649599999999998  0.80337  1.0000
  H   H19       1.0  0.0059  0.22856  0.46026  1.0000
  H   H20       1.0  0.20905999999999997  0.24313  0.33499  1.0000
  H   H21       1.0  0.36756  0.41567  0.48377  1.0000
  H   H22       1.0  0.039399999999999984  0.5198  0.74915  1.0000
  H   H23       1.0  0.06290999999999983  0.7890899999999997  0.82215  1.0000
  H   H24       1.0  0.25516000000000005  0.73486  0.6956  1.0000
  C   C1        1.0  0.1424199999999999  0.3268099999999998  0.9785099999999998  1.0000
  C   C2        1.0  0.17173000000000002  0.2590300000000001  0.94583  1.0000
  C   C3        1.0  0.13159  0.22879  0.89466  1.0000
  C   C4        1.0  0.061949999999999984  0.26637999999999995  0.8759899999999998  1.0000
  C   C5        1.0  0.03409000000000003  0.33516  0.90861  1.0000
  C   C6        1.0  0.07447000000000002  0.36552000000000007  0.95987  1.0000
  C   C7        1.0  0.18105  0.35558  0.03291  1.0000
  C   C8        1.0  0.16470999999999994  0.15695999999999988  0.86103  1.0000
  C   C9        1.0  0.9617899999999999  0.37700999999999985  0.8892899999999999  1.0000
  C   C10       1.0  0.4687  0.62096  0.21949  1.0000
  C   C11       1.0  0.51586  0.59063  0.25307  1.0000
  C   C12       1.0  0.6087999999999999  0.6510899999999998  0.28997  1.0000
  C   C13       1.0  0.6545599999999998  0.7417599999999996  0.29341  1.0000
  C   C14       1.0  0.60733  0.77193  0.25985  1.0000
  C   C15       1.0  0.5139199999999999  0.7116899999999998  0.22294  1.0000
  C   C16       1.0  0.37067  0.55609  0.1798  1.0000
  C   C17       1.0  0.66273  0.6182299999999997  0.32414  1.0000
  C   C18       1.0  0.66314  0.86711  0.26125  1.0000
  C   C19       1.0  0.81387  0.67472  0.52221  1.0000
  C   C20       1.0  0.91169  0.74186  0.55435  1.0000
  C   C21       1.0  0.9034999999999997  0.7715699999999998  0.6057399999999998  1.0000
  C   C22       1.0  0.79764  0.73394  0.62507  1.0000
  C   C23       1.0  0.7001  0.66614  0.59284  1.0000
  C   C24       1.0  0.70806  0.63671  0.54137  1.0000
  C   C25       1.0  0.82153  0.6448  0.46779  1.0000
  C   C26       1.0  0.009049999999999855  0.8428399999999998  0.63873  1.0000
  C   C27       1.0  0.5876899999999999  0.6244599999999998  0.61316  1.0000
  C   C28       1.0  0.84843  0.3792199999999999  0.28147  1.0000
  C   C29       1.0  0.92502  0.4095399999999999  0.2477  1.0000
  C   C30       1.0  0.95664  0.34889999999999993  0.21024999999999994  1.0000
  C   C31       1.0  0.91167  0.2580699999999999  0.20652999999999996  1.0000
  C   C32       1.0  0.83538  0.22802999999999995  0.24046  1.0000
  C   C33       1.0  0.8033099999999997  0.2884799999999999  0.27789  1.0000
  C   C34       1.0  0.8155399999999999  0.44406  0.32138999999999995  1.0000
  C   C35       1.0  0.042999999999999934  0.38207999999999986  0.17593  1.0000
  C   C36       1.0  0.7963  0.13286999999999993  0.239  1.0000
  C   C37       1.0  0.85757  0.6731899999999997  0.02149  1.0000
  C   C38       1.0  0.8282599999999998  0.7409599999999997  0.05417  1.0000
  C   C39       1.0  0.8684  0.77121  0.10535  1.0000
  C   C40       1.0  0.93804  0.73361  0.12401999999999998  1.0000
  C   C41       1.0  0.9659  0.66484  0.09139  1.0000
  C   C42       1.0  0.92552  0.63447  0.04013  1.0000
  C   C43       1.0  0.8189399999999999  0.64442  0.9671  1.0000
  C   C44       1.0  0.83528  0.84303  0.13897  1.0000
  C   C45       1.0  0.03820000000000001  0.62298  0.11070999999999999  1.0000
  C   C46       1.0  0.5312899999999999  0.37903999999999993  0.7805099999999999  1.0000
  C   C47       1.0  0.48413  0.4093699999999999  0.74694  1.0000
  C   C48       1.0  0.39118999999999987  0.3488999999999998  0.7100399999999999  1.0000
  C   C49       1.0  0.34542999999999985  0.2582399999999998  0.70659  1.0000
  C   C50       1.0  0.39265999999999995  0.22807  0.74016  1.0000
  C   C51       1.0  0.4860699999999999  0.2883099999999999  0.77707  1.0000
  C   C52       1.0  0.6293199999999999  0.44390999999999986  0.8202099999999999  1.0000
  C   C53       1.0  0.33726  0.38176  0.67586  1.0000
  C   C54       1.0  0.33684999999999987  0.1328899999999999  0.73875  1.0000
  C   C55       1.0  0.18612  0.32528  0.47779  1.0000
  C   C56       1.0  0.08829999999999996  0.25813999999999987  0.4456499999999999  1.0000
  C   C57       1.0  0.09648999999999994  0.22841999999999987  0.3942599999999999  1.0000
  C   C58       1.0  0.20235  0.26605  0.37493  1.0000
  C   C59       1.0  0.29989  0.33385  0.40716  1.0000
  C   C60       1.0  0.29192999999999997  0.3632799999999998  0.45862999999999987  1.0000
  C   C61       1.0  0.17845999999999992  0.3551899999999999  0.53221  1.0000
  C   C62       1.0  0.99094  0.15715999999999994  0.36127  1.0000
  C   C63       1.0  0.4123  0.37554  0.38684  1.0000
  C   C64       1.0  0.15156  0.62078  0.71853  1.0000
  C   C65       1.0  0.07497  0.59046  0.7522999999999999  1.0000
  C   C66       1.0  0.04334999999999999  0.6511  0.78975  1.0000
  C   C67       1.0  0.0883199999999998  0.7419299999999995  0.7934799999999997  1.0000
  C   C68       1.0  0.1646099999999999  0.7719599999999998  0.75955  1.0000
  C   C69       1.0  0.19668  0.71151  0.72212  1.0000
  C   C70       1.0  0.18444999999999975  0.5559399999999995  0.6786099999999998  1.0000
  C   C71       1.0  0.95699  0.61792  0.82407  1.0000
  C   C72       1.0  0.20369  0.86712  0.76101  1.0000
  O   O1        1.0  0.16065  0.42044  0.06348  1.0000
  O   O2        1.0  0.23347999999999997  0.31329  0.04999  1.0000
  O   O3        1.0  0.23806999999999992  0.13057999999999986  0.8791699999999998  1.0000
  O   O4        1.0  0.12292000000000002  0.12173000000000002  0.81475  1.0000
  O   O5        1.0  0.92412  0.35314  0.84335  1.0000
  O   O6        1.0  0.9394299999999999  0.44049  0.92148  1.0000
  O   O7        1.0  0.31149  0.58674  0.15772  1.0000
  O   O8        1.0  0.35445999999999994  0.47317  0.17098  1.0000
  O   O9        1.0  0.60504  0.54027  0.32686  1.0000
  O   O10       1.0  0.76529  0.6712599999999997  0.34742999999999996  1.0000
  O   O11       1.0  0.73558  0.92114  0.30019  1.0000
  O   O12       1.0  0.63855  0.88867  0.22377999999999995  1.0000
  O   O13       1.0  0.73317  0.5828999999999998  0.43785999999999997  1.0000
  O   O14       1.0  0.9175699999999998  0.6832199999999998  0.4502  1.0000
  O   O15       1.0  0.10678  0.87007  0.6195  1.0000
  O   O16       1.0  0.004979999999999819  0.8769899999999996  0.6854799999999998  1.0000
  O   O17       1.0  0.5770799999999999  0.6466099999999999  0.6592199999999998  1.0000
  O   O18       1.0  0.50056  0.56271  0.58065  1.0000
  O   O19       1.0  0.72487  0.41349999999999987  0.34295  1.0000
  O   O20       1.0  0.88293  0.52686  0.33088  1.0000
  O   O21       1.0  0.061739999999999996  0.46011  0.17341  1.0000
  O   O22       1.0  0.09342999999999997  0.32952999999999993  0.15249999999999997  1.0000
  O   O23       1.0  0.8159799999999999  0.07908999999999994  0.20013999999999996  1.0000
  O   O24       1.0  0.74946  0.11111999999999997  0.27631  1.0000
  O   O25       1.0  0.83935  0.57956  0.93652  1.0000
  O   O26       1.0  0.7665099999999999  0.6867099999999998  0.95002  1.0000
  O   O27       1.0  0.76192  0.86942  0.12082999999999998  1.0000
  O   O28       1.0  0.87707  0.8782599999999998  0.18525999999999995  1.0000
  O   O29       1.0  0.07587000000000003  0.64685  0.15666  1.0000
  O   O30       1.0  0.06055999999999998  0.5595  0.07852  1.0000
  O   O31       1.0  0.6885  0.41326  0.84229  1.0000
  O   O32       1.0  0.64554  0.5268299999999999  0.8290299999999999  1.0000
  O   O33       1.0  0.39494999999999997  0.45973  0.67314  1.0000
  O   O34       1.0  0.2346999999999999  0.32873999999999987  0.65258  1.0000
  O   O35       1.0  0.26441  0.07885  0.69981  1.0000
  O   O36       1.0  0.36144  0.11132999999999993  0.77622  1.0000
  O   O37       1.0  0.26682  0.41709  0.56214  1.0000
  O   O38       1.0  0.08241999999999998  0.31677  0.54981  1.0000
  O   O39       1.0  0.8932099999999998  0.12992999999999988  0.3804999999999999  1.0000
  O   O40       1.0  0.99501  0.12300999999999997  0.31453  1.0000
  O   O41       1.0  0.42291  0.3533799999999999  0.34079  1.0000
  O   O42       1.0  0.49942999999999993  0.43728  0.41935  1.0000
  O   O43       1.0  0.27512  0.58649  0.65706  1.0000
  O   O44       1.0  0.11705999999999998  0.4731399999999999  0.6691199999999999  1.0000
  O   O45       1.0  0.93825  0.53989  0.82659  1.0000
  O   O46       1.0  0.9065599999999999  0.6704599999999997  0.8475  1.0000
  O   O47       1.0  0.18400999999999992  0.9209099999999998  0.7998599999999999  1.0000
  O   O48       1.0  0.25052999999999986  0.8888699999999998  0.7237  1.0000
