data_image0
_chemical_formula_structural       Mn6H52C88O24
_chemical_formula_sum              "Mn6 H52 C88 O24"
_cell_length_a       13.49254
_cell_length_b       16.02319
_cell_length_c       17.55955
_cell_angle_alpha    66.38768
_cell_angle_beta     67.41527
_cell_angle_gamma    64.93803

_space_group_name_H-M_alt    "P 1"
_space_group_IT_number       1

loop_
  _space_group_symop_operation_xyz
  'x, y, z'

loop_
  _atom_site_type_symbol
  _atom_site_label
  _atom_site_symmetry_multiplicity
  _atom_site_fract_x
  _atom_site_fract_y
  _atom_site_fract_z
  _atom_site_occupancy
  Mn  Mn1       1.0  0.42338999999999977  0.46952  0.61244  1.0000
  Mn  Mn2       1.0  0.50615  0.022530000000000053  0.8907099999999998  1.0000
  Mn  Mn3       1.0  0.5763500000000003  0.52357  0.3945599999999999  1.0000
  Mn  Mn4       1.0  0.5105599999999999  0.96381  0.09779  1.0000
  Mn  Mn5       1.0  0.46022000000000013  0.24871000000000001  0.7498899999999997  1.0000
  Mn  Mn6       1.0  0.5390699999999999  0.74912  0.25048  1.0000
  H   H1        1.0  0.06284999999999998  0.5990700000000001  0.7382199999999998  1.0000
  H   H2        1.0  0.8596899999999998  0.6286799999999999  0.82158  1.0000
  H   H3        1.0  0.9199200000000001  0.3236  0.9240499999999998  1.0000
  H   H4        1.0  0.12477000000000009  0.29513000000000006  0.8454499999999998  1.0000
  H   H5        1.0  0.7508899999999995  0.43395000000000006  0.9864199999999997  1.0000
  H   H6        1.0  0.7908799999999999  0.52168  0.049099999999999984  1.0000
  H   H7        1.0  0.71845  0.6683499999999999  0.09505999999999998  1.0000
  H   H8        1.0  0.5215700000000001  0.8171599999999999  0.9068599999999998  1.0000
  H   H9        1.0  0.59539  0.66963  0.8612799999999998  1.0000
  H   H10       1.0  0.6082899999999997  0.38852000000000003  0.9904899999999998  1.0000
  H   H11       1.0  0.52348  0.35028999999999993  0.91042  1.0000
  H   H12       1.0  0.6660999999999999  0.5334  0.67451  1.0000
  H   H13       1.0  0.7619799999999998  0.56389  0.75266  1.0000
  H   H14       1.0  0.3981100000000001  0.89851  0.7636099999999998  1.0000
  H   H15       1.0  0.3088  0.87295  0.6773399999999999  1.0000
  H   H16       1.0  0.16980000000000003  0.17891  0.57667  1.0000
  H   H17       1.0  0.2652799999999998  0.20386999999999997  0.65909  1.0000
  H   H18       1.0  0.16863999999999998  0.07112000000000002  0.5136  1.0000
  H   H19       1.0  0.36169000000000007  0.9794900000000001  0.45151999999999987  1.0000
  H   H20       1.0  0.47906999999999966  0.82967  0.40731  1.0000
  H   H21       1.0  0.23900000000000002  0.6885800000000001  0.5953299999999998  1.0000
  H   H22       1.0  0.11997999999999999  0.83959  0.6382299999999997  1.0000
  H   H23       1.0  0.9829299999999999  0.11444000000000001  0.5114799999999999  1.0000
  H   H24       1.0  0.7803599999999999  0.14724000000000012  0.5930899999999998  1.0000
  H   H25       1.0  0.87723  0.9643900000000001  0.8270799999999998  1.0000
  H   H26       1.0  0.08067000000000023  0.9393999999999997  0.74731  1.0000
  H   H27       1.0  0.9294699999999999  0.41248999999999997  0.26219  1.0000
  H   H28       1.0  0.1330300000000001  0.38232  0.18141999999999994  1.0000
  H   H29       1.0  0.07280000000000003  0.68734  0.07531999999999997  1.0000
  H   H30       1.0  0.8678100000000002  0.7163699999999997  0.15190999999999993  1.0000
  H   H31       1.0  0.24256  0.57633  0.01432  1.0000
  H   H32       1.0  0.20428000000000004  0.48203999999999997  0.95364  1.0000
  H   H33       1.0  0.28659  0.3322599999999999  0.9090799999999998  1.0000
  H   H34       1.0  0.47345  0.19466999999999998  0.10173999999999997  1.0000
  H   H35       1.0  0.39395  0.34646  0.14414  1.0000
  H   H36       1.0  0.38497000000000003  0.62285  0.00946  1.0000
  H   H37       1.0  0.47482  0.65939  0.08635999999999998  1.0000
  H   H38       1.0  0.33454  0.47646  0.3243999999999999  1.0000
  H   H39       1.0  0.23411999999999997  0.44741  0.24914999999999995  1.0000
  H   H40       1.0  0.60408  0.08991999999999994  0.22491  1.0000
  H   H41       1.0  0.69814  0.12229999999999999  0.30251999999999996  1.0000
  H   H42       1.0  0.83372  0.81804  0.41595  1.0000
  H   H43       1.0  0.7321200000000001  0.78665  0.34335999999999994  1.0000
  H   H44       1.0  0.8325899999999998  0.92673  0.47366  1.0000
  H   H45       1.0  0.6408599999999998  0.014619999999999992  0.53893  1.0000
  H   H46       1.0  0.5277399999999999  0.15782999999999994  0.59343  1.0000
  H   H47       1.0  0.76222  0.30539  0.4059699999999999  1.0000
  H   H48       1.0  0.87802  0.16018000000000004  0.3541699999999999  1.0000
  H   H49       1.0  0.011700000000000037  0.88151  0.4844099999999999  1.0000
  H   H50       1.0  0.21659000000000003  0.8421699999999999  0.41293  1.0000
  H   H51       1.0  0.14342999999999997  0.027419999999999996  0.17107  1.0000
  H   H52       1.0  0.93718  0.05799000000000002  0.24084999999999995  1.0000
  C   C1        1.0  0.22742000000000007  0.42617  0.7404999999999998  1.0000
  C   C2        1.0  0.10571000000000011  0.44539999999999996  0.78724  1.0000
  C   C3        1.0  0.030650000000000125  0.53948  0.7796099999999998  1.0000
  C   C4        1.0  0.9171600000000002  0.5556  0.8254799999999998  1.0000
  C   C5        1.0  0.8763500000000001  0.47807  0.87772  1.0000
  C   C6        1.0  0.9515599999999999  0.38400000000000006  0.8842499999999998  1.0000
  C   C7        1.0  0.06539000000000009  0.3675899999999999  0.8402799999999998  1.0000
  C   C8        1.0  0.7518299999999999  0.49276999999999993  0.92602  1.0000
  C   C9        1.0  0.6976899999999999  0.58506  0.9521899999999998  1.0000
  C   C10       1.0  0.73158  0.58633  0.01829  1.0000
  C   C11       1.0  0.6920900000000001  0.6679699999999997  0.04414  1.0000
  C   C12       1.0  0.61422  0.75308  0.00514  1.0000
  C   C13       1.0  0.5812599999999999  0.7528800000000001  0.9374899999999998  1.0000
  C   C14       1.0  0.6227300000000002  0.6695099999999999  0.9121899999999997  1.0000
  C   C15       1.0  0.5696799999999997  0.83187  0.03917  1.0000
  C   C16       1.0  0.6910500000000004  0.47892  0.87708  1.0000
  C   C17       1.0  0.6221999999999999  0.4197300000000001  0.9211199999999998  1.0000
  C   C18       1.0  0.5739300000000003  0.3983900000000001  0.8767899999999997  1.0000
  C   C19       1.0  0.5900199999999997  0.43903000000000003  0.7876999999999997  1.0000
  C   C20       1.0  0.65476  0.5017  0.7435699999999997  1.0000
  C   C21       1.0  0.70645  0.5198399999999999  0.7878199999999997  1.0000
  C   C22       1.0  0.5376499999999999  0.41613000000000006  0.74113  1.0000
  C   C23       1.0  0.39089999999999986  0.06836000000000005  0.7670399999999998  1.0000
  C   C24       1.0  0.33698  0.05249000000000001  0.71668  1.0000
  C   C25       1.0  0.34849000000000024  0.9592899999999996  0.7221  1.0000
  C   C26       1.0  0.2975399999999999  0.94542  0.67444  1.0000
  C   C27       1.0  0.23231000000000002  0.02437000000000009  0.6221299999999997  1.0000
  C   C28       1.0  0.22089  0.11754999999999999  0.6169599999999998  1.0000
  C   C29       1.0  0.27337000000000006  0.13184  0.66309  1.0000
  C   C30       1.0  0.16906000000000004  0.011950000000000087  0.5737399999999998  1.0000
  C   C31       1.0  0.2328099999999998  0.91942  0.54755  1.0000
  C   C32       1.0  0.3345399999999999  0.91593  0.48247  1.0000
  C   C33       1.0  0.40095  0.83245  0.4581199999999999  1.0000
  C   C34       1.0  0.36641999999999986  0.75016  0.49860999999999994  1.0000
  C   C35       1.0  0.26533  0.7525600000000001  0.5642399999999997  1.0000
  C   C36       1.0  0.19891000000000006  0.83711  0.5880599999999998  1.0000
  C   C37       1.0  0.43521000000000004  0.66364  0.46937  1.0000
  C   C38       1.0  0.04581999999999999  0.024929999999999997  0.62388  1.0000
  C   C39       1.0  0.96026  0.0826  0.58082  1.0000
  C   C40       1.0  0.8466299999999997  0.10055999999999998  0.62603  1.0000
  C   C41       1.0  0.81642  0.05812000000000002  0.71498  1.0000
  C   C42       1.0  0.90146  0.9974799999999998  0.75813  1.0000
  C   C43       1.0  0.015030000000000014  0.9827399999999998  0.71302  1.0000
  C   C44       1.0  0.6947699999999998  0.07797999999999998  0.76243  1.0000
  C   C45       1.0  0.7643799999999997  0.58347  0.25693  1.0000
  C   C46       1.0  0.8862499999999999  0.56607  0.21165999999999993  1.0000
  C   C47       1.0  0.96183  0.47196000000000005  0.22078999999999993  1.0000
  C   C48       1.0  0.07572999999999998  0.45561  0.17617999999999995  1.0000
  C   C49       1.0  0.11663999999999997  0.53297  0.12332  1.0000
  C   C50       1.0  0.041120000000000004  0.62708  0.11559  1.0000
  C   C51       1.0  0.9269299999999996  0.64372  0.15849999999999995  1.0000
  C   C52       1.0  0.24114999999999995  0.51834  0.07527  1.0000
  C   C53       1.0  0.29545  0.4247499999999999  0.050689999999999985  1.0000
  C   C54       1.0  0.26472999999999997  0.41942  0.9851299999999997  1.0000
  C   C55       1.0  0.3094000000000001  0.33548000000000006  0.9606799999999998  1.0000
  C   C56       1.0  0.38577  0.2543  0.00255  1.0000
  C   C57       1.0  0.4148  0.25835  0.06956  1.0000
  C   C58       1.0  0.37045  0.34316  0.09291999999999997  1.0000
  C   C59       1.0  0.43723  0.16458000000000006  0.9773699999999997  1.0000
  C   C60       1.0  0.30273  0.53276  0.12360999999999997  1.0000
  C   C61       1.0  0.37200000000000005  0.59166  0.07876999999999998  1.0000
  C   C62       1.0  0.42345999999999984  0.61199  0.12161999999999998  1.0000
  C   C63       1.0  0.4098599999999998  0.57057  0.21054999999999993  1.0000
  C   C64       1.0  0.34402999999999984  0.50864  0.25554  1.0000
  C   C65       1.0  0.2893900000000001  0.49159  0.21273999999999996  1.0000
  C   C66       1.0  0.4634600000000002  0.5911  0.2578799999999999  1.0000
  C   C67       1.0  0.6012400000000001  0.91495  0.23883999999999994  1.0000
  C   C68       1.0  0.6614899999999999  0.9363  0.2795799999999999  1.0000
  C   C69       1.0  0.6544699999999998  0.030840000000000038  0.2669299999999999  1.0000
  C   C70       1.0  0.7085899999999996  0.048489999999999985  0.30988  1.0000
  C   C71       1.0  0.7732599999999998  0.9721900000000001  0.3644499999999999  1.0000
  C   C72       1.0  0.7824800000000004  0.87775  0.3747499999999999  1.0000
  C   C73       1.0  0.7264599999999999  0.85964  0.33414  1.0000
  C   C74       1.0  0.8338599999999996  0.9864200000000001  0.41389  1.0000
  C   C75       1.0  0.7677900000000001  0.07735000000000003  0.4431099999999999  1.0000
  C   C76       1.0  0.668  0.07810999999999998  0.51033  1.0000
  C   C77       1.0  0.6037899999999999  0.15828000000000006  0.5406299999999998  1.0000
  C   C78       1.0  0.6376100000000001  0.24095000000000003  0.5032199999999999  1.0000
  C   C79       1.0  0.7360899999999999  0.24141000000000004  0.4350099999999999  1.0000
  C   C80       1.0  0.8007599999999998  0.16007999999999992  0.40586  1.0000
  C   C81       1.0  0.5716799999999997  0.3261299999999999  0.53535  1.0000
  C   C82       1.0  0.9591200000000001  0.97242  0.36796  1.0000
  C   C83       1.0  0.03997000000000013  0.9125599999999998  0.4153599999999999  1.0000
  C   C84       1.0  0.15561999999999998  0.8908200000000001  0.3754899999999999  1.0000
  C   C85       1.0  0.19403000000000015  0.9317999999999997  0.28692  1.0000
  C   C86       1.0  0.11377000000000007  0.99518  0.2396  1.0000
  C   C87       1.0  0.9980199999999999  0.013329999999999993  0.27937  1.0000
  C   C88       1.0  0.3172299999999999  0.90707  0.24282  1.0000
  O   O1        1.0  0.29377  0.34105  0.76189  1.0000
  O   O2        1.0  0.25932000000000005  0.4960899999999999  0.68069  1.0000
  O   O3        1.0  0.5008099999999998  0.92076  0.00883  1.0000
  O   O4        1.0  0.5914399999999997  0.82903  0.10826  1.0000
  O   O5        1.0  0.52514  0.47516  0.6671  1.0000
  O   O6        1.0  0.50668  0.34134  0.7766499999999997  1.0000
  O   O7        1.0  0.3898900000000001  0.15312000000000003  0.75154  1.0000
  O   O8        1.0  0.43520000000000014  0.9953499999999997  0.8245599999999997  1.0000
  O   O9        1.0  0.40781  0.5860999999999998  0.50694  1.0000
  O   O10       1.0  0.523  0.6647899999999998  0.40469  1.0000
  O   O11       1.0  0.6690100000000002  0.018230000000000062  0.8362599999999998  1.0000
  O   O12       1.0  0.62303  0.15177000000000002  0.72711  1.0000
  O   O13       1.0  0.69812  0.66895  0.23293999999999995  1.0000
  O   O14       1.0  0.73362  0.51316  0.316  1.0000
  O   O15       1.0  0.5011799999999998  0.09242000000000002  0.022469999999999993  1.0000
  O   O16       1.0  0.4205100000000002  0.1591400000000001  0.9123299999999998  1.0000
  O   O17       1.0  0.4748499999999998  0.5320900000000001  0.3317599999999999  1.0000
  O   O18       1.0  0.49545999999999996  0.666  0.22213999999999995  1.0000
  O   O19       1.0  0.5845400000000001  0.8332199999999997  0.2728099999999999  1.0000
  O   O20       1.0  0.5689800000000002  0.97939  0.17145999999999995  1.0000
  O   O21       1.0  0.59821  0.40369  0.49605  1.0000
  O   O22       1.0  0.4867600000000001  0.3244700000000001  0.6028199999999998  1.0000
  O   O23       1.0  0.35119000000000006  0.96814  0.17406999999999995  1.0000
  O   O24       1.0  0.38118999999999986  0.8240300000000002  0.2773599999999999  1.0000
