data_image0
_chemical_formula_structural       Cd4H96C88N12O8
_chemical_formula_sum              "Cd4 H96 C88 N12 O8"
_cell_length_a       12.67454
_cell_length_b       12.675650000000001
_cell_length_c       18.103769999999997
_cell_angle_alpha    89.99775
_cell_angle_beta     89.99864
_cell_angle_gamma    123.80441999999998

_space_group_name_H-M_alt    "P 1"
_space_group_IT_number       1

loop_
  _space_group_symop_operation_xyz
  'x, y, z'

loop_
  _atom_site_type_symbol
  _atom_site_label
  _atom_site_symmetry_multiplicity
  _atom_site_fract_x
  _atom_site_fract_y
  _atom_site_fract_z
  _atom_site_occupancy
  Cd  Cd1       1.0  0.33727  0.00976  0.7921299999999998  1.0000
  Cd  Cd2       1.0  0.6626500000000001  0.9910500000000002  0.29327  1.0000
  Cd  Cd3       1.0  0.008890000000000002  0.33734  0.70674  1.0000
  Cd  Cd4       1.0  0.99027  0.6627200000000001  0.20791  1.0000
  H   H1        1.0  0.18826999999999997  0.09674  0.70663  1.0000
  H   H2        1.0  0.09742000000000006  0.73023  0.74364  1.0000
  H   H3        1.0  0.39957000000000004  0.8236000000000001  0.88598  1.0000
  H   H4        1.0  0.44465  0.16824  0.9307300000000001  1.0000
  H   H5        1.0  0.46991  0.42658000000000007  0.86414  1.0000
  H   H6        1.0  0.3161000000000001  0.37094000000000005  0.8328199999999999  1.0000
  H   H7        1.0  0.99701  0.017820000000000003  0.63301  1.0000
  H   H8        1.0  0.89781  0.63588  0.67487  1.0000
  H   H9        1.0  0.57441  0.87319  0.9710499999999999  1.0000
  H   H10       1.0  0.61862  0.22848000000000002  0.01922  1.0000
  H   H11       1.0  0.55446  0.4761  0.73635  1.0000
  H   H12       1.0  0.75634  0.66417  0.59648  1.0000
  H   H13       1.0  0.82714  0.8105100000000001  0.54941  1.0000
  H   H14       1.0  0.71592  0.020770000000000004  0.08131  1.0000
  H   H15       1.0  0.7503399999999999  0.1756  0.08478  1.0000
  H   H16       1.0  0.77547  0.89772  0.66295  1.0000
  H   H17       1.0  0.6824200000000004  0.7424200000000002  0.6966  1.0000
  H   H18       1.0  0.92995  0.16406  0.03768  1.0000
  H   H19       1.0  0.6459799999999999  0.8258900000000002  0.5446  1.0000
  H   H20       1.0  0.54196  0.67463  0.58444  1.0000
  H   H21       1.0  0.66261  0.019640000000000005  0.59714  1.0000
  H   H22       1.0  0.38748000000000005  0.6465200000000001  0.68674  1.0000
  H   H23       1.0  0.55902  0.10193  0.67105  1.0000
  H   H24       1.0  0.29811  0.74233  0.75774  1.0000
  H   H25       1.0  0.81163  0.9025300000000002  0.20851  1.0000
  H   H26       1.0  0.9022699999999999  0.26943000000000006  0.24367999999999998  1.0000
  H   H27       1.0  0.60012  0.17710000000000006  0.38696  1.0000
  H   H28       1.0  0.55432  0.8323  0.4315999999999999  1.0000
  H   H29       1.0  0.53224  0.5758500000000001  0.36869  1.0000
  H   H30       1.0  0.68553  0.62976  0.3370599999999999  1.0000
  H   H31       1.0  0.00280000000000009  0.9807500000000002  0.13492  1.0000
  H   H32       1.0  0.10175000000000002  0.36301  0.17474  1.0000
  H   H33       1.0  0.42488999999999993  0.12768  0.47173  1.0000
  H   H34       1.0  0.38022  0.77218  0.5200499999999999  1.0000
  H   H35       1.0  0.44522  0.52136  0.2418  1.0000
  H   H36       1.0  0.24278  0.33432  0.09686999999999997  1.0000
  H   H37       1.0  0.17240000000000003  0.18782000000000001  0.050079999999999986  1.0000
  H   H38       1.0  0.28241000000000016  0.9796400000000002  0.58169  1.0000
  H   H39       1.0  0.24749  0.82455  0.58498  1.0000
  H   H40       1.0  0.22464  0.10159000000000001  0.1638  1.0000
  H   H41       1.0  0.31711  0.25693  0.19729  1.0000
  H   H42       1.0  0.06867000000000002  0.83662  0.5375  1.0000
  H   H43       1.0  0.35397000000000006  0.17414  0.04513  1.0000
  H   H44       1.0  0.4576600000000001  0.32520000000000004  0.08532  1.0000
  H   H45       1.0  0.33825999999999995  0.98003  0.09707  1.0000
  H   H46       1.0  0.61098  0.35286  0.18816999999999995  1.0000
  H   H47       1.0  0.44208  0.89827  0.17103  1.0000
  H   H48       1.0  0.7006  0.25737  0.25909  1.0000
  H   H49       1.0  0.09748  0.18843  0.7915199999999999  1.0000
  H   H50       1.0  0.7305099999999999  0.09771  0.7563299999999997  1.0000
  H   H51       1.0  0.82283  0.3998400000000001  0.61309  1.0000
  H   H52       1.0  0.16764000000000004  0.4456100000000001  0.56839  1.0000
  H   H53       1.0  0.42413000000000006  0.46768000000000004  0.6312899999999999  1.0000
  H   H54       1.0  0.37017  0.31442  0.66294  1.0000
  H   H55       1.0  0.0192800000000001  0.9972300000000001  0.86509  1.0000
  H   H56       1.0  0.6369499999999999  0.89819  0.82523  1.0000
  H   H57       1.0  0.87224  0.57506  0.52832  1.0000
  H   H58       1.0  0.2277400000000001  0.6196900000000001  0.47994  1.0000
  H   H59       1.0  0.47867  0.55473  0.7581799999999999  1.0000
  H   H60       1.0  0.66567  0.75723  0.9031099999999999  1.0000
  H   H61       1.0  0.8121700000000001  0.8276100000000002  0.94991  1.0000
  H   H62       1.0  0.020240000000000015  0.7174200000000001  0.41826  1.0000
  H   H63       1.0  0.17535000000000012  0.7523700000000002  0.415  1.0000
  H   H64       1.0  0.8984699999999999  0.77545  0.83619  1.0000
  H   H65       1.0  0.7431099999999999  0.68293  0.80271  1.0000
  H   H66       1.0  0.16321000000000002  0.9311600000000001  0.46245  1.0000
  H   H67       1.0  0.82596  0.64618  0.95488  1.0000
  H   H68       1.0  0.67489  0.54246  0.9146999999999998  1.0000
  H   H69       1.0  0.020090000000000083  0.6618600000000001  0.90291  1.0000
  H   H70       1.0  0.64718  0.38916000000000006  0.8118799999999998  1.0000
  H   H71       1.0  0.10181  0.55797  0.8289799999999998  1.0000
  H   H72       1.0  0.7426  0.29943  0.74099  1.0000
  H   H73       1.0  0.90327  0.81168  0.29336999999999996  1.0000
  H   H74       1.0  0.2698400000000002  0.9026200000000002  0.25636  1.0000
  H   H75       1.0  0.17649  0.60047  0.11404  1.0000
  H   H76       1.0  0.83182  0.55543  0.06926  1.0000
  H   H77       1.0  0.57345  0.53016  0.13584  1.0000
  H   H78       1.0  0.6289600000000002  0.6838900000000002  0.16716  1.0000
  H   H79       1.0  0.98216  0.0029299999999999994  0.3669899999999999  1.0000
  H   H80       1.0  0.36418  0.10224000000000001  0.32511  1.0000
  H   H81       1.0  0.12689  0.42564  0.028979999999999995  1.0000
  H   H82       1.0  0.77159  0.38148  0.9807599999999999  1.0000
  H   H83       1.0  0.5237800000000001  0.4455200000000001  0.26362  1.0000
  H   H84       1.0  0.33584  0.24365000000000003  0.4035  1.0000
  H   H85       1.0  0.18949999999999997  0.17283  0.45058000000000004  1.0000
  H   H86       1.0  0.97933  0.28423000000000004  0.9186299999999998  1.0000
  H   H87       1.0  0.82448  0.24979000000000004  0.9151999999999999  1.0000
  H   H88       1.0  0.10223000000000003  0.22445000000000007  0.33705  1.0000
  H   H89       1.0  0.25754  0.31754  0.30341  1.0000
  H   H90       1.0  0.83609  0.0702  0.96227  1.0000
  H   H91       1.0  0.17400999999999997  0.35388  0.4554099999999999  1.0000
  H   H92       1.0  0.32529  0.45792000000000005  0.4156  1.0000
  H   H93       1.0  0.98025  0.33729000000000003  0.40284  1.0000
  H   H94       1.0  0.35346000000000005  0.6124100000000001  0.31331  1.0000
  H   H95       1.0  0.8980100000000001  0.44094000000000005  0.32895  1.0000
  H   H96       1.0  0.25770999999999994  0.7018700000000001  0.24233  1.0000
  C   C1        1.0  0.3757  0.24611000000000002  0.8123999999999999  1.0000
  C   C2        1.0  0.12222000000000002  0.99527  0.6982499999999998  1.0000
  C   C3        1.0  0.07146000000000009  0.7908300000000001  0.71904  1.0000
  C   C4        1.0  0.4517400000000001  0.9134900000000002  0.9155099999999999  1.0000
  C   C5        1.0  0.4778  0.10661000000000001  0.94034  1.0000
  C   C6        1.0  0.40424  0.37967  0.8172  1.0000
  C   C7        1.0  0.013520000000000037  0.94938  0.6568799999999999  1.0000
  C   C8        1.0  0.9592500000000003  0.7386200000000002  0.67986  1.0000
  C   C9        1.0  0.54976  0.9421300000000001  0.96325  1.0000
  C   C10       1.0  0.57595  0.14021  0.9887099999999999  1.0000
  C   C11       1.0  0.92679  0.8173900000000002  0.64683  1.0000
  C   C12       1.0  0.61788  0.05934  0.0006599999999999999  1.0000
  C   C13       1.0  0.80571  0.76713  0.60482  1.0000
  C   C14       1.0  0.7331800000000002  0.10021000000000001  0.04668  1.0000
  C   C15       1.0  0.71862  0.7978800000000003  0.6453399999999999  1.0000
  C   C16       1.0  0.60714  0.77617  0.59746  1.0000
  C   C17       1.0  0.5381400000000001  0.8254200000000002  0.63601  1.0000
  C   C18       1.0  0.58367  0.9555  0.6333499999999999  1.0000
  C   C19       1.0  0.43184  0.74857  0.6820099999999998  1.0000
  C   C20       1.0  0.52609  0.00228  0.6742  1.0000
  C   C21       1.0  0.38011  0.80202  0.7223799999999999  1.0000
  C   C22       1.0  0.62657  0.7553000000000001  0.31619  1.0000
  C   C23       1.0  0.87744  0.0039000000000000003  0.1996  1.0000
  C   C24       1.0  0.9281400000000001  0.20857000000000003  0.21939  1.0000
  C   C25       1.0  0.54757  0.08719  0.41643  1.0000
  C   C26       1.0  0.52109  0.89389  0.4412  1.0000
  C   C27       1.0  0.59753  0.62142  0.32145  1.0000
  C   C28       1.0  0.98607  0.04939  0.15818  1.0000
  C   C29       1.0  0.04019999999999999  0.26034  0.18012  1.0000
  C   C30       1.0  0.44933999999999996  0.05856  0.46399  1.0000
  C   C31       1.0  0.42287000000000013  0.8603700000000002  0.48944999999999994  1.0000
  C   C32       1.0  0.07256999999999997  0.18124  0.14745  1.0000
  C   C33       1.0  0.38088000000000005  0.94124  0.50127  1.0000
  C   C34       1.0  0.19361000000000006  0.23142000000000001  0.10541999999999999  1.0000
  C   C35       1.0  0.2652799999999999  0.90031  0.547  1.0000
  C   C36       1.0  0.2810600000000001  0.20135  0.14606  1.0000
  C   C37       1.0  0.39263  0.22352  0.09809  1.0000
  C   C38       1.0  0.46173  0.17427  0.13644  1.0000
  C   C39       1.0  0.41682  0.04433  0.13344  1.0000
  C   C40       1.0  0.5673  0.25101  0.18294  1.0000
  C   C41       1.0  0.47447999999999996  0.99773  0.1744  1.0000
  C   C42       1.0  0.61914  0.19777  0.22337  1.0000
  C   C43       1.0  0.24466000000000002  0.3734200000000001  0.68379  1.0000
  C   C44       1.0  0.9960900000000003  0.12258000000000002  0.80043  1.0000
  C   C45       1.0  0.79139  0.07184000000000001  0.78063  1.0000
  C   C46       1.0  0.91276  0.4524000000000001  0.58358  1.0000
  C   C47       1.0  0.10604000000000001  0.47884  0.55879  1.0000
  C   C48       1.0  0.37854  0.40242  0.67854  1.0000
  C   C49       1.0  0.95064  0.01398  0.84182  1.0000
  C   C50       1.0  0.73965  0.9598  0.81987  1.0000
  C   C51       1.0  0.94135  0.55057  0.53605  1.0000
  C   C52       1.0  0.13953  0.57702  0.51054  1.0000
  C   C53       1.0  0.81875  0.9274300000000001  0.85255  1.0000
  C   C54       1.0  0.05867000000000007  0.6190200000000001  0.49871999999999994  1.0000
  C   C55       1.0  0.7685900000000001  0.80642  0.89457  1.0000
  C   C56       1.0  0.09957000000000002  0.73458  0.45297  1.0000
  C   C57       1.0  0.7987  0.719  0.85394  1.0000
  C   C58       1.0  0.77657  0.60749  0.9019299999999999  1.0000
  C   C59       1.0  0.82581  0.53838  0.8635799999999999  1.0000
  C   C60       1.0  0.95577  0.58327  0.86656  1.0000
  C   C61       1.0  0.74904  0.4328  0.8171  1.0000
  C   C62       1.0  0.0023300000000000104  0.52558  0.82562  1.0000
  C   C63       1.0  0.80224  0.38092  0.7767  1.0000
  C   C64       1.0  0.7539400000000002  0.6244400000000001  0.18761  1.0000
  C   C65       1.0  0.004770000000000018  0.8777800000000001  0.30177  1.0000
  C   C66       1.0  0.20922999999999997  0.92858  0.28096  1.0000
  C   C67       1.0  0.08657000000000001  0.54829  0.0845  1.0000
  C   C68       1.0  0.8934600000000001  0.52226  0.05965  1.0000
  C   C69       1.0  0.6203200000000001  0.5958000000000001  0.18279  1.0000
  C   C70       1.0  0.05060999999999999  0.98643  0.34311  1.0000
  C   C71       1.0  0.2614  0.04076  0.32013  1.0000
  C   C72       1.0  0.05795000000000001  0.45032  0.03677  1.0000
  C   C73       1.0  0.8598899999999999  0.42417  0.01129  1.0000
  C   C74       1.0  0.18263000000000001  0.07321  0.35316999999999993  1.0000
  C   C75       1.0  0.94074  0.38221  0.99932  1.0000
  C   C76       1.0  0.23286  0.19426000000000002  0.39518  1.0000
  C   C77       1.0  0.89989  0.26694  0.9532799999999999  1.0000
  C   C78       1.0  0.20208  0.28132  0.3546599999999999  1.0000
  C   C79       1.0  0.22374  0.39275  0.4025599999999999  1.0000
  C   C80       1.0  0.17451000000000008  0.46176000000000006  0.3640099999999999  1.0000
  C   C81       1.0  0.04441999999999999  0.41626  0.36665  1.0000
  C   C82       1.0  0.2513999999999999  0.56808  0.31804  1.0000
  C   C83       1.0  0.9976700000000002  0.47386  0.32581  1.0000
  C   C84       1.0  0.19798  0.61985  0.27767  1.0000
  C   C85       1.0  0.46184  0.46120000000000005  0.74754  1.0000
  C   C86       1.0  0.5387600000000001  0.5381600000000001  0.25244  1.0000
  C   C87       1.0  0.85376  0.14637000000000003  0.9999699999999999  1.0000
  C   C88       1.0  0.14517999999999998  0.85467  0.49998  1.0000
  N   N1        1.0  0.15336999999999998  0.91835  0.72956  1.0000
  N   N2        1.0  0.41544000000000003  0.9951300000000001  0.90216  1.0000
  N   N3        1.0  0.42546  0.9283400000000002  0.7203  1.0000
  N   N4        1.0  0.8462  0.08114  0.23034999999999997  1.0000
  N   N5        1.0  0.58372  0.005440000000000001  0.40311  1.0000
  N   N6        1.0  0.57448  0.07162  0.22091  1.0000
  N   N7        1.0  0.91885  0.15383000000000002  0.76968  1.0000
  N   N8        1.0  0.9944899999999999  0.41622000000000003  0.5969  1.0000
  N   N9        1.0  0.9284  0.42555  0.77915  1.0000
  N   N10       1.0  0.08169000000000003  0.84662  0.27045  1.0000
  N   N11       1.0  0.0049500000000000065  0.5846200000000001  0.09785  1.0000
  N   N12       1.0  0.0716500000000001  0.5745300000000001  0.27974  1.0000
  O   O1        1.0  0.28631  0.15905  0.85143  1.0000
  O   O2        1.0  0.44482999999999995  0.22703000000000007  0.76961  1.0000
  O   O3        1.0  0.7156299999999999  0.84234  0.35523  1.0000
  O   O4        1.0  0.5571800000000001  0.7741100000000001  0.27337  1.0000
  O   O5        1.0  0.15758999999999995  0.28429  0.6448  1.0000
  O   O6        1.0  0.2259  0.44289  0.7265599999999999  1.0000
  O   O7        1.0  0.84099  0.7138  0.14855  1.0000
  O   O8        1.0  0.7730700000000003  0.5553900000000002  0.23043  1.0000
