data_image0
_chemical_formula_structural       Zn16H32C96O48
_chemical_formula_sum              "Zn16 H32 C96 O48"
_cell_length_a       15.59158
_cell_length_b       17.48632
_cell_length_c       23.29679
_cell_angle_alpha    102.96058999999998
_cell_angle_beta     89.98269
_cell_angle_gamma    90.04669

_symmetry_space_group_name_H-M    'P 1'
_symmetry_Int_Tables_number       1

loop_
  _symmetry_equiv_pos_as_xyz
  'x,y,z'

loop_
  _atom_site_type_symbol
  _atom_site_label
  _atom_site_symmetry_multiplicity
  _atom_site_fract_x
  _atom_site_fract_y
  _atom_site_fract_z
  _atom_site_occupancy
  Zn  Zn1       1.0  0.7875799999999997  0.011730000000000044  0.4112800000000001  1.0000
  Zn  Zn2       1.0  0.68849  0.09856  0.5429800000000001  1.0000
  Zn  Zn3       1.0  0.99466  0.41261  0.37137  1.0000
  Zn  Zn4       1.0  0.15785  0.44989999999999997  0.33669000000000004  1.0000
  Zn  Zn5       1.0  0.28283  0.48589999999999994  0.08534  1.0000
  Zn  Zn6       1.0  0.18761999999999995  0.40268000000000004  0.9565700000000001  1.0000
  Zn  Zn7       1.0  0.49886  0.08552  0.12933000000000003  1.0000
  Zn  Zn8       1.0  0.66558  0.04727  0.16503  1.0000
  Zn  Zn9       1.0  0.21376  0.9875999999999999  0.58503  1.0000
  Zn  Zn10      1.0  0.31212  0.9013099999999997  0.45641000000000004  1.0000
  Zn  Zn11      1.0  0.003579999999999999  0.5870399999999998  0.62913  1.0000
  Zn  Zn12      1.0  0.83687  0.54901  0.66382  1.0000
  Zn  Zn13      1.0  0.7161699999999998  0.5139400000000001  0.9110800000000002  1.0000
  Zn  Zn14      1.0  0.81219  0.59718  0.04259  1.0000
  Zn  Zn15      1.0  0.50171  0.9139000000000002  0.8713500000000002  1.0000
  Zn  Zn16      1.0  0.3439299999999999  0.9514999999999999  0.8362700000000001  1.0000
  H   H1        1.0  0.9878899999999998  0.13176000000000002  0.47147000000000006  1.0000
  H   H2        1.0  0.4261  0.14118  0.47589000000000004  1.0000
  H   H3        1.0  0.28601  0.26349  0.3699700000000001  1.0000
  H   H4        1.0  0.08881  0.36777  0.5179400000000001  1.0000
  H   H5        1.0  0.3533099999999999  0.1387  0.29676  1.0000
  H   H6        1.0  0.1391  0.12515  0.50401  1.0000
  H   H7        1.0  0.84002  0.31432  0.58166  1.0000
  H   H8        1.0  0.61603  0.09872000000000002  0.3396600000000001  1.0000
  H   H9        1.0  0.48772  0.36893  0.02867  1.0000
  H   H10       1.0  0.92782  0.35863  0.02426  1.0000
  H   H11       1.0  0.78533  0.23606  0.12973  1.0000
  H   H12       1.0  0.58944  0.13353000000000007  0.98264  1.0000
  H   H13       1.0  0.8524799999999999  0.36101999999999995  0.20300000000000007  1.0000
  H   H14       1.0  0.63976  0.37557  0.99601  1.0000
  H   H15       1.0  0.34069  0.18520999999999999  0.91847  1.0000
  H   H16       1.0  0.116  0.4016399999999999  0.16135  1.0000
  H   H17       1.0  0.011929999999999998  0.86831  0.52862  1.0000
  H   H18       1.0  0.57382  0.8588299999999998  0.52428  1.0000
  H   H19       1.0  0.71432  0.7365600000000001  0.63015  1.0000
  H   H20       1.0  0.9108999999999998  0.63265  0.4823  1.0000
  H   H21       1.0  0.64676  0.86128  0.7033100000000001  1.0000
  H   H22       1.0  0.86079  0.87516  0.49604  1.0000
  H   H23       1.0  0.15981  0.68575  0.4184000000000001  1.0000
  H   H24       1.0  0.38391  0.9012699999999998  0.66023  1.0000
  H   H25       1.0  0.51246  0.63114  0.97143  1.0000
  H   H26       1.0  0.07241999999999997  0.6414099999999999  0.97572  1.0000
  H   H27       1.0  0.21399  0.7640499999999999  0.87026  1.0000
  H   H28       1.0  0.4107299999999999  0.8666199999999997  0.01743  1.0000
  H   H29       1.0  0.14745999999999995  0.63889  0.79687  1.0000
  H   H30       1.0  0.36033  0.62493  0.00391  1.0000
  H   H31       1.0  0.65938  0.81505  0.08165000000000001  1.0000
  H   H32       1.0  0.88406  0.59842  0.83871  1.0000
  C   C1        1.0  0.9810799999999997  0.19319  0.4942500000000001  1.0000
  C   C2        1.0  0.4426699999999999  0.13422999999999996  0.42961000000000005  1.0000
  C   C3        1.0  0.90669  0.21734  0.52681  1.0000
  C   C4        1.0  0.96306  0.35047999999999996  0.55291  1.0000
  C   C5        1.0  0.25261  0.23101  0.39774  1.0000
  C   C6        1.0  0.5277799999999999  0.11962  0.41187  1.0000
  C   C7        1.0  0.17123  0.2579199999999999  0.41981  1.0000
  C   C8        1.0  0.28255  0.052099999999999994  0.46389  1.0000
  C   C9        1.0  0.5965199999999998  0.11618000000000002  0.4561700000000001  1.0000
  C   C10       1.0  0.03725  0.32613  0.51973  1.0000
  C   C11       1.0  0.8381499999999997  0.15853  0.53085  1.0000
  C   C12       1.0  0.40208  0.13329000000000002  0.32880000000000004  1.0000
  C   C13       1.0  0.12783  0.21926  0.45905  1.0000
  C   C14       1.0  0.04671  0.24709000000000006  0.49048000000000014  1.0000
  C   C15       1.0  0.48757  0.11635999999999999  0.31034  1.0000
  C   C16       1.0  0.16859  0.15390000000000004  0.4722000000000001  1.0000
  C   C17       1.0  0.24754  0.12476  0.44758000000000003  1.0000
  C   C18       1.0  0.89746  0.29608999999999996  0.5561400000000001  1.0000
  C   C19       1.0  0.29168  0.16472999999999993  0.41018000000000004  1.0000
  C   C20       1.0  0.54969  0.11018  0.3525200000000001  1.0000
  C   C21       1.0  0.37973  0.14249999999999996  0.38834000000000013  1.0000
  C   C22       1.0  0.95347  0.43272999999999995  0.58644  1.0000
  C   C23       1.0  0.13467999999999994  0.32543  0.39938  1.0000
  C   C24       1.0  0.51384  0.10381000000000001  0.24751000000000006  1.0000
  C   C25       1.0  0.48092  0.30757  0.005640000000000002  1.0000
  C   C26       1.0  0.94371  0.3657199999999999  0.07059  1.0000
  C   C27       1.0  0.40651  0.28345000000000004  0.9730100000000003  1.0000
  C   C28       1.0  0.46354  0.15060000000000004  0.9475100000000002  1.0000
  C   C29       1.0  0.7518299999999998  0.26922  0.10246  1.0000
  C   C30       1.0  0.02876  0.38046  0.08884000000000003  1.0000
  C   C31       1.0  0.66985  0.24358  0.08087000000000001  1.0000
  C   C32       1.0  0.7819  0.44798  0.03568  1.0000
  C   C33       1.0  0.09895999999999998  0.38423  0.045810000000000003  1.0000
  C   C34       1.0  0.53767  0.17480000000000004  0.9805700000000002  1.0000
  C   C35       1.0  0.33705  0.34158000000000005  0.9694700000000002  1.0000
  C   C36       1.0  0.90156  0.36626  0.171  1.0000
  C   C37       1.0  0.62733  0.28176  0.04129000000000001  1.0000
  C   C38       1.0  0.54653  0.25388  0.009690000000000002  1.0000
  C   C39       1.0  0.98684  0.38329  0.18986  1.0000
  C   C40       1.0  0.66862  0.34656  0.02779  1.0000
  C   C41       1.0  0.74774  0.37504  0.052190000000000014  1.0000
  C   C42       1.0  0.39775  0.20458000000000007  0.9439800000000002  1.0000
  C   C43       1.0  0.7917599999999998  0.33498  0.08950000000000002  1.0000
  C   C44       1.0  0.04976999999999999  0.3899  0.14822  1.0000
  C   C45       1.0  0.8799399999999998  0.35706  0.11137  1.0000
  C   C46       1.0  0.45342  0.06888000000000004  0.9138400000000001  1.0000
  C   C47       1.0  0.6315399999999998  0.17628  0.10114  1.0000
  C   C48       1.0  0.01173  0.3962799999999999  0.25279  1.0000
  C   C49       1.0  0.01881  0.8069199999999999  0.5058  1.0000
  C   C50       1.0  0.55726  0.86584  0.57052  1.0000
  C   C51       1.0  0.09323  0.78287  0.47322  1.0000
  C   C52       1.0  0.0367  0.6498099999999998  0.4471700000000001  1.0000
  C   C53       1.0  0.74743  0.7693799999999997  0.6024200000000001  1.0000
  C   C54       1.0  0.47205999999999987  0.8804500000000001  0.5881300000000002  1.0000
  C   C55       1.0  0.82888  0.74296  0.58039  1.0000
  C   C56       1.0  0.71776  0.94831  0.5361  1.0000
  C   C57       1.0  0.40337  0.8839  0.54375  1.0000
  C   C58       1.0  0.9625299999999998  0.6741100000000001  0.48034  1.0000
  C   C59       1.0  0.16189999999999993  0.84155  0.46908000000000005  1.0000
  C   C60       1.0  0.59811  0.8665799999999999  0.6711700000000002  1.0000
  C   C61       1.0  0.8720299999999997  0.78105  0.54095  1.0000
  C   C62       1.0  0.95313  0.7531  0.50959  1.0000
  C   C63       1.0  0.51263  0.88345  0.68942  1.0000
  C   C64       1.0  0.83136  0.8463799999999999  0.52779  1.0000
  C   C65       1.0  0.75235  0.8752299999999997  0.55222  1.0000
  C   C66       1.0  0.10242  0.7041099999999998  0.44393000000000005  1.0000
  C   C67       1.0  0.70826  0.83539  0.5897000000000001  1.0000
  C   C68       1.0  0.45023  0.88979  0.64737  1.0000
  C   C69       1.0  0.62034  0.8575300000000001  0.6116700000000002  1.0000
  C   C70       1.0  0.04647  0.56778  0.41351  1.0000
  C   C71       1.0  0.86559  0.6757399999999999  0.60118  1.0000
  C   C72       1.0  0.4861499999999999  0.8965499999999998  0.7519100000000001  1.0000
  C   C73       1.0  0.5191599999999998  0.69256  0.99437  1.0000
  C   C74       1.0  0.05651  0.63419  0.9293900000000003  1.0000
  C   C75       1.0  0.59355  0.71674  0.02705  1.0000
  C   C76       1.0  0.53667  0.84975  0.05264000000000001  1.0000
  C   C77       1.0  0.24793  0.7314699999999998  0.8977000000000002  1.0000
  C   C78       1.0  0.97142  0.6193500000000001  0.9113100000000002  1.0000
  C   C79       1.0  0.32988  0.7576000000000002  0.9193000000000002  1.0000
  C   C80       1.0  0.21829  0.55231  0.9641500000000002  1.0000
  C   C81       1.0  0.9016  0.61571  0.95479  1.0000
  C   C82       1.0  0.4625899999999999  0.82544  0.019510000000000003  1.0000
  C   C83       1.0  0.66307  0.65841  0.030370000000000005  1.0000
  C   C84       1.0  0.09834  0.6336  0.82888  1.0000
  C   C85       1.0  0.37276  0.71878  0.9586500000000002  1.0000
  C   C86       1.0  0.45363  0.74634  0.99034  1.0000
  C   C87       1.0  0.012899999999999997  0.6168200000000001  0.8100500000000002  1.0000
  C   C88       1.0  0.33146  0.65391  0.9721000000000002  1.0000
  C   C89       1.0  0.25239  0.62513  0.9476700000000002  1.0000
  C   C90       1.0  0.60228  0.79563  0.05613000000000001  1.0000
  C   C91       1.0  0.20839  0.66533  0.91039  1.0000
  C   C92       1.0  0.9502399999999998  0.61009  0.8519000000000001  1.0000
  C   C93       1.0  0.12019999999999997  0.6429099999999999  0.8885100000000002  1.0000
  C   C94       1.0  0.54699  0.9318499999999998  0.08621000000000001  1.0000
  C   C95       1.0  0.36836  0.8245799999999999  0.89919  1.0000
  C   C96       1.0  0.98771  0.60474  0.74695  1.0000
  O   O1        1.0  0.76947  0.18595000000000003  0.5598000000000001  1.0000
  O   O2        1.0  0.29423  0.05250000000000005  0.5173700000000001  1.0000
  O   O3        1.0  0.8481999999999997  0.08734999999999997  0.50658  1.0000
  O   O4        1.0  0.2962  0.9924699999999999  0.42066000000000003  1.0000
  O   O5        1.0  0.57347  0.11597000000000002  0.5094900000000001  1.0000
  O   O6        1.0  0.67427  0.11371999999999999  0.44044  1.0000
  O   O7        1.0  0.88875  0.4487599999999999  0.62116  1.0000
  O   O8        1.0  0.05248  0.3266899999999999  0.3917900000000001  1.0000
  O   O9        1.0  0.5944  0.09834000000000001  0.23495000000000002  1.0000
  O   O10       1.0  0.45462999999999987  0.09983  0.20793000000000003  1.0000
  O   O11       1.0  0.010599999999999997  0.48357  0.57951  1.0000
  O   O12       1.0  0.18568  0.37925  0.38926000000000005  1.0000
  O   O13       1.0  0.26736  0.31405000000000005  0.9418000000000001  1.0000
  O   O14       1.0  0.78809  0.4497499999999999  0.98225  1.0000
  O   O15       1.0  0.3473099999999999  0.41313  0.99361  1.0000
  O   O16       1.0  0.8001199999999998  0.50623  0.079  1.0000
  O   O17       1.0  0.07744  0.38284000000000007  0.9920000000000001  1.0000
  O   O18       1.0  0.17612  0.38906  0.06344  1.0000
  O   O19       1.0  0.39118999999999987  0.054460000000000036  0.87647  1.0000
  O   O20       1.0  0.5491999999999998  0.17518  0.10750000000000003  1.0000
  O   O21       1.0  0.09245  0.40386  0.26533  1.0000
  O   O22       1.0  0.95263  0.39888  0.29219  1.0000
  O   O23       1.0  0.50667  0.01615000000000009  0.9228100000000002  1.0000
  O   O24       1.0  0.68185  0.12277  0.11142  1.0000
  O   O25       1.0  0.23057  0.81415  0.44018  1.0000
  O   O26       1.0  0.70541  0.9485499999999999  0.48296000000000006  1.0000
  O   O27       1.0  0.15184  0.9129  0.49352  1.0000
  O   O28       1.0  0.70509  0.007630000000000015  0.5796600000000001  1.0000
  O   O29       1.0  0.42661999999999994  0.88365  0.4904700000000001  1.0000
  O   O30       1.0  0.32533  0.88693  0.5593100000000001  1.0000
  O   O31       1.0  0.11174999999999997  0.55227  0.37901  1.0000
  O   O32       1.0  0.9477899999999998  0.6735999999999999  0.6079600000000001  1.0000
  O   O33       1.0  0.4048599999999999  0.9029899999999996  0.76285  1.0000
  O   O34       1.0  0.54411  0.90035  0.7922500000000001  1.0000
  O   O35       1.0  0.98942  0.51671  0.41990000000000005  1.0000
  O   O36       1.0  0.8138099999999998  0.62365  0.61225  1.0000
  O   O37       1.0  0.73276  0.68595  0.058100000000000006  1.0000
  O   O38       1.0  0.21202999999999994  0.55082  0.01781  1.0000
  O   O39       1.0  0.65281  0.587  0.00615  1.0000
  O   O40       1.0  0.20007  0.4938100000000001  0.9209900000000001  1.0000
  O   O41       1.0  0.92361  0.61656  0.008430000000000002  1.0000
  O   O42       1.0  0.8241599999999998  0.61149  0.93788  1.0000
  O   O43       1.0  0.60893  0.94676  0.12328000000000003  1.0000
  O   O44       1.0  0.4507599999999999  0.8246899999999999  0.89259  1.0000
  O   O45       1.0  0.9073599999999998  0.59892  0.73372  1.0000
  O   O46       1.0  0.04764999999999999  0.60101  0.70782  1.0000
  O   O47       1.0  0.4931199999999999  0.9841499999999999  0.07697  1.0000
  O   O48       1.0  0.31918  0.8795  0.8888500000000001  1.0000
