data_image0
_chemical_formula_structural       Cd6H64C112O40
_chemical_formula_sum              "Cd6 H64 C112 O40"
_cell_length_a       15.40443
_cell_length_b       16.73592
_cell_length_c       17.94956
_cell_angle_alpha    95.39554
_cell_angle_beta     96.4823
_cell_angle_gamma    102.89946

_space_group_name_H-M_alt    "P 1"
_space_group_IT_number       1

loop_
  _space_group_symop_operation_xyz
  'x, y, z'

loop_
  _atom_site_type_symbol
  _atom_site_label
  _atom_site_symmetry_multiplicity
  _atom_site_fract_x
  _atom_site_fract_y
  _atom_site_fract_z
  _atom_site_occupancy
  Cd  Cd1       1.0  0.31081  0.021059999999999992  0.36324  1.0000
  Cd  Cd2       1.0  0.86763  0.63673  0.08092  1.0000
  Cd  Cd3       1.0  0.68919  0.97894  0.63676  1.0000
  Cd  Cd4       1.0  0.13236  0.36327  0.91908  1.0000
  Cd  Cd5       1.0  0.5  0.0  0.5  1.0000
  Cd  Cd6       1.0  0.0  0.5  0.0  1.0000
  H   H1        1.0  0.57384  0.6254999999999997  0.15776  1.0000
  H   H2        1.0  0.83035  0.461  0.76853  1.0000
  H   H3        1.0  0.44028  0.68266  0.18156  1.0000
  H   H4        1.0  0.70895  0.42749  0.65622  1.0000
  H   H5        1.0  0.5277699999999997  0.51258  0.7931  1.0000
  H   H6        1.0  0.45838  0.4445099999999999  0.52766  1.0000
  H   H7        1.0  0.57495  0.30792  0.68762  1.0000
  H   H8        1.0  0.65063  0.54714  0.90512  1.0000
  H   H9        1.0  0.35077  0.70515  0.04766  1.0000
  H   H10       1.0  0.55687  0.9029499999999998  0.08825  1.0000
  H   H11       1.0  0.09798  0.4947  0.69753  1.0000
  H   H12       1.0  0.39802999999999994  0.3128499999999999  0.43864  1.0000
  H   H13       1.0  0.07570000000000002  0.60578  0.61656  1.0000
  H   H14       1.0  0.1848299999999999  0.6480499999999999  0.01717  1.0000
  H   H15       1.0  0.00125000000000002  0.79881  0.53917  1.0000
  H   H16       1.0  0.51333  0.17792  0.60019  1.0000
  H   H17       1.0  0.14208  0.8186999999999999  0.1971  1.0000
  H   H18       1.0  0.3076  0.87874  0.22538  1.0000
  H   H19       1.0  0.02207999999999997  0.7498599999999997  0.81004  1.0000
  H   H20       1.0  0.6888699999999998  0.8433999999999998  0.06169000000000001  1.0000
  H   H21       1.0  0.048119999999999954  0.6406799999999998  0.89127  1.0000
  H   H22       1.0  0.11835999999999992  0.8677999999999998  0.46316000000000007  1.0000
  H   H23       1.0  0.6643499999999998  0.07613  0.1336  1.0000
  H   H24       1.0  0.21189999999999995  0.7603799999999998  0.70127  1.0000
  H   H25       1.0  0.02304  0.09135  0.34935  1.0000
  H   H26       1.0  0.74812  0.92167  0.29275  1.0000
  H   H27       1.0  0.5261399999999998  0.07663  0.19716  1.0000
  H   H28       1.0  0.32735  0.83044  0.62554  1.0000
  H   H29       1.0  0.03778  0.90192  0.17484  1.0000
  H   H30       1.0  0.61168  0.92425  0.35631  1.0000
  H   H31       1.0  0.8800899999999999  0.89632  0.11836000000000002  1.0000
  H   H32       1.0  0.86396  0.08454  0.2946  1.0000
  H   H33       1.0  0.4261599999999999  0.37451  0.84224  1.0000
  H   H34       1.0  0.16964  0.539  0.23147000000000004  1.0000
  H   H35       1.0  0.55972  0.3173399999999999  0.81844  1.0000
  H   H36       1.0  0.2910499999999999  0.5725099999999997  0.34378  1.0000
  H   H37       1.0  0.47223  0.48742  0.2069  1.0000
  H   H38       1.0  0.5416199999999999  0.55549  0.47234  1.0000
  H   H39       1.0  0.42505  0.6920799999999998  0.31238  1.0000
  H   H40       1.0  0.34937  0.45286  0.09489  1.0000
  H   H41       1.0  0.6492299999999998  0.29485  0.95234  1.0000
  H   H42       1.0  0.44312000000000007  0.09705000000000003  0.91175  1.0000
  H   H43       1.0  0.9020099999999998  0.5053  0.30247  1.0000
  H   H44       1.0  0.60197  0.68715  0.56136  1.0000
  H   H45       1.0  0.9242999999999998  0.39422  0.38344  1.0000
  H   H46       1.0  0.81517  0.35196  0.98283  1.0000
  H   H47       1.0  0.99875  0.20119  0.46083  1.0000
  H   H48       1.0  0.4866699999999998  0.82208  0.39981  1.0000
  H   H49       1.0  0.8579199999999998  0.1813  0.80291  1.0000
  H   H50       1.0  0.6924  0.12126  0.77462  1.0000
  H   H51       1.0  0.97792  0.25014  0.18996  1.0000
  H   H52       1.0  0.3111199999999999  0.1566  0.93831  1.0000
  H   H53       1.0  0.9518799999999997  0.35932  0.10873  1.0000
  H   H54       1.0  0.88164  0.1322  0.53684  1.0000
  H   H55       1.0  0.3356499999999998  0.9238699999999996  0.8664  1.0000
  H   H56       1.0  0.7881  0.23961999999999994  0.29873  1.0000
  H   H57       1.0  0.9769599999999997  0.9086499999999997  0.65065  1.0000
  H   H58       1.0  0.25188  0.07834  0.70726  1.0000
  H   H59       1.0  0.4738599999999999  0.92337  0.80284  1.0000
  H   H60       1.0  0.67265  0.16956  0.37446  1.0000
  H   H61       1.0  0.96222  0.09808000000000001  0.82516  1.0000
  H   H62       1.0  0.38831  0.07574999999999998  0.64369  1.0000
  H   H63       1.0  0.11991  0.10368  0.88164  1.0000
  H   H64       1.0  0.13604000000000002  0.91547  0.7054  1.0000
  C   C1        1.0  0.5685099999999997  0.68567  0.14222  1.0000
  C   C2        1.0  0.52019  0.38322  0.6118  1.0000
  C   C3        1.0  0.7638399999999997  0.47141  0.77329  1.0000
  C   C4        1.0  0.4948899999999999  0.71729  0.15564  1.0000
  C   C5        1.0  0.69672  0.45246  0.71113  1.0000
  C   C6        1.0  0.59418  0.50181  0.78894  1.0000
  C   C7        1.0  0.61252  0.46824  0.71977  1.0000
  C   C8        1.0  0.47053  0.38582  0.5418  1.0000
  C   C9        1.0  0.5371  0.30889  0.63299  1.0000
  C   C10       1.0  0.49321  0.79628  0.1365  1.0000
  C   C11       1.0  0.66184  0.52051  0.85042  1.0000
  C   C12       1.0  0.30473  0.72894  0.08027  1.0000
  C   C13       1.0  0.56186  0.84236  0.10245  1.0000
  C   C14       1.0  0.6386099999999997  0.7313599999999998  0.10883  1.0000
  C   C15       1.0  0.7470699999999999  0.50611  0.84292  1.0000
  C   C16       1.0  0.08235  0.55122  0.72121  1.0000
  C   C17       1.0  0.81988  0.53142  0.90953  1.0000
  C   C18       1.0  0.43688999999999995  0.31318  0.49319  1.0000
  C   C19       1.0  0.06984999999999994  0.61224  0.67653  1.0000
  C   C20       1.0  0.21233999999999995  0.69748  0.06334  1.0000
  C   C21       1.0  0.07267999999999991  0.8057099999999997  0.55689  1.0000
  C   C22       1.0  0.09494  0.49676  0.8456  1.0000
  C   C23       1.0  0.33748  0.79456  0.13876  1.0000
  C   C24       1.0  0.50238  0.23641  0.58401  1.0000
  C   C25       1.0  0.18787  0.79421  0.1647  1.0000
  C   C26       1.0  0.71846  0.6976  0.09736  1.0000
  C   C27       1.0  0.45147999999999994  0.23778  0.51418  1.0000
  C   C28       1.0  0.15335  0.72986  0.10517999999999998  1.0000
  C   C29       1.0  0.07574  0.56162  0.79884  1.0000
  C   C30       1.0  0.04879  0.68339  0.71004  1.0000
  C   C31       1.0  0.05415  0.69854  0.08593  1.0000
  C   C32       1.0  0.27964  0.8274  0.18123  1.0000
  C   C33       1.0  0.038709999999999946  0.6937499999999998  0.78651  1.0000
  C   C34       1.0  0.10042999999999994  0.7755899999999998  0.62359  1.0000
  C   C35       1.0  0.6343299999999997  0.80932  0.08808  1.0000
  C   C36       1.0  0.05326000000000002  0.6328699999999999  0.83113  1.0000
  C   C37       1.0  0.13739999999999997  0.8436199999999998  0.51514  1.0000
  C   C38       1.0  0.65137  0.04313  0.18206  1.0000
  C   C39       1.0  0.19201  0.7828599999999998  0.64864  1.0000
  C   C40       1.0  0.99077  0.04873  0.29934  1.0000
  C   C41       1.0  0.6999999999999997  0.95624  0.27289  1.0000
  C   C42       1.0  0.57548  0.04334  0.21725  1.0000
  C   C43       1.0  0.2559  0.82163  0.6066  1.0000
  C   C44       1.0  0.40868  0.15940999999999994  0.46413000000000004  1.0000
  C   C45       1.0  0.29866999999999994  0.8966099999999998  0.49552999999999997  1.0000
  C   C46       1.0  0.7123599999999998  0.99821  0.20936  1.0000
  C   C47       1.0  0.22941  0.85228  0.53969  1.0000
  C   C48       1.0  9.999999999997854e-05  0.9425  0.20026  1.0000
  C   C49       1.0  0.8649  0.9913000000000001  0.20297  1.0000
  C   C50       1.0  0.62367  0.9569499999999997  0.30742  1.0000
  C   C51       1.0  0.9125699999999999  0.93947  0.16811  1.0000
  C   C52       1.0  0.9027999999999999  0.04522  0.26908  1.0000
  C   C53       1.0  0.56018  0.99909  0.27925  1.0000
  C   C54       1.0  0.04031999999999998  0.99769  0.26546  1.0000
  C   C55       1.0  0.47511  0.9944099999999999  0.31301  1.0000
  C   C56       1.0  0.13532  0.004290000000000005  0.29893  1.0000
  C   C57       1.0  0.4314799999999998  0.3143299999999999  0.85778  1.0000
  C   C58       1.0  0.47981  0.61678  0.3882  1.0000
  C   C59       1.0  0.23615999999999998  0.52859  0.22670999999999997  1.0000
  C   C60       1.0  0.5051  0.28271  0.84436  1.0000
  C   C61       1.0  0.30328  0.54754  0.28888  1.0000
  C   C62       1.0  0.40581  0.49819  0.21106  1.0000
  C   C63       1.0  0.3874699999999999  0.5317599999999998  0.28023  1.0000
  C   C64       1.0  0.5294599999999999  0.61418  0.45820000000000005  1.0000
  C   C65       1.0  0.46289  0.69111  0.36701  1.0000
  C   C66       1.0  0.50679  0.20372  0.8635  1.0000
  C   C67       1.0  0.33815999999999996  0.4794899999999999  0.14958  1.0000
  C   C68       1.0  0.69527  0.27106  0.91973  1.0000
  C   C69       1.0  0.43814  0.15764  0.89755  1.0000
  C   C70       1.0  0.36138  0.26864  0.89117  1.0000
  C   C71       1.0  0.25292  0.49389  0.15708  1.0000
  C   C72       1.0  0.91764  0.44878  0.27879  1.0000
  C   C73       1.0  0.18011999999999995  0.46858  0.09047  1.0000
  C   C74       1.0  0.56311  0.68682  0.50681  1.0000
  C   C75       1.0  0.9301499999999998  0.38776  0.32347  1.0000
  C   C76       1.0  0.78766  0.30252  0.93666  1.0000
  C   C77       1.0  0.92732  0.19428999999999993  0.44311  1.0000
  C   C78       1.0  0.90506  0.50324  0.1544  1.0000
  C   C79       1.0  0.66252  0.20544  0.86124  1.0000
  C   C80       1.0  0.4976199999999999  0.7635899999999998  0.41599  1.0000
  C   C81       1.0  0.81213  0.2058  0.8353  1.0000
  C   C82       1.0  0.28153  0.3024  0.90264  1.0000
  C   C83       1.0  0.5485199999999998  0.76222  0.48582  1.0000
  C   C84       1.0  0.84665  0.27014  0.89482  1.0000
  C   C85       1.0  0.92426  0.4383799999999999  0.20116  1.0000
  C   C86       1.0  0.95121  0.31661  0.28996  1.0000
  C   C87       1.0  0.94585  0.30146  0.91407  1.0000
  C   C88       1.0  0.7203599999999998  0.1726  0.81877  1.0000
  C   C89       1.0  0.96129  0.30625  0.21349  1.0000
  C   C90       1.0  0.89957  0.22441  0.37641  1.0000
  C   C91       1.0  0.36567  0.19069000000000003  0.9119199999999998  1.0000
  C   C92       1.0  0.9467399999999998  0.36713  0.16887  1.0000
  C   C93       1.0  0.8626  0.15638999999999992  0.48485999999999996  1.0000
  C   C94       1.0  0.3486299999999999  0.9568699999999999  0.81794  1.0000
  C   C95       1.0  0.80799  0.21714  0.35136  1.0000
  C   C96       1.0  0.009229999999999962  0.9512699999999997  0.70066  1.0000
  C   C97       1.0  0.29999  0.043759999999999986  0.72712  1.0000
  C   C98       1.0  0.4245199999999999  0.95666  0.78275  1.0000
  C   C99       1.0  0.7441  0.17836999999999992  0.3934  1.0000
  C   C100      1.0  0.59132  0.84059  0.53587  1.0000
  C   C101      1.0  0.70133  0.10339  0.50447  1.0000
  C   C102      1.0  0.28764  0.00178999999999999  0.79064  1.0000
  C   C103      1.0  0.77059  0.14773  0.46031  1.0000
  C   C104      1.0  0.9999  0.0575  0.79974  1.0000
  C   C105      1.0  0.1351  0.0087  0.79704  1.0000
  C   C106      1.0  0.37632999999999994  0.04305  0.69258  1.0000
  C   C107      1.0  0.08742  0.06053  0.83189  1.0000
  C   C108      1.0  0.09720000000000001  0.95478  0.73092  1.0000
  C   C109      1.0  0.43981  0.0009100000000000024  0.72075  1.0000
  C   C110      1.0  0.95968  0.0023099999999999913  0.73454  1.0000
  C   C111      1.0  0.52489  0.005590000000000001  0.68699  1.0000
  C   C112      1.0  0.86468  0.99572  0.70107  1.0000
  O   O1        1.0  0.5449699999999997  0.4566999999999998  0.65897  1.0000
  O   O2        1.0  0.7153499999999999  0.6225599999999998  0.10699  1.0000
  O   O3        1.0  0.10077999999999994  0.42842  0.81193  1.0000
  O   O4        1.0  0.42686999999999997  0.8351  0.15514  1.0000
  O   O5        1.0  0.80599  0.58278  0.96079  1.0000
  O   O6        1.0  0.003859999999999944  0.7301899999999998  0.12547  1.0000
  O   O7        1.0  0.03432  0.745  0.66656  1.0000
  O   O8        1.0  0.021669999999999977  0.64256  0.029519999999999998  1.0000
  O   O9        1.0  0.37625  0.16287  0.39662  1.0000
  O   O10       1.0  0.10767  0.51268  0.9181499999999999  1.0000
  O   O11       1.0  0.16459  0.04692  0.36338  1.0000
  O   O12       1.0  0.78818  0.7449499999999999  0.07915  1.0000
  O   O13       1.0  0.2684599999999998  0.9166399999999998  0.43304  1.0000
  O   O14       1.0  0.8876999999999998  0.49971999999999994  0.9073  1.0000
  O   O15       1.0  0.40267999999999987  0.09087  0.49241  1.0000
  O   O16       1.0  0.46314  0.95581  0.37052  1.0000
  O   O17       1.0  0.18586  0.9683  0.26302  1.0000
  O   O18       1.0  0.41583000000000003  0.02734  0.28116  1.0000
  O   O19       1.0  0.78054  0.99177  0.16682  1.0000
  O   O20       1.0  0.3805499999999999  0.90898  0.52567  1.0000
  O   O21       1.0  0.4550299999999999  0.5433  0.34104  1.0000
  O   O22       1.0  0.28465  0.37744  0.89301  1.0000
  O   O23       1.0  0.8992199999999996  0.57158  0.18807  1.0000
  O   O24       1.0  0.57313  0.16491  0.84486  1.0000
  O   O25       1.0  0.19400999999999996  0.41721999999999987  0.03921  1.0000
  O   O26       1.0  0.9961300000000001  0.26981  0.87453  1.0000
  O   O27       1.0  0.96568  0.255  0.33344  1.0000
  O   O28       1.0  0.9783299999999998  0.35744  0.97048  1.0000
  O   O29       1.0  0.6237400000000002  0.83713  0.60338  1.0000
  O   O30       1.0  0.89233  0.48732  0.08185  1.0000
  O   O31       1.0  0.8354  0.95308  0.63662  1.0000
  O   O32       1.0  0.21181  0.25506  0.92085  1.0000
  O   O33       1.0  0.73153  0.08336  0.56696  1.0000
  O   O34       1.0  0.1123  0.50028  0.09271  1.0000
  O   O35       1.0  0.59732  0.90913  0.50759  1.0000
  O   O36       1.0  0.53686  0.04419  0.62948  1.0000
  O   O37       1.0  0.81413  0.0317  0.73698  1.0000
  O   O38       1.0  0.5841699999999997  0.97266  0.71884  1.0000
  O   O39       1.0  0.21945999999999993  0.00822999999999999  0.83318  1.0000
  O   O40       1.0  0.6194499999999997  0.09102  0.47433000000000003  1.0000
