data_image0
_chemical_formula_structural       Mn4H60C76S4N12O24
_chemical_formula_sum              "Mn4 H60 C76 S4 N12 O24"
_cell_length_a       8.34141
_cell_length_b       11.323450000000001
_cell_length_c       27.63082
_cell_angle_alpha    89.74706999999998
_cell_angle_beta     90.32952
_cell_angle_gamma    103.66103999999999

_symmetry_space_group_name_H-M    'P 1'
_symmetry_Int_Tables_number       1

loop_
  _symmetry_equiv_pos_as_xyz
  'x,y,z'

loop_
  _atom_site_type_symbol
  _atom_site_label
  _atom_site_symmetry_multiplicity
  _atom_site_fract_x
  _atom_site_fract_y
  _atom_site_fract_z
  _atom_site_occupancy
  Mn  Mn1       1.0  0.24377000000000001  0.37231  0.20341  1.0000
  Mn  Mn2       1.0  0.2573  0.62697  0.70357  1.0000
  Mn  Mn3       1.0  0.7562300000000001  0.62769  0.79659  1.0000
  Mn  Mn4       1.0  0.7427000000000004  0.37303000000000003  0.29644  1.0000
  H   H1        1.0  0.4359  0.48521  0.12108000000000002  1.0000
  H   H2        1.0  0.6742  0.38946000000000003  0.11889000000000002  1.0000
  H   H3        1.0  0.79511  0.52175  0.14553000000000005  1.0000
  H   H4        1.0  0.46698  0.6991  0.01765  1.0000
  H   H5        1.0  0.5690100000000001  0.6846800000000001  0.93328  1.0000
  H   H6        1.0  0.017780000000000035  0.6139400000000002  0.9894600000000001  1.0000
  H   H7        1.0  0.91738  0.62661  0.07384  1.0000
  H   H8        1.0  0.06502000000000004  0.5349500000000001  0.14312  1.0000
  H   H9        1.0  0.041849999999999964  0.74903  0.1402  1.0000
  H   H10       1.0  0.34751000000000004  0.8111500000000001  0.26926  1.0000
  H   H11       1.0  0.35995  0.59782  0.26566  1.0000
  H   H12       1.0  0.030760000000000003  0.14444  0.144  1.0000
  H   H13       1.0  0.03952000000000006  0.9283000000000001  0.13862  1.0000
  H   H14       1.0  0.30505000000000004  0.9740800000000001  0.27525  1.0000
  H   H15       1.0  0.28309  0.18731  0.2747200000000001  1.0000
  H   H16       1.0  0.06314999999999997  0.51805  0.6224100000000002  1.0000
  H   H17       1.0  0.82096  0.60964  0.61867  1.0000
  H   H18       1.0  0.70511  0.47907  0.64776  1.0000
  H   H19       1.0  0.03674999999999998  0.30356999999999995  0.51945  1.0000
  H   H20       1.0  0.9352700000000003  0.3177400000000001  0.43459  1.0000
  H   H21       1.0  0.48671000000000003  0.38916000000000006  0.48854  1.0000
  H   H22       1.0  0.5857900000000001  0.37657000000000007  0.5734900000000002  1.0000
  H   H23       1.0  0.43770000000000014  0.46638000000000013  0.6447000000000003  1.0000
  H   H24       1.0  0.46442  0.25317  0.64226  1.0000
  H   H25       1.0  0.14771000000000006  0.18451  0.76808  1.0000
  H   H26       1.0  0.13390000000000002  0.39799000000000007  0.7645  1.0000
  H   H27       1.0  0.4634200000000001  0.85533  0.64325  1.0000
  H   H28       1.0  0.45332000000000006  0.07129  0.6380200000000001  1.0000
  H   H29       1.0  0.20549000000000003  0.025360000000000004  0.7767  1.0000
  H   H30       1.0  0.22477  0.81131  0.77551  1.0000
  H   H31       1.0  0.5641  0.51479  0.8789200000000003  1.0000
  H   H32       1.0  0.3258  0.61053  0.8811100000000001  1.0000
  H   H33       1.0  0.20489000000000002  0.4782500000000001  0.85447  1.0000
  H   H34       1.0  0.5330200000000003  0.3009  0.98235  1.0000
  H   H35       1.0  0.43098  0.31532  0.06672000000000002  1.0000
  H   H36       1.0  0.9822200000000001  0.38606  0.010540000000000002  1.0000
  H   H37       1.0  0.08262  0.37339  0.92616  1.0000
  H   H38       1.0  0.93498  0.46505  0.85688  1.0000
  H   H39       1.0  0.95814  0.25096  0.8598000000000001  1.0000
  H   H40       1.0  0.65249  0.18885  0.73074  1.0000
  H   H41       1.0  0.6400500000000001  0.4021800000000001  0.73434  1.0000
  H   H42       1.0  0.96924  0.85556  0.856  1.0000
  H   H43       1.0  0.9604700000000002  0.0717  0.86138  1.0000
  H   H44       1.0  0.6949400000000002  0.02592  0.72475  1.0000
  H   H45       1.0  0.7169100000000002  0.8126900000000001  0.7252800000000001  1.0000
  H   H46       1.0  0.9368500000000001  0.48194000000000004  0.3775900000000001  1.0000
  H   H47       1.0  0.17904000000000006  0.39035000000000003  0.38133000000000006  1.0000
  H   H48       1.0  0.29488  0.52093  0.35224  1.0000
  H   H49       1.0  0.9632500000000002  0.69643  0.48055  1.0000
  H   H50       1.0  0.06473  0.68226  0.56542  1.0000
  H   H51       1.0  0.51328  0.61084  0.5114600000000001  1.0000
  H   H52       1.0  0.41421  0.62342  0.42651  1.0000
  H   H53       1.0  0.5623  0.53361  0.3553  1.0000
  H   H54       1.0  0.53557  0.74683  0.35774  1.0000
  H   H55       1.0  0.85228  0.81549  0.23192  1.0000
  H   H56       1.0  0.8661  0.60201  0.2355  1.0000
  H   H57       1.0  0.53658  0.14467  0.3567500000000001  1.0000
  H   H58       1.0  0.54668  0.92871  0.36198000000000013  1.0000
  H   H59       1.0  0.7945100000000002  0.9746400000000001  0.22330000000000005  1.0000
  H   H60       1.0  0.77523  0.18869  0.22449000000000005  1.0000
  C   C1        1.0  0.63676  0.40564000000000006  0.19499000000000005  1.0000
  C   C2        1.0  0.67098  0.4624700000000001  0.14482  1.0000
  C   C3        1.0  0.68551  0.66343  0.05049  1.0000
  C   C4        1.0  0.58634  0.67931  0.011120000000000003  1.0000
  C   C5        1.0  0.6437100000000002  0.67091  0.96422  1.0000
  C   C6        1.0  0.79917  0.64722  0.9563300000000002  1.0000
  C   C7        1.0  0.89707  0.6313600000000001  0.99619  1.0000
  C   C8        1.0  0.8408100000000002  0.6389600000000001  0.04317000000000001  1.0000
  C   C9        1.0  0.8647300000000001  0.6403  0.9060000000000002  1.0000
  C   C10       1.0  0.12694  0.60068  0.16988000000000006  1.0000
  C   C11       1.0  0.11638  0.72117  0.16843000000000005  1.0000
  C   C12       1.0  0.19358  0.80261  0.20447  1.0000
  C   C13       1.0  0.28412  0.7559900000000002  0.23978000000000005  1.0000
  C   C14       1.0  0.2906800000000001  0.63494  0.23851  1.0000
  C   C15       1.0  0.09130000000000002  0.10282000000000001  0.17214  1.0000
  C   C16       1.0  0.09814000000000006  0.98157  0.16933000000000006  1.0000
  C   C17       1.0  0.17882000000000003  0.9300700000000001  0.20596  1.0000
  C   C18       1.0  0.24406000000000003  0.00655  0.24485000000000007  1.0000
  C   C19       1.0  0.23175  0.12641  0.24524  1.0000
  C   C20       1.0  0.8665600000000002  0.59908  0.6951900000000001  1.0000
  C   C21       1.0  0.8283499999999999  0.53922  0.64569  1.0000
  C   C22       1.0  0.8179  0.33942  0.55131  1.0000
  C   C23       1.0  0.91739  0.32335  0.51242  1.0000
  C   C24       1.0  0.8605600000000002  0.33171  0.4652  1.0000
  C   C25       1.0  0.70538  0.35577  0.4566  1.0000
  C   C26       1.0  0.60721  0.37166  0.4959800000000001  1.0000
  C   C27       1.0  0.66271  0.36402000000000007  0.54324  1.0000
  C   C28       1.0  0.6392500000000001  0.36332  0.4061300000000001  1.0000
  C   C29       1.0  0.37451  0.39953000000000005  0.6709300000000001  1.0000
  C   C30       1.0  0.38669  0.27943  0.6696400000000002  1.0000
  C   C31       1.0  0.30723  0.19652  0.7049100000000003  1.0000
  C   C32       1.0  0.21326000000000003  0.24124000000000004  0.7393400000000002  1.0000
  C   C33       1.0  0.20554  0.36211  0.738  1.0000
  C   C34       1.0  0.40622000000000014  0.89667  0.67189  1.0000
  C   C35       1.0  0.39904  0.01791  0.6692  1.0000
  C   C36       1.0  0.3227999999999999  0.06925  0.70644  1.0000
  C   C37       1.0  0.26226000000000005  0.9926900000000002  0.74578  1.0000
  C   C38       1.0  0.27385000000000004  0.8726200000000001  0.7459  1.0000
  C   C39       1.0  0.36324  0.59436  0.80501  1.0000
  C   C40       1.0  0.32902  0.53753  0.8551800000000003  1.0000
  C   C41       1.0  0.31449000000000005  0.33657000000000004  0.94951  1.0000
  C   C42       1.0  0.41366  0.32069  0.9888800000000002  1.0000
  C   C43       1.0  0.35629  0.32909000000000005  0.03578  1.0000
  C   C44       1.0  0.20083  0.35278  0.04367000000000001  1.0000
  C   C45       1.0  0.10293000000000002  0.36863000000000007  0.00381  1.0000
  C   C46       1.0  0.15919  0.36104  0.95683  1.0000
  C   C47       1.0  0.13527  0.3597  0.094  1.0000
  C   C48       1.0  0.8730600000000001  0.39932000000000006  0.83012  1.0000
  C   C49       1.0  0.8836200000000002  0.2788300000000001  0.83157  1.0000
  C   C50       1.0  0.80641  0.19738000000000003  0.79553  1.0000
  C   C51       1.0  0.71587  0.24401  0.76022  1.0000
  C   C52       1.0  0.70931  0.36506  0.76149  1.0000
  C   C53       1.0  0.9087000000000002  0.89718  0.82786  1.0000
  C   C54       1.0  0.90185  0.018429999999999995  0.83067  1.0000
  C   C55       1.0  0.82117  0.06993000000000002  0.79404  1.0000
  C   C56       1.0  0.75593  0.9934500000000003  0.7551500000000002  1.0000
  C   C57       1.0  0.7682500000000001  0.87358  0.7547600000000002  1.0000
  C   C58       1.0  0.13344  0.40091000000000004  0.30481000000000014  1.0000
  C   C59       1.0  0.17165000000000002  0.4607800000000001  0.35431  1.0000
  C   C60       1.0  0.1821  0.66058  0.4486900000000001  1.0000
  C   C61       1.0  0.0826000000000001  0.67664  0.48758  1.0000
  C   C62       1.0  0.13942999999999997  0.66829  0.5348000000000002  1.0000
  C   C63       1.0  0.29462  0.64423  0.5434  1.0000
  C   C64       1.0  0.39279  0.62834  0.50402  1.0000
  C   C65       1.0  0.3372900000000001  0.63598  0.45676  1.0000
  C   C66       1.0  0.3607400000000001  0.63668  0.5938700000000001  1.0000
  C   C67       1.0  0.62549  0.60047  0.3290700000000001  1.0000
  C   C68       1.0  0.61331  0.72057  0.33036  1.0000
  C   C69       1.0  0.69277  0.80348  0.2950900000000001  1.0000
  C   C70       1.0  0.78674  0.7587600000000002  0.26066  1.0000
  C   C71       1.0  0.79446  0.63789  0.262  1.0000
  C   C72       1.0  0.59377  0.10332000000000002  0.32811  1.0000
  C   C73       1.0  0.60095  0.98208  0.33080000000000004  1.0000
  C   C74       1.0  0.6772  0.93075  0.29356  1.0000
  C   C75       1.0  0.7377300000000002  0.00731  0.25422  1.0000
  C   C76       1.0  0.72615  0.12737000000000004  0.2541  1.0000
  S   S1        1.0  0.61172  0.67236  0.11051  1.0000
  S   S2        1.0  0.89046  0.3303  0.61171  1.0000
  S   S3        1.0  0.38828  0.32764000000000004  0.88949  1.0000
  S   S4        1.0  0.10954000000000003  0.6697000000000001  0.38829  1.0000
  N   N1        1.0  0.55308  0.53321  0.13086  1.0000
  N   N2        1.0  0.21063  0.55617  0.20483000000000007  1.0000
  N   N3        1.0  0.158  0.17626  0.20929000000000003  1.0000
  N   N4        1.0  0.94664  0.46899  0.63238  1.0000
  N   N5        1.0  0.28749000000000013  0.44222000000000017  0.70506  1.0000
  N   N6        1.0  0.34358  0.82297  0.7094200000000003  1.0000
  N   N7        1.0  0.44692  0.46678  0.8691400000000002  1.0000
  N   N8        1.0  0.7893600000000001  0.44383000000000006  0.79517  1.0000
  N   N9        1.0  0.8420000000000001  0.8237400000000001  0.7907100000000001  1.0000
  N   N10       1.0  0.053360000000000025  0.5310100000000001  0.3676300000000001  1.0000
  N   N11       1.0  0.7125  0.5577800000000002  0.29494  1.0000
  N   N12       1.0  0.65642  0.17703000000000002  0.29058  1.0000
  O   O1        1.0  0.49158  0.38083000000000006  0.21210000000000004  1.0000
  O   O2        1.0  0.76073  0.38675000000000004  0.21797000000000002  1.0000
  O   O3        1.0  0.46463  0.7198600000000002  0.10724000000000002  1.0000
  O   O4        1.0  0.7538800000000001  0.73275  0.13981  1.0000
  O   O5        1.0  0.7536200000000001  0.63101  0.8715600000000002  1.0000
  O   O6        1.0  0.013239999999999986  0.64298  0.8996500000000002  1.0000
  O   O7        1.0  0.012890000000000002  0.62551  0.7116800000000002  1.0000
  O   O8        1.0  0.7443100000000002  0.61892  0.71831  1.0000
  O   O9        1.0  0.03978  0.28554  0.6094200000000002  1.0000
  O   O10       1.0  0.74788  0.26716  0.64005  1.0000
  O   O11       1.0  0.74777  0.36881  0.37162  1.0000
  O   O12       1.0  0.49158  0.36433  0.3997000000000001  1.0000
  O   O13       1.0  0.50842  0.61917  0.7879000000000003  1.0000
  O   O14       1.0  0.2392700000000001  0.6132500000000001  0.7820300000000001  1.0000
  O   O15       1.0  0.53537  0.28014  0.89276  1.0000
  O   O16       1.0  0.24611000000000002  0.26725  0.8601900000000001  1.0000
  O   O17       1.0  0.24637000000000003  0.36899  0.12844  1.0000
  O   O18       1.0  0.9867600000000001  0.35702  0.10035000000000002  1.0000
  O   O19       1.0  0.9871100000000002  0.37449  0.28832  1.0000
  O   O20       1.0  0.25569  0.38108000000000003  0.28169  1.0000
  O   O21       1.0  0.96022  0.7144600000000001  0.3905800000000001  1.0000
  O   O22       1.0  0.25211  0.73284  0.35995  1.0000
  O   O23       1.0  0.25223  0.63119  0.62839  1.0000
  O   O24       1.0  0.50841  0.63567  0.6003  1.0000
