data_image0
_chemical_formula_structural       Eu12H36C84N12O48
_chemical_formula_sum              "Eu12 H36 C84 N12 O48"
_cell_length_a       17.69867
_cell_length_b       17.71368
_cell_length_c       17.70915
_cell_angle_alpha    108.90908
_cell_angle_beta     108.89104
_cell_angle_gamma    108.90322

_space_group_name_H-M_alt    "P 1"
_space_group_IT_number       1

loop_
  _space_group_symop_operation_xyz
  'x, y, z'

loop_
  _atom_site_type_symbol
  _atom_site_label
  _atom_site_symmetry_multiplicity
  _atom_site_fract_x
  _atom_site_fract_y
  _atom_site_fract_z
  _atom_site_occupancy
  Eu  Eu1       1.0  0.12127999999999999  0.36995  0.25141  1.0000
  Eu  Eu2       1.0  0.3856700000000001  0.13478000000000018  0.7561600000000003  1.0000
  Eu  Eu3       1.0  0.8696600000000001  0.75062  0.12050000000000002  1.0000
  Eu  Eu4       1.0  0.6348  0.25603  0.38581  1.0000
  Eu  Eu5       1.0  0.7561800000000001  0.8864499999999998  0.6341600000000002  1.0000
  Eu  Eu6       1.0  0.2511100000000001  0.6212  0.8696500000000003  1.0000
  Eu  Eu7       1.0  0.8853000000000003  0.62709  0.7523600000000003  1.0000
  Eu  Eu8       1.0  0.61619  0.86899  0.24593000000000004  1.0000
  Eu  Eu9       1.0  0.1272500000000001  0.2527000000000001  0.8854400000000002  1.0000
  Eu  Eu10      1.0  0.3688500000000002  0.74635  0.6164700000000002  1.0000
  Eu  Eu11      1.0  0.24565  0.11598999999999994  0.36867  1.0000
  Eu  Eu12      1.0  0.7526  0.38582  0.12723  1.0000
  H   H1        1.0  0.34014  0.51605  0.11856000000000003  1.0000
  H   H2        1.0  0.16075  0.7853599999999998  0.67337  1.0000
  H   H3        1.0  0.10190999999999997  0.9874399999999998  0.8218  1.0000
  H   H4        1.0  0.38519000000000003  0.7173900000000001  0.3714900000000001  1.0000
  H   H5        1.0  0.21763000000000007  0.8717300000000001  0.38474000000000014  1.0000
  H   H6        1.0  0.48717  0.3216499999999999  0.10223  1.0000
  H   H7        1.0  0.28511  0.17346  0.16134  1.0000
  H   H8        1.0  0.016460000000000044  0.61954  0.34111000000000014  1.0000
  H   H9        1.0  0.82113  0.60202  0.4877200000000001  1.0000
  H   H10       1.0  0.37151999999999996  0.8849599999999997  0.21731000000000006  1.0000
  H   H11       1.0  0.11870999999999991  0.8405099999999998  0.016170000000000007  1.0000
  H   H12       1.0  0.6732199999999999  0.6602999999999998  0.28477000000000013  1.0000
  H   H13       1.0  0.65907  0.4853500000000001  0.8809500000000002  1.0000
  H   H14       1.0  0.84178  0.21652  0.32541  1.0000
  H   H15       1.0  0.8912200000000002  0.011069999999999993  0.1673  1.0000
  H   H16       1.0  0.60757  0.28446  0.62414  1.0000
  H   H17       1.0  0.78473  0.12484000000000009  0.6074300000000002  1.0000
  H   H18       1.0  0.5119800000000001  0.6678199999999997  0.89093  1.0000
  H   H19       1.0  0.7170600000000001  0.8257300000000001  0.8408700000000002  1.0000
  H   H20       1.0  0.98599  0.3817700000000001  0.6595500000000002  1.0000
  H   H21       1.0  0.16745000000000013  0.3909700000000001  0.5115500000000002  1.0000
  H   H22       1.0  0.62393  0.10728  0.78497  1.0000
  H   H23       1.0  0.8813600000000001  0.15962  0.98571  1.0000
  H   H24       1.0  0.32584000000000013  0.3413200000000001  0.7166600000000002  1.0000
  H   H25       1.0  0.42157000000000006  0.68006  0.24124  1.0000
  H   H26       1.0  0.06573000000000004  0.82313  0.74465  1.0000
  H   H27       1.0  0.18040000000000003  0.74227  0.42213  1.0000
  H   H28       1.0  0.32277  0.24449  0.06622  1.0000
  H   H29       1.0  0.74419  0.56542  0.3231600000000001  1.0000
  H   H30       1.0  0.24151999999999996  0.9217799999999998  0.18003000000000005  1.0000
  H   H31       1.0  0.5680800000000003  0.3234200000000001  0.7516500000000003  1.0000
  H   H32       1.0  0.9317700000000001  0.17632000000000003  0.24820000000000006  1.0000
  H   H33       1.0  0.8241  0.25242  0.56818  1.0000
  H   H34       1.0  0.67713  0.74845  0.9308600000000002  1.0000
  H   H35       1.0  0.24855000000000008  0.4312700000000001  0.6767000000000002  1.0000
  H   H36       1.0  0.75154  0.0679500000000001  0.8240500000000002  1.0000
  C   C1        1.0  0.2097100000000001  0.37209000000000003  0.11329000000000003  1.0000
  C   C2        1.0  0.263  0.47001  0.18128000000000005  1.0000
  C   C3        1.0  0.32685  0.53622  0.17586000000000004  1.0000
  C   C4        1.0  0.30331  0.9116299999999998  0.67248  1.0000
  C   C5        1.0  0.24230000000000018  0.9243800000000001  0.7109600000000003  1.0000
  C   C6        1.0  0.17285000000000003  0.85476  0.707  1.0000
  C   C7        1.0  0.23916000000000015  0.13200000000000003  0.8345700000000003  1.0000
  C   C8        1.0  0.21113  0.03364000000000002  0.79178  1.0000
  C   C9        1.0  0.14025  0.96717  0.78982  1.0000
  C   C10       1.0  0.25814  0.5917499999999999  0.38895000000000013  1.0000
  C   C11       1.0  0.28646  0.5789  0.31728  1.0000
  C   C12       1.0  0.35155000000000003  0.64821  0.3163500000000001  1.0000
  C   C13       1.0  0.09155999999999992  0.8880099999999997  0.25674  1.0000
  C   C14       1.0  0.07896000000000002  0.81688  0.28573  1.0000
  C   C15       1.0  0.14843000000000003  0.81657  0.35123  1.0000
  C   C16       1.0  0.63212  0.33477  0.23973000000000005  1.0000
  C   C17       1.0  0.5335200000000001  0.29175999999999996  0.21149000000000007  1.0000
  C   C18       1.0  0.46701  0.28972  0.14063  1.0000
  C   C19       1.0  0.41153  0.17262  0.30368  1.0000
  C   C20       1.0  0.4242300000000001  0.21099  0.24269  1.0000
  C   C21       1.0  0.35455  0.20706000000000002  0.17334000000000005  1.0000
  C   C22       1.0  0.8722000000000001  0.61345  0.20992000000000005  1.0000
  C   C23       1.0  0.97013  0.6813599999999997  0.2630700000000001  1.0000
  C   C24       1.0  0.036479999999999985  0.67646  0.32732  1.0000
  C   C25       1.0  0.83441  0.73978  0.6320000000000001  1.0000
  C   C26       1.0  0.79138  0.7113999999999999  0.5333800000000002  1.0000
  C   C27       1.0  0.7893  0.64033  0.46719  1.0000
  C   C28       1.0  0.3883299999999999  0.7574599999999998  0.09149000000000003  1.0000
  C   C29       1.0  0.31691  0.7861299999999998  0.07882000000000003  1.0000
  C   C30       1.0  0.3163  0.85136  0.14814  1.0000
  C   C31       1.0  0.1132100000000001  0.7098600000000002  0.8720900000000003  1.0000
  C   C32       1.0  0.18104000000000012  0.763  0.9699900000000002  1.0000
  C   C33       1.0  0.17586999999999994  0.82696  0.03623  1.0000
  C   C34       1.0  0.6726  0.80339  0.41078  1.0000
  C   C35       1.0  0.7108  0.74236  0.42376000000000014  1.0000
  C   C36       1.0  0.70681  0.6726799999999998  0.3543300000000001  1.0000
  C   C37       1.0  0.8007100000000003  0.6255799999999998  0.89429  1.0000
  C   C38       1.0  0.7418900000000004  0.5288800000000002  0.8222100000000002  1.0000
  C   C39       1.0  0.6727000000000001  0.4647  0.82398  1.0000
  C   C40       1.0  0.7003200000000003  0.09207000000000004  0.3290700000000001  1.0000
  C   C41       1.0  0.7582  0.07764  0.28675000000000006  1.0000
  C   C42       1.0  0.82741  0.14657999999999993  0.28967  1.0000
  C   C43       1.0  0.75486  0.8678900000000002  0.15764000000000006  1.0000
  C   C44       1.0  0.78433  0.9665  0.20084  1.0000
  C   C45       1.0  0.85473  0.03219999999999998  0.20142  1.0000
  C   C46       1.0  0.7456200000000002  0.40668  0.61452  1.0000
  C   C47       1.0  0.71516  0.42042  0.68416  1.0000
  C   C48       1.0  0.6443700000000002  0.3528900000000001  0.6813000000000002  1.0000
  C   C49       1.0  0.9065999999999999  0.11514000000000003  0.74569  1.0000
  C   C50       1.0  0.9206000000000001  0.18483000000000016  0.7152900000000002  1.0000
  C   C51       1.0  0.8532300000000003  0.18201000000000006  0.64444  1.0000
  C   C52       1.0  0.3686100000000001  0.6586700000000001  0.7554500000000002  1.0000
  C   C53       1.0  0.4670800000000001  0.70148  0.7842700000000002  1.0000
  C   C54       1.0  0.5329500000000001  0.7019100000000001  0.8543700000000002  1.0000
  C   C55       1.0  0.5921600000000001  0.8302100000000001  0.7003500000000001  1.0000
  C   C56       1.0  0.57806  0.7874399999999998  0.75795  1.0000
  C   C57       1.0  0.6471100000000001  0.79007  0.8267100000000002  1.0000
  C   C58       1.0  0.1260900000000001  0.39481  0.8013100000000002  1.0000
  C   C59       1.0  0.02931999999999999  0.3229000000000001  0.74233  1.0000
  C   C60       1.0  0.9652900000000003  0.32478  0.6731000000000003  1.0000
  C   C61       1.0  0.15780000000000002  0.2549100000000001  0.3681900000000001  1.0000
  C   C62       1.0  0.2009700000000001  0.28417000000000003  0.4667000000000001  1.0000
  C   C63       1.0  0.20159000000000013  0.3544300000000001  0.5325200000000001  1.0000
  C   C64       1.0  0.6146000000000001  0.2457300000000001  0.9068800000000002  1.0000
  C   C65       1.0  0.6843200000000005  0.21538  0.9206800000000003  1.0000
  C   C66       1.0  0.6813000000000001  0.1443900000000001  0.8533500000000003  1.0000
  C   C67       1.0  0.89483  0.30158  0.12577000000000005  1.0000
  C   C68       1.0  0.82267  0.24252  0.02908  1.0000
  C   C69       1.0  0.82432  0.17317  0.96509  1.0000
  C   C70       1.0  0.32921000000000017  0.19989000000000012  0.5917900000000003  1.0000
  C   C71       1.0  0.28699  0.25789  0.57768  1.0000
  C   C72       1.0  0.29000000000000004  0.32698000000000005  0.6467200000000001  1.0000
  C   C73       1.0  0.37189000000000005  0.6269799999999998  0.24425000000000002  1.0000
  C   C74       1.0  0.12051000000000012  0.8762000000000001  0.74682  1.0000
  C   C75       1.0  0.12725000000000003  0.74489  0.3721700000000001  1.0000
  C   C76       1.0  0.37593  0.24674999999999997  0.12097  1.0000
  C   C77       1.0  0.74642  0.62038  0.3760400000000001  1.0000
  C   C78       1.0  0.2443199999999999  0.87197  0.12697  1.0000
  C   C79       1.0  0.6226300000000001  0.3749800000000001  0.7520700000000002  1.0000
  C   C80       1.0  0.8768700000000001  0.12374000000000003  0.24640000000000006  1.0000
  C   C81       1.0  0.8755200000000001  0.2528400000000001  0.6228100000000002  1.0000
  C   C82       1.0  0.62445  0.74673  0.8761700000000002  1.0000
  C   C83       1.0  0.24670000000000003  0.37649  0.62404  1.0000
  C   C84       1.0  0.7521200000000002  0.1226900000000001  0.8754500000000002  1.0000
  N   N1        1.0  0.24245999999999995  0.49093999999999993  0.25061  1.0000
  N   N2        1.0  0.26128  0.012560000000000017  0.75252  1.0000
  N   N3        1.0  0.9909699999999997  0.7502099999999998  0.24194  1.0000
  N   N4        1.0  0.51246  0.25254  0.26161  1.0000
  N   N5        1.0  0.75241  0.76163  0.51209  1.0000
  N   N6        1.0  0.2501900000000002  0.7421700000000001  0.9908500000000002  1.0000
  N   N7        1.0  0.76301  0.50756  0.75356  1.0000
  N   N8        1.0  0.7367600000000001  0.9888799999999999  0.24308000000000005  1.0000
  N   N9        1.0  0.0077700000000000035  0.25419  0.7633  1.0000
  N   N10       1.0  0.48929000000000006  0.7437999999999998  0.7367300000000001  1.0000
  N   N11       1.0  0.2431700000000001  0.23652000000000006  0.48892000000000013  1.0000
  N   N12       1.0  0.75393  0.26354  0.007740000000000002  1.0000
  O   O1        1.0  0.15551999999999994  0.3185599999999999  0.12898  1.0000
  O   O2        1.0  0.21799  0.34516  0.041430000000000015  1.0000
  O   O3        1.0  0.36162  0.98187  0.67828  1.0000
  O   O4        1.0  0.2956800000000001  0.83227  0.63688  1.0000
  O   O5        1.0  0.30885  0.18555000000000005  0.83522  1.0000
  O   O6        1.0  0.1924700000000001  0.15907000000000007  0.8676100000000002  1.0000
  O   O7        1.0  0.19307000000000005  0.52247  0.3773900000000001  1.0000
  O   O8        1.0  0.3004900000000001  0.6704199999999999  0.4590700000000001  1.0000
  O   O9        1.0  0.022269999999999953  0.8755299999999998  0.19103000000000006  1.0000
  O   O10       1.0  0.17008000000000004  0.95846  0.2993000000000001  1.0000
  O   O11       1.0  0.68566  0.33618999999999993  0.30991000000000013  1.0000
  O   O12       1.0  0.65908  0.36719  0.19265  1.0000
  O   O13       1.0  0.48178000000000004  0.17830000000000001  0.36188000000000003  1.0000
  O   O14       1.0  0.33208  0.13710000000000006  0.2961200000000001  1.0000
  O   O15       1.0  0.8186200000000001  0.6289  0.15546  1.0000
  O   O16       1.0  0.8451300000000005  0.54177  0.21847000000000005  1.0000
  O   O17       1.0  0.8361000000000001  0.8101900000000001  0.6854000000000002  1.0000
  O   O18       1.0  0.8666500000000001  0.6926399999999999  0.6589900000000002  1.0000
  O   O19       1.0  0.37623  0.69218  0.02217  1.0000
  O   O20       1.0  0.4586700000000001  0.7998199999999998  0.17009  1.0000
  O   O21       1.0  0.12894  0.6556499999999998  0.8186300000000002  1.0000
  O   O22       1.0  0.041329999999999964  0.7181799999999999  0.84494  1.0000
  O   O23       1.0  0.6788000000000002  0.8623199999999998  0.4809000000000001  1.0000
  O   O24       1.0  0.63671  0.79527  0.3311100000000001  1.0000
  O   O25       1.0  0.8589500000000001  0.6779800000000001  0.8815500000000001  1.0000
  O   O26       1.0  0.7916900000000001  0.65124  0.9657000000000002  1.0000
  O   O27       1.0  0.64215  0.022420000000000002  0.32425  1.0000
  O   O28       1.0  0.71039  0.17224  0.3667  1.0000
  O   O29       1.0  0.68799  0.81559  0.16162000000000004  1.0000
  O   O30       1.0  0.79783  0.83889  0.11991  1.0000
  O   O31       1.0  0.81485  0.47435999999999995  0.62901  1.0000
  O   O32       1.0  0.70147  0.32911  0.54251  1.0000
  O   O33       1.0  0.97421  0.12926000000000004  0.8146900000000001  1.0000
  O   O34       1.0  0.82872  0.04342000000000007  0.7016100000000002  1.0000
  O   O35       1.0  0.31596000000000013  0.6632599999999998  0.6893100000000002  1.0000
  O   O36       1.0  0.3399700000000001  0.6205699999999998  0.7983500000000002  1.0000
  O   O37       1.0  0.52237  0.8261099999999999  0.6432300000000002  1.0000
  O   O38       1.0  0.67205  0.8674400000000001  0.7095100000000001  1.0000
  O   O39       1.0  0.17829  0.38184  0.85944  1.0000
  O   O40       1.0  0.1519  0.46622  0.79235  1.0000
  O   O41       1.0  0.16193000000000005  0.18828000000000006  0.31574000000000013  1.0000
  O   O42       1.0  0.11977000000000003  0.2977  0.3392000000000001  1.0000
  O   O43       1.0  0.62905  0.31491  0.9744800000000002  1.0000
  O   O44       1.0  0.5425300000000001  0.2014200000000001  0.8292700000000002  1.0000
  O   O45       1.0  0.88181  0.35948  0.17807000000000006  1.0000
  O   O46       1.0  0.96644  0.29281  0.15139000000000005  1.0000
  O   O47       1.0  0.3239800000000001  0.14165000000000003  0.5219600000000002  1.0000
  O   O48       1.0  0.3671900000000002  0.2099000000000001  0.6719400000000002  1.0000
