data_image0
_chemical_formula_structural       Cd4H56C80N16O16
_chemical_formula_sum              "Cd4 H56 C80 N16 O16"
_cell_length_a       10.18044
_cell_length_b       10.18044
_cell_length_c       24.06825
_cell_angle_alpha    90.0
_cell_angle_beta     90.0
_cell_angle_gamma    90.0

_symmetry_space_group_name_H-M    'P 1'
_symmetry_Int_Tables_number       1

loop_
  _symmetry_equiv_pos_as_xyz
  'x,y,z'

loop_
  _atom_site_type_symbol
  _atom_site_label
  _atom_site_symmetry_multiplicity
  _atom_site_fract_x
  _atom_site_fract_y
  _atom_site_fract_z
  _atom_site_occupancy
  Cd  Cd1       1.0  0.5  0.5  0.5  1.0000
  Cd  Cd2       1.0  0.5  0.0  0.25  1.0000
  Cd  Cd3       1.0  0.0  0.5  0.7499999999999999  1.0000
  Cd  Cd4       1.0  0.0  0.0  0.0  1.0000
  H   H1        1.0  0.6683  0.19288  0.9670099999999999  1.0000
  H   H2        1.0  0.35289  0.52393  0.17802  1.0000
  H   H3        1.0  0.38236  0.04617  0.49797999999999987  1.0000
  H   H4        1.0  0.31459  0.59068  0.7854899999999998  1.0000
  H   H5        1.0  0.18541  0.09068  0.28549  1.0000
  H   H6        1.0  0.23723999999999998  0.6490199999999999  0.56291  1.0000
  H   H7        1.0  0.52393  0.64711  0.82199  1.0000
  H   H8        1.0  0.16829999999999998  0.30711999999999995  0.46701  1.0000
  H   H9        1.0  0.23304999999999998  0.23676  0.6435899999999999  1.0000
  H   H10       1.0  0.9760699999999999  0.14711  0.32199  1.0000
  H   H11       1.0  0.02393  0.8528899999999999  0.32199  1.0000
  H   H12       1.0  0.64711  0.47607  0.17802  1.0000
  H   H13       1.0  0.14902  0.73725  0.9370999999999999  1.0000
  H   H14       1.0  0.09068  0.8145899999999999  0.71451  1.0000
  H   H15       1.0  0.8145899999999999  0.90932  0.28549  1.0000
  H   H16       1.0  0.14711  0.02393  0.67802  1.0000
  H   H17       1.0  0.76695  0.76324  0.6435899999999999  1.0000
  H   H18       1.0  0.8317  0.69288  0.46701  1.0000
  H   H19       1.0  0.35098  0.23725  0.4371  1.0000
  H   H20       1.0  0.11764000000000001  0.54617  0.99798  1.0000
  H   H21       1.0  0.59068  0.6854099999999999  0.21451  1.0000
  H   H22       1.0  0.23676  0.76695  0.35641  1.0000
  H   H23       1.0  0.15931  0.46514999999999995  0.6242  1.0000
  H   H24       1.0  0.26275  0.14902  0.06291  1.0000
  H   H25       1.0  0.34069  0.96515  0.12419999999999999  1.0000
  H   H26       1.0  0.04616  0.61764  0.50202  1.0000
  H   H27       1.0  0.90932  0.18541  0.71451  1.0000
  H   H28       1.0  0.19288  0.3317  0.03299  1.0000
  H   H29       1.0  0.03485  0.34069  0.8757999999999999  1.0000
  H   H30       1.0  0.76324  0.23304999999999998  0.35641  1.0000
  H   H31       1.0  0.3317  0.8071200000000001  0.9670099999999999  1.0000
  H   H32       1.0  0.47607  0.35289  0.82199  1.0000
  H   H33       1.0  0.73305  0.26324  0.14359  1.0000
  H   H34       1.0  0.6490199999999999  0.76275  0.4371  1.0000
  H   H35       1.0  0.96515  0.65931  0.8757999999999999  1.0000
  H   H36       1.0  0.30711999999999995  0.8317  0.53299  1.0000
  H   H37       1.0  0.8071200000000001  0.6683  0.03299  1.0000
  H   H38       1.0  0.84069  0.53485  0.6242  1.0000
  H   H39       1.0  0.95383  0.38236  0.50202  1.0000
  H   H40       1.0  0.46514999999999995  0.84069  0.3758  1.0000
  H   H41       1.0  0.73724  0.85098  0.06291  1.0000
  H   H42       1.0  0.26695  0.73676  0.14359  1.0000
  H   H43       1.0  0.45383  0.11764000000000001  0.00202  1.0000
  H   H44       1.0  0.76275  0.35098  0.56291  1.0000
  H   H45       1.0  0.73676  0.73305  0.8564099999999999  1.0000
  H   H46       1.0  0.54616  0.88236  0.00202  1.0000
  H   H47       1.0  0.53485  0.15931  0.3758  1.0000
  H   H48       1.0  0.26324  0.26695  0.8564099999999999  1.0000
  H   H49       1.0  0.88236  0.45383  0.99798  1.0000
  H   H50       1.0  0.65931  0.03485  0.12419999999999999  1.0000
  H   H51       1.0  0.6854099999999999  0.4093200000000001  0.7854899999999998  1.0000
  H   H52       1.0  0.4093200000000001  0.31459  0.21451  1.0000
  H   H53       1.0  0.8528899999999999  0.9760699999999999  0.67802  1.0000
  H   H54       1.0  0.85098  0.26275  0.9370999999999999  1.0000
  H   H55       1.0  0.69288  0.16829999999999998  0.53299  1.0000
  H   H56       1.0  0.61764  0.95383  0.49797999999999987  1.0000
  C   C1        1.0  0.77909  0.08892  0.60825  1.0000
  C   C2        1.0  0.31142  0.15554  0.56816  1.0000
  C   C3        1.0  0.34446  0.18858  0.93184  1.0000
  C   C4        1.0  0.78324  0.8676499999999999  0.95095  1.0000
  C   C5        1.0  0.19918999999999998  0.02764  0.63862  1.0000
  C   C6        1.0  0.88014  0.24832999999999997  0.68043  1.0000
  C   C7        1.0  0.04059  0.66969  0.4627  1.0000
  C   C8        1.0  0.93194  0.34782  0.8646099999999999  1.0000
  C   C9        1.0  0.80081  0.97236  0.63862  1.0000
  C   C10       1.0  0.2455  0.14747  0.61921  1.0000
  C   C11       1.0  0.2845  0.67908  0.8695799999999999  1.0000
  C   C12       1.0  0.9110800000000001  0.77909  0.39176  1.0000
  C   C13       1.0  0.85253  0.2455  0.38079  1.0000
  C   C14       1.0  0.25167  0.61986  0.81957  1.0000
  C   C15       1.0  0.69919  0.47235999999999995  0.13862  1.0000
  C   C16       1.0  0.24832999999999997  0.11986  0.31956999999999997  1.0000
  C   C17       1.0  0.84446  0.31142  0.43183999999999995  1.0000
  C   C18       1.0  0.13235  0.78324  0.04904999999999999  1.0000
  C   C19       1.0  0.67908  0.7155  0.13042  1.0000
  C   C20       1.0  0.35253  0.2545  0.88079  1.0000
  C   C21       1.0  0.34781  0.06806  0.13539  1.0000
  C   C22       1.0  0.66969  0.9594  0.5373  1.0000
  C   C23       1.0  0.2545  0.64747  0.11920999999999998  1.0000
  C   C24       1.0  0.16969  0.54059  0.0373  1.0000
  C   C25       1.0  0.56806  0.84781  0.36461  1.0000
  C   C26       1.0  0.02764  0.80081  0.36138  1.0000
  C   C27       1.0  0.43194  0.15219  0.36461  1.0000
  C   C28       1.0  0.22090999999999997  0.9110800000000001  0.60825  1.0000
  C   C29       1.0  0.61986  0.74833  0.18042999999999998  1.0000
  C   C30       1.0  0.8114199999999999  0.34446  0.06816  1.0000
  C   C31       1.0  0.64747  0.7455  0.88079  1.0000
  C   C32       1.0  0.15218  0.56806  0.63539  1.0000
  C   C33       1.0  0.58034  0.21279  0.9428899999999998  1.0000
  C   C34       1.0  0.52764  0.69919  0.8613799999999998  1.0000
  C   C35       1.0  0.08892  0.22090999999999997  0.39176  1.0000
  C   C36       1.0  0.54059  0.83031  0.9627  1.0000
  C   C37       1.0  0.21676  0.13235  0.95095  1.0000
  C   C38       1.0  0.41966  0.78721  0.9428899999999998  1.0000
  C   C39       1.0  0.65218  0.93194  0.13539  1.0000
  C   C40       1.0  0.32092  0.2845  0.13042  1.0000
  C   C41       1.0  0.71279  0.08034  0.55712  1.0000
  C   C42       1.0  0.75167  0.88014  0.31956999999999997  1.0000
  C   C43       1.0  0.47235999999999995  0.30081  0.8613799999999998  1.0000
  C   C44       1.0  0.17908  0.7845  0.63042  1.0000
  C   C45       1.0  0.28324  0.63235  0.45095  1.0000
  C   C46       1.0  0.8209200000000001  0.2155  0.63042  1.0000
  C   C47       1.0  0.7545  0.85253  0.61921  1.0000
  C   C48       1.0  0.14747  0.7545  0.38079  1.0000
  C   C49       1.0  0.21279  0.41966  0.05711999999999998  1.0000
  C   C50       1.0  0.63235  0.71676  0.54906  1.0000
  C   C51       1.0  0.41108  0.72091  0.89176  1.0000
  C   C52       1.0  0.74833  0.3801399999999999  0.81957  1.0000
  C   C53       1.0  0.58892  0.27909  0.89176  1.0000
  C   C54       1.0  0.83031  0.45941  0.0373  1.0000
  C   C55       1.0  0.28721  0.9196599999999999  0.55712  1.0000
  C   C56       1.0  0.30081  0.52764  0.13862  1.0000
  C   C57       1.0  0.7845  0.8209200000000001  0.36958  1.0000
  C   C58       1.0  0.11986  0.75167  0.68043  1.0000
  C   C59       1.0  0.06806  0.65218  0.8646099999999999  1.0000
  C   C60       1.0  0.4594  0.16969  0.9627  1.0000
  C   C61       1.0  0.2155  0.17908  0.36958  1.0000
  C   C62       1.0  0.9594  0.33031  0.4627  1.0000
  C   C63       1.0  0.71676  0.36765  0.45095  1.0000
  C   C64       1.0  0.27909  0.41108  0.10824  1.0000
  C   C65       1.0  0.9196599999999999  0.71279  0.44288  1.0000
  C   C66       1.0  0.7155  0.32092  0.8695799999999999  1.0000
  C   C67       1.0  0.15554  0.68858  0.43183999999999995  1.0000
  C   C68       1.0  0.68858  0.84446  0.56816  1.0000
  C   C69       1.0  0.97236  0.19918999999999998  0.36138  1.0000
  C   C70       1.0  0.33031  0.04059  0.5373  1.0000
  C   C71       1.0  0.6555399999999999  0.8114199999999999  0.93184  1.0000
  C   C72       1.0  0.72091  0.58892  0.10824  1.0000
  C   C73       1.0  0.3801399999999999  0.25167  0.18042999999999998  1.0000
  C   C74       1.0  0.7455  0.35253  0.11920999999999998  1.0000
  C   C75       1.0  0.08034  0.28721  0.44288  1.0000
  C   C76       1.0  0.84781  0.43194  0.63539  1.0000
  C   C77       1.0  0.78721  0.58034  0.05711999999999998  1.0000
  C   C78       1.0  0.18858  0.6555399999999999  0.06816  1.0000
  C   C79       1.0  0.36765  0.28324  0.54906  1.0000
  C   C80       1.0  0.8676499999999999  0.21676  0.04904999999999999  1.0000
  N   N1        1.0  0.6029  0.883  0.1828  1.0000
  N   N2        1.0  0.30145  0.16574  0.10307999999999999  1.0000
  N   N3        1.0  0.117  0.6029  0.8171999999999999  1.0000
  N   N4        1.0  0.883  0.3971  0.8171999999999999  1.0000
  N   N5        1.0  0.1029  0.617  0.6828  1.0000
  N   N6        1.0  0.3971  0.117  0.1828  1.0000
  N   N7        1.0  0.80145  0.33426  0.60309  1.0000
  N   N8        1.0  0.617  0.8970999999999999  0.3171999999999999  1.0000
  N   N9        1.0  0.8342600000000001  0.30145  0.89692  1.0000
  N   N10       1.0  0.8970999999999999  0.383  0.6828  1.0000
  N   N11       1.0  0.383  0.1029  0.3171999999999999  1.0000
  N   N12       1.0  0.69855  0.8342600000000001  0.10307999999999999  1.0000
  N   N13       1.0  0.66574  0.80145  0.39692  1.0000
  N   N14       1.0  0.16574  0.69855  0.89692  1.0000
  N   N15       1.0  0.19855  0.66574  0.60309  1.0000
  N   N16       1.0  0.33426  0.19855  0.39692  1.0000
  O   O1        1.0  0.11464999999999999  0.87489  0.08323999999999997  1.0000
  O   O2        1.0  0.09987  0.79306  0.9969599999999998  1.0000
  O   O3        1.0  0.20694  0.09987  0.00304  1.0000
  O   O4        1.0  0.12511  0.11464999999999999  0.91677  1.0000
  O   O5        1.0  0.87489  0.88535  0.91677  1.0000
  O   O6        1.0  0.37489  0.61465  0.41676  1.0000
  O   O7        1.0  0.79306  0.90013  0.00304  1.0000
  O   O8        1.0  0.61465  0.62511  0.58324  1.0000
  O   O9        1.0  0.70694  0.40013  0.50304  1.0000
  O   O10       1.0  0.29306  0.59987  0.50304  1.0000
  O   O11       1.0  0.88535  0.12511  0.08323999999999997  1.0000
  O   O12       1.0  0.38535  0.37489  0.58324  1.0000
  O   O13       1.0  0.59987  0.70694  0.49695999999999996  1.0000
  O   O14       1.0  0.90013  0.20694  0.9969599999999998  1.0000
  O   O15       1.0  0.40013  0.29306  0.49695999999999996  1.0000
  O   O16       1.0  0.62511  0.38535  0.41676  1.0000
