data_image0
_chemical_formula_structural       In4H64C112O32
_chemical_formula_sum              "In4 H64 C112 O32"
_cell_length_a       12.72444
_cell_length_b       19.546459999999996
_cell_length_c       20.27121
_cell_angle_alpha    89.92147
_cell_angle_beta     89.99865000000001
_cell_angle_gamma    89.94371

_space_group_name_H-M_alt    "P 1"
_space_group_IT_number       1

loop_
  _space_group_symop_operation_xyz
  'x, y, z'

loop_
  _atom_site_type_symbol
  _atom_site_label
  _atom_site_symmetry_multiplicity
  _atom_site_fract_x
  _atom_site_fract_y
  _atom_site_fract_z
  _atom_site_occupancy
  In  In1       1.0  0.7508  0.00024  0.37249  1.0000
  In  In2       1.0  0.24880000000000005  0.50042  0.872  1.0000
  In  In3       1.0  0.7511900000000002  0.4995800000000001  0.128  1.0000
  In  In4       1.0  0.24920000000000006  0.9997600000000001  0.62751  1.0000
  H   H1        1.0  0.02049  0.07776  0.52111  1.0000
  H   H2        1.0  0.10109  0.15884  0.59788  1.0000
  H   H3        1.0  0.8168  0.28123  0.59551  1.0000
  H   H4        1.0  0.73634  0.19773  0.51823  1.0000
  H   H5        1.0  0.17454000000000006  0.25433  0.61422  1.0000
  H   H6        1.0  0.25962  0.33484  0.69272  1.0000
  H   H7        1.0  0.9573900000000001  0.39258  0.7684100000000001  1.0000
  H   H8        1.0  0.87005  0.31219  0.69091  1.0000
  H   H9        1.0  0.48098000000000013  0.9227  0.5206800000000001  1.0000
  H   H10       1.0  0.39952  0.84151  0.5972  1.0000
  H   H11       1.0  0.68324  0.71858  0.59544  1.0000
  H   H12       1.0  0.76459  0.8021800000000001  0.51837  1.0000
  H   H13       1.0  0.32567  0.74612  0.6139200000000001  1.0000
  H   H14       1.0  0.24047000000000002  0.66533  0.69241  1.0000
  H   H15       1.0  0.54238  0.60738  0.76847  1.0000
  H   H16       1.0  0.62996  0.68792  0.69092  1.0000
  H   H17       1.0  0.51863  0.42246  0.020520000000000004  1.0000
  H   H18       1.0  0.60019  0.34156  0.09728  1.0000
  H   H19       1.0  0.31689  0.21853000000000003  0.09554  1.0000
  H   H20       1.0  0.23529  0.30195  0.01843  1.0000
  H   H21       1.0  0.6744800000000002  0.24572000000000002  0.11415000000000003  1.0000
  H   H22       1.0  0.75961  0.16516  0.19290000000000002  1.0000
  H   H23       1.0  0.4574900000000001  0.10739000000000001  0.2685600000000001  1.0000
  H   H24       1.0  0.3699900000000001  0.18783  0.19086  1.0000
  H   H25       1.0  0.9799200000000001  0.57801  0.020950000000000003  1.0000
  H   H26       1.0  0.8991800000000002  0.65887  0.0979  1.0000
  H   H27       1.0  0.18307000000000007  0.78131  0.09561  1.0000
  H   H28       1.0  0.26385  0.6978800000000001  0.01833  1.0000
  H   H29       1.0  0.8253800000000002  0.7545000000000001  0.11429  1.0000
  H   H30       1.0  0.7402000000000001  0.83492  0.19296000000000002  1.0000
  H   H31       1.0  0.04234000000000001  0.8925900000000001  0.26851  1.0000
  H   H32       1.0  0.12986000000000003  0.81225  0.19089  1.0000
  H   H33       1.0  0.48137000000000013  0.57753  0.97948  1.0000
  H   H34       1.0  0.39981000000000005  0.65844  0.90272  1.0000
  H   H35       1.0  0.6831100000000002  0.78147  0.90446  1.0000
  H   H36       1.0  0.7647  0.69805  0.98157  1.0000
  H   H37       1.0  0.32551  0.7542800000000001  0.88586  1.0000
  H   H38       1.0  0.24038000000000007  0.83484  0.8071  1.0000
  H   H39       1.0  0.5425  0.8926  0.7314400000000001  1.0000
  H   H40       1.0  0.6300100000000001  0.81216  0.80914  1.0000
  H   H41       1.0  0.02008  0.42199  0.97905  1.0000
  H   H42       1.0  0.10082  0.34112  0.9021000000000001  1.0000
  H   H43       1.0  0.81693  0.21868  0.90439  1.0000
  H   H44       1.0  0.73614  0.30211  0.98167  1.0000
  H   H45       1.0  0.17461000000000004  0.24550000000000002  0.88571  1.0000
  H   H46       1.0  0.25980000000000003  0.16508  0.8070400000000002  1.0000
  H   H47       1.0  0.9576500000000002  0.10740000000000001  0.7314900000000001  1.0000
  H   H48       1.0  0.8701400000000001  0.18775000000000003  0.8091100000000001  1.0000
  H   H49       1.0  0.9795000000000001  0.9222299999999999  0.47889  1.0000
  H   H50       1.0  0.8989100000000001  0.84115  0.40212  1.0000
  H   H51       1.0  0.18319  0.71877  0.40449000000000007  1.0000
  H   H52       1.0  0.26366  0.80227  0.48177000000000003  1.0000
  H   H53       1.0  0.8254600000000001  0.74567  0.38578000000000007  1.0000
  H   H54       1.0  0.7403700000000002  0.66515  0.30728  1.0000
  H   H55       1.0  0.04261000000000001  0.60741  0.23159  1.0000
  H   H56       1.0  0.12994  0.68781  0.30909  1.0000
  H   H57       1.0  0.5190200000000001  0.0773  0.47932  1.0000
  H   H58       1.0  0.6004700000000001  0.15849  0.4028  1.0000
  H   H59       1.0  0.3167600000000001  0.28141  0.40456  1.0000
  H   H60       1.0  0.23541000000000004  0.19782  0.48163  1.0000
  H   H61       1.0  0.6743300000000002  0.25388  0.38608  1.0000
  H   H62       1.0  0.7595300000000001  0.33467  0.30759  1.0000
  H   H63       1.0  0.4576200000000001  0.39262  0.23154  1.0000
  H   H64       1.0  0.37004  0.31208  0.30909  1.0000
  C   C1        1.0  0.8283500000000001  0.08615  0.46436  1.0000
  C   C2        1.0  0.8741100000000002  0.13365  0.5138700000000002  1.0000
  C   C3        1.0  0.9768100000000002  0.12264999999999998  0.5371400000000001  1.0000
  C   C4        1.0  0.021910000000000006  0.16901  0.58042  1.0000
  C   C5        1.0  0.9659800000000002  0.22734  0.60225  1.0000
  C   C6        1.0  0.86124  0.23656  0.57989  1.0000
  C   C7        1.0  0.8161900000000002  0.19057  0.53619  1.0000
  C   C8        1.0  0.01568  0.27651  0.6469600000000001  1.0000
  C   C9        1.0  0.12655  0.28377  0.64833  1.0000
  C   C10       1.0  0.17461000000000004  0.32888  0.6916600000000002  1.0000
  C   C11       1.0  0.11354  0.36769  0.7355  1.0000
  C   C12       1.0  0.0032300000000000007  0.36198  0.73408  1.0000
  C   C13       1.0  0.9551900000000001  0.31736  0.6903400000000001  1.0000
  C   C14       1.0  0.16413  0.41435999999999995  0.78412  1.0000
  C   C15       1.0  0.6738100000000002  0.9139700000000001  0.46449  1.0000
  C   C16       1.0  0.6273200000000001  0.8665300000000001  0.51389  1.0000
  C   C17       1.0  0.52444  0.8777000000000001  0.53683  1.0000
  C   C18       1.0  0.4788300000000001  0.83131  0.57998  1.0000
  C   C19       1.0  0.53444  0.77285  0.60201  1.0000
  C   C20       1.0  0.6391900000000003  0.7634300000000002  0.57982  1.0000
  C   C21       1.0  0.6847500000000002  0.8094200000000001  0.53626  1.0000
  C   C22       1.0  0.4845000000000001  0.72371  0.64677  1.0000
  C   C23       1.0  0.37362  0.71659  0.6480400000000001  1.0000
  C   C24       1.0  0.32547000000000004  0.67135  0.69129  1.0000
  C   C25       1.0  0.3863100000000001  0.63228  0.7351100000000002  1.0000
  C   C26       1.0  0.49663  0.63802  0.73403  1.0000
  C   C27       1.0  0.5448100000000001  0.68277  0.6903  1.0000
  C   C28       1.0  0.33450000000000013  0.58557  0.7832500000000001  1.0000
  C   C29       1.0  0.32602  0.41396  0.9643100000000001  1.0000
  C   C30       1.0  0.3724800000000001  0.36638  0.013700000000000002  1.0000
  C   C31       1.0  0.47527000000000014  0.37749  0.03672000000000001  1.0000
  C   C32       1.0  0.521  0.3312  0.07998  1.0000
  C   C33       1.0  0.4656300000000001  0.27274  0.10204  1.0000
  C   C34       1.0  0.3609000000000001  0.26333  0.07984  1.0000
  C   C35       1.0  0.31519000000000014  0.30929  0.0362  1.0000
  C   C36       1.0  0.5155900000000001  0.22361  0.14688000000000004  1.0000
  C   C37       1.0  0.6264800000000001  0.21633  0.14832  1.0000
  C   C38       1.0  0.67457  0.17118  0.19179000000000002  1.0000
  C   C39       1.0  0.6135100000000001  0.13235  0.23565  1.0000
  C   C40       1.0  0.5032  0.13808  0.23419  1.0000
  C   C41       1.0  0.45514  0.18274  0.19032  1.0000
  C   C42       1.0  0.6638500000000003  0.08555  0.28436  1.0000
  C   C43       1.0  0.17178000000000004  0.58719  0.96342  1.0000
  C   C44       1.0  0.12614  0.63398  0.01365  1.0000
  C   C45       1.0  0.02357  0.62283  0.03704  1.0000
  C   C46       1.0  0.97836  0.66905  0.08046  1.0000
  C   C47       1.0  0.03404  0.7274  0.10232000000000001  1.0000
  C   C48       1.0  0.13878000000000001  0.73663  0.08001000000000001  1.0000
  C   C49       1.0  0.18399  0.69072  0.03626  1.0000
  C   C50       1.0  0.9842200000000002  0.77656  0.14702  1.0000
  C   C51       1.0  0.8733500000000001  0.78384  0.14844  1.0000
  C   C52       1.0  0.8252100000000002  0.8289099999999999  0.19185000000000002  1.0000
  C   C53       1.0  0.8862600000000003  0.8677200000000002  0.23565  1.0000
  C   C54       1.0  0.9965800000000002  0.8619600000000001  0.23419  1.0000
  C   C55       1.0  0.044690000000000014  0.8173700000000002  0.19039  1.0000
  C   C56       1.0  0.8356500000000002  0.9144500000000001  0.28428  1.0000
  C   C57       1.0  0.67397  0.58604  0.03569  1.0000
  C   C58       1.0  0.6275100000000001  0.63362  0.9863000000000001  1.0000
  C   C59       1.0  0.5247300000000001  0.6225  0.96328  1.0000
  C   C60       1.0  0.47899  0.66879  0.92002  1.0000
  C   C61       1.0  0.53436  0.72726  0.8979600000000001  1.0000
  C   C62       1.0  0.6390900000000003  0.73667  0.92016  1.0000
  C   C63       1.0  0.6848100000000003  0.69071  0.9638000000000001  1.0000
  C   C64       1.0  0.48441  0.77639  0.85312  1.0000
  C   C65       1.0  0.37352  0.78367  0.8516800000000001  1.0000
  C   C66       1.0  0.32542  0.82882  0.80821  1.0000
  C   C67       1.0  0.38649  0.86765  0.76435  1.0000
  C   C68       1.0  0.4968000000000001  0.8619199999999999  0.76581  1.0000
  C   C69       1.0  0.5448500000000001  0.81726  0.8096800000000001  1.0000
  C   C70       1.0  0.33615  0.9144500000000001  0.7156400000000002  1.0000
  C   C71       1.0  0.8282100000000001  0.41281  0.03658  1.0000
  C   C72       1.0  0.8738600000000002  0.36601  0.9863600000000002  1.0000
  C   C73       1.0  0.9764300000000002  0.37717  0.9629600000000001  1.0000
  C   C74       1.0  0.021640000000000006  0.33094  0.91954  1.0000
  C   C75       1.0  0.9659500000000002  0.2726  0.89768  1.0000
  C   C76       1.0  0.8612200000000002  0.26336  0.9200000000000002  1.0000
  C   C77       1.0  0.816  0.30928  0.96374  1.0000
  C   C78       1.0  0.015770000000000003  0.22343000000000002  0.85298  1.0000
  C   C79       1.0  0.12664  0.21614999999999998  0.8515600000000001  1.0000
  C   C80       1.0  0.17478  0.17109  0.8081500000000001  1.0000
  C   C81       1.0  0.11374000000000001  0.13228  0.76435  1.0000
  C   C82       1.0  0.0034100000000000007  0.13804  0.76581  1.0000
  C   C83       1.0  0.9553  0.18262  0.8096100000000002  1.0000
  C   C84       1.0  0.16434  0.08554  0.71572  1.0000
  C   C85       1.0  0.17164000000000004  0.9138500000000002  0.5356400000000001  1.0000
  C   C86       1.0  0.12588  0.86635  0.48613  1.0000
  C   C87       1.0  0.023190000000000006  0.8773400000000001  0.4628700000000001  1.0000
  C   C88       1.0  0.9780900000000002  0.83099  0.4195900000000001  1.0000
  C   C89       1.0  0.03402000000000001  0.77266  0.39775  1.0000
  C   C90       1.0  0.13875  0.7634300000000002  0.42011000000000004  1.0000
  C   C91       1.0  0.1838  0.8094200000000001  0.46381  1.0000
  C   C92       1.0  0.98431  0.72349  0.3530400000000001  1.0000
  C   C93       1.0  0.8734500000000002  0.71623  0.35168  1.0000
  C   C94       1.0  0.8253900000000001  0.67112  0.30834  1.0000
  C   C95       1.0  0.8864600000000002  0.63231  0.2645  1.0000
  C   C96       1.0  0.9967700000000002  0.63802  0.26592  1.0000
  C   C97       1.0  0.044810000000000016  0.68264  0.30966000000000005  1.0000
  C   C98       1.0  0.8358700000000001  0.58564  0.21588  1.0000
  C   C99       1.0  0.3261800000000001  0.08603  0.53551  1.0000
  C   C100      1.0  0.3726700000000001  0.13346  0.4861100000000001  1.0000
  C   C101      1.0  0.4755500000000001  0.1223  0.4631700000000001  1.0000
  C   C102      1.0  0.52116  0.16869000000000003  0.4200200000000001  1.0000
  C   C103      1.0  0.46555  0.22715  0.39799  1.0000
  C   C104      1.0  0.36081000000000013  0.23657  0.42018000000000005  1.0000
  C   C105      1.0  0.31525000000000003  0.19057  0.46374  1.0000
  C   C106      1.0  0.5155  0.27628  0.35323  1.0000
  C   C107      1.0  0.62637  0.28341  0.35196  1.0000
  C   C108      1.0  0.67452  0.32865000000000005  0.30871  1.0000
  C   C109      1.0  0.61369  0.36771  0.26489  1.0000
  C   C110      1.0  0.5033700000000001  0.36197  0.26597  1.0000
  C   C111      1.0  0.4551800000000001  0.31723  0.3097  1.0000
  C   C112      1.0  0.6655000000000001  0.41442  0.21676000000000004  1.0000
  O   O1        1.0  0.8889800000000002  0.04548  0.43319  1.0000
  O   O2        1.0  0.7294600000000002  0.08714  0.45291  1.0000
  O   O3        1.0  0.10569  0.45506  0.81698  1.0000
  O   O4        1.0  0.26370000000000005  0.41282  0.7931300000000001  1.0000
  O   O5        1.0  0.6133700000000001  0.9547000000000001  0.43317  1.0000
  O   O6        1.0  0.7727300000000001  0.91291  0.4531  1.0000
  O   O7        1.0  0.39203  0.54519  0.81729  1.0000
  O   O8        1.0  0.23473000000000005  0.58686  0.79052  1.0000
  O   O9        1.0  0.3864300000000001  0.45467  0.9330200000000002  1.0000
  O   O10       1.0  0.22710000000000005  0.41305  0.95303  1.0000
  O   O11       1.0  0.6055900000000001  0.04481  0.3171900000000001  1.0000
  O   O12       1.0  0.7633900000000002  0.08716  0.29334  1.0000
  O   O13       1.0  0.11085  0.54836  0.9304600000000002  1.0000
  O   O14       1.0  0.27093  0.58704  0.9530100000000002  1.0000
  O   O15       1.0  0.89418  0.95513  0.31703  1.0000
  O   O16       1.0  0.7361100000000003  0.9129399999999999  0.29328  1.0000
  O   O17       1.0  0.61357  0.54533  0.06698  1.0000
  O   O18       1.0  0.7729000000000001  0.58694  0.04698  1.0000
  O   O19       1.0  0.39441000000000004  0.95519  0.68281  1.0000
  O   O20       1.0  0.23660000000000006  0.9128400000000001  0.7066600000000001  1.0000
  O   O21       1.0  0.8891500000000002  0.45163000000000003  0.06954  1.0000
  O   O22       1.0  0.72907  0.41295000000000004  0.04699  1.0000
  O   O23       1.0  0.10581000000000003  0.04486  0.68297  1.0000
  O   O24       1.0  0.26389000000000007  0.08706  0.70672  1.0000
  O   O25       1.0  0.11102  0.95452  0.56682  1.0000
  O   O26       1.0  0.27053  0.9128600000000001  0.5471000000000001  1.0000
  O   O27       1.0  0.8943100000000002  0.54494  0.18302  1.0000
  O   O28       1.0  0.7362900000000002  0.5871800000000001  0.20687000000000003  1.0000
  O   O29       1.0  0.38663  0.0453  0.56683  1.0000
  O   O30       1.0  0.22726000000000005  0.08709  0.5469  1.0000
  O   O31       1.0  0.60796  0.45481000000000005  0.18271  1.0000
  O   O32       1.0  0.7652700000000002  0.41314000000000006  0.20948000000000003  1.0000
