data_image0
_chemical_formula_structural       Co4Ni6H100C60N42
_chemical_formula_sum              "Co4 Ni6 H100 C60 N42"
_cell_length_a       14.09171
_cell_length_b       14.09137
_cell_length_c       16.24316
_cell_angle_alpha    79.94426
_cell_angle_beta     79.96859999999998
_cell_angle_gamma    60.82409

_symmetry_space_group_name_H-M    'P 1'
_symmetry_Int_Tables_number       1

loop_
  _symmetry_equiv_pos_as_xyz
  'x,y,z'

loop_
  _atom_site_type_symbol
  _atom_site_label
  _atom_site_symmetry_multiplicity
  _atom_site_fract_x
  _atom_site_fract_y
  _atom_site_fract_z
  _atom_site_occupancy
  Co  Co1       1.0  0.2210699999999999  0.15286  0.58849  1.0000
  Co  Co2       1.0  0.8471299999999997  0.77894  0.9115000000000002  1.0000
  Co  Co3       1.0  0.7789299999999998  0.8472700000000001  0.4114600000000001  1.0000
  Co  Co4       1.0  0.15273000000000006  0.22105999999999995  0.08856000000000003  1.0000
  Ni  Ni1       1.0  0.40928999999999993  0.04596999999999998  0.3076000000000001  1.0000
  Ni  Ni2       1.0  0.9540100000000001  0.59071  0.19245000000000007  1.0000
  Ni  Ni3       1.0  0.5906999999999994  0.95404  0.6923900000000002  1.0000
  Ni  Ni4       1.0  0.04597999999999993  0.4093  0.8075500000000002  1.0000
  Ni  Ni5       1.0  0.09213999999999996  0.90784  0.75003  1.0000
  Ni  Ni6       1.0  0.90805  0.09196000000000003  0.24997000000000005  1.0000
  H   H1        1.0  0.39708  0.87471  0.36283  1.0000
  H   H2        1.0  0.32677  0.93719  0.2812  1.0000
  H   H3        1.0  0.55761  0.77142  0.28122  1.0000
  H   H4        1.0  0.45473999999999987  0.7580400000000002  0.24326  1.0000
  H   H5        1.0  0.56346  0.79651  0.122  1.0000
  H   H6        1.0  0.4377799999999999  0.91317  0.12844  1.0000
  H   H7        1.0  0.6359199999999998  0.8844500000000001  0.20464  1.0000
  H   H8        1.0  0.61283  0.9362700000000002  0.09866000000000003  1.0000
  H   H9        1.0  0.44073  0.08110000000000003  0.1501  1.0000
  H   H10       1.0  0.63296  0.04998999999999998  0.21927000000000005  1.0000
  H   H11       1.0  0.60767  0.08948000000000002  0.11215  1.0000
  H   H12       1.0  0.4341499999999999  0.25686  0.15584000000000006  1.0000
  H   H13       1.0  0.55649  0.25418  0.16745  1.0000
  H   H14       1.0  0.43136999999999986  0.32579  0.2917700000000001  1.0000
  H   H15       1.0  0.5433499999999999  0.19781  0.31908  1.0000
  H   H16       1.0  0.39567999999999975  0.18745  0.3935000000000001  1.0000
  H   H17       1.0  0.31717  0.24494999999999997  0.31725  1.0000
  H   H18       1.0  0.15445999999999996  0.82035  0.6172700000000002  1.0000
  H   H19       1.0  0.08422999999999992  0.76691  0.68285  1.0000
  H   H20       1.0  0.02634999999999995  0.90048  0.53477  1.0000
  H   H21       1.0  0.9544999999999996  0.8400600000000001  0.60164  1.0000
  H   H22       1.0  0.8913199999999998  0.06459  0.55942  1.0000
  H   H23       1.0  0.8203  0.002910000000000008  0.62431  1.0000
  H   H24       1.0  0.8792199999999998  0.15595999999999993  0.6586900000000002  1.0000
  H   H25       1.0  0.80384  0.09778  0.72626  1.0000
  H   H26       1.0  0.12522999999999995  0.6029699999999999  0.13715000000000005  1.0000
  H   H27       1.0  0.06276999999999999  0.67327  0.21877  1.0000
  H   H28       1.0  0.22857  0.44236  0.21881000000000006  1.0000
  H   H29       1.0  0.24197999999999997  0.54525  0.2567700000000001  1.0000
  H   H30       1.0  0.20350999999999994  0.43651  0.37805  1.0000
  H   H31       1.0  0.08684999999999991  0.56221  0.37155  1.0000
  H   H32       1.0  0.11554999999999997  0.36405  0.29538  1.0000
  H   H33       1.0  0.06380000000000004  0.38708999999999993  0.40138  1.0000
  H   H34       1.0  0.91892  0.55929  0.34988  1.0000
  H   H35       1.0  0.9500199999999998  0.36701  0.28075  1.0000
  H   H36       1.0  0.9105999999999999  0.39226  0.3878900000000001  1.0000
  H   H37       1.0  0.74316  0.56585  0.34415  1.0000
  H   H38       1.0  0.7458400000000001  0.44348  0.3325700000000001  1.0000
  H   H39       1.0  0.6741899999999995  0.56867  0.20817  1.0000
  H   H40       1.0  0.80216  0.4566500000000001  0.18092000000000005  1.0000
  H   H41       1.0  0.8124999999999999  0.60437  0.10646  1.0000
  H   H42       1.0  0.7550399999999997  0.68287  0.18271000000000007  1.0000
  H   H43       1.0  0.17966999999999983  0.84552  0.8827800000000002  1.0000
  H   H44       1.0  0.23306  0.9158  0.8171900000000002  1.0000
  H   H45       1.0  0.09960999999999995  0.9735700000000002  0.96525  1.0000
  H   H46       1.0  0.15996999999999995  0.04547999999999999  0.8983800000000002  1.0000
  H   H47       1.0  0.9354600000000001  0.10863000000000002  0.94057  1.0000
  H   H48       1.0  0.9970999999999999  0.1797  0.87566  1.0000
  H   H49       1.0  0.8440599999999998  0.12074999999999994  0.8412600000000002  1.0000
  H   H50       1.0  0.90219  0.19617999999999997  0.7736900000000002  1.0000
  H   H51       1.0  0.6029099999999997  0.12529  0.63718  1.0000
  H   H52       1.0  0.67324  0.06281  0.7188100000000002  1.0000
  H   H53       1.0  0.44236  0.22858999999999996  0.71877  1.0000
  H   H54       1.0  0.54528  0.24197  0.75674  1.0000
  H   H55       1.0  0.43651999999999996  0.20351000000000002  0.878  1.0000
  H   H56       1.0  0.5622299999999997  0.08681999999999998  0.8715700000000002  1.0000
  H   H57       1.0  0.36404999999999976  0.11556  0.79535  1.0000
  H   H58       1.0  0.3871699999999999  0.06372000000000001  0.90134  1.0000
  H   H59       1.0  0.5592799999999998  0.9189  0.8499000000000002  1.0000
  H   H60       1.0  0.36699  0.95004  0.78071  1.0000
  H   H61       1.0  0.3923199999999999  0.9105300000000001  0.88787  1.0000
  H   H62       1.0  0.5658799999999999  0.74313  0.8441800000000003  1.0000
  H   H63       1.0  0.44345999999999997  0.7458200000000001  0.83255  1.0000
  H   H64       1.0  0.56865  0.67419  0.7082300000000002  1.0000
  H   H65       1.0  0.45658999999999994  0.80222  0.68091  1.0000
  H   H66       1.0  0.6042999999999996  0.81257  0.6065  1.0000
  H   H67       1.0  0.6828299999999995  0.7550500000000001  0.6827600000000003  1.0000
  H   H68       1.0  0.84569  0.17967  0.3827200000000001  1.0000
  H   H69       1.0  0.9157599999999998  0.23300000000000007  0.31727  1.0000
  H   H70       1.0  0.97368  0.09951999999999998  0.4652000000000001  1.0000
  H   H71       1.0  0.045479999999999986  0.15991  0.39838  1.0000
  H   H72       1.0  0.10866999999999997  0.93546  0.4405500000000001  1.0000
  H   H73       1.0  0.1796399999999999  0.9971  0.3757  1.0000
  H   H74       1.0  0.12073999999999992  0.8442000000000001  0.3412600000000001  1.0000
  H   H75       1.0  0.19596999999999992  0.9022800000000001  0.2738  1.0000
  H   H76       1.0  0.87476  0.39704000000000017  0.86286  1.0000
  H   H77       1.0  0.9372400000000001  0.3267  0.78122  1.0000
  H   H78       1.0  0.7714099999999998  0.55767  0.7812  1.0000
  H   H79       1.0  0.7580099999999999  0.45473000000000013  0.74324  1.0000
  H   H80       1.0  0.7964699999999999  0.56351  0.62195  1.0000
  H   H81       1.0  0.91315  0.43777  0.62844  1.0000
  H   H82       1.0  0.8844299999999996  0.63598  0.70464  1.0000
  H   H83       1.0  0.9362100000000001  0.61291  0.59862  1.0000
  H   H84       1.0  0.08108999999999997  0.44068  0.6501300000000002  1.0000
  H   H85       1.0  0.04994999999999993  0.63305  0.7192800000000003  1.0000
  H   H86       1.0  0.08938999999999998  0.60775  0.61209  1.0000
  H   H87       1.0  0.25686  0.43411  0.65583  1.0000
  H   H88       1.0  0.25416  0.55658  0.6674400000000003  1.0000
  H   H89       1.0  0.32585  0.43130000000000007  0.7918400000000002  1.0000
  H   H90       1.0  0.19779999999999995  0.54342  0.81909  1.0000
  H   H91       1.0  0.1874899999999999  0.39565  0.89355  1.0000
  H   H92       1.0  0.24494999999999995  0.31711  0.8172800000000002  1.0000
  H   H93       1.0  0.8203199999999998  0.15433  0.11723000000000003  1.0000
  H   H94       1.0  0.7670299999999998  0.08421  0.18269000000000005  1.0000
  H   H95       1.0  0.90039  0.02639  0.03478  1.0000
  H   H96       1.0  0.8400600000000001  0.95455  0.10160000000000002  1.0000
  H   H97       1.0  0.06448999999999995  0.8913800000000001  0.05946000000000001  1.0000
  H   H98       1.0  0.002889999999999939  0.8203600000000001  0.12432000000000003  1.0000
  H   H99       1.0  0.1557699999999999  0.8792900000000001  0.15879000000000004  1.0000
  H   H100      1.0  0.09774999999999996  0.80401  0.22625  1.0000
  C   C1        1.0  0.27642  0.09268999999999998  0.4865700000000001  1.0000
  C   C2        1.0  0.19925999999999996  0.03628000000000001  0.63953  1.0000
  C   C3        1.0  0.36221  0.08221  0.61989  1.0000
  C   C4        1.0  0.07741000000000002  0.22355999999999998  0.5575000000000002  1.0000
  C   C5        1.0  0.24361999999999995  0.27206  0.53942  1.0000
  C   C6        1.0  0.16699999999999998  0.22225  0.6860500000000003  1.0000
  C   C7        1.0  0.48384999999999995  0.81633  0.24822  1.0000
  C   C8        1.0  0.5113999999999999  0.8636600000000002  0.16135000000000005  1.0000
  C   C9        1.0  0.5718499999999995  0.9282600000000002  0.16177  1.0000
  C   C10       1.0  0.56815  0.09607  0.17717000000000005  1.0000
  C   C11       1.0  0.50398  0.21606  0.19335  1.0000
  C   C12       1.0  0.47  0.23769000000000004  0.28572  1.0000
  C   C13       1.0  0.99  0.89461  0.59953  1.0000
  C   C14       1.0  0.8956  0.010020000000000012  0.61761  1.0000
  C   C15       1.0  0.8836999999999999  0.07715999999999999  0.68868  1.0000
  C   C16       1.0  0.9073399999999996  0.72355  0.013440000000000004  1.0000
  C   C17       1.0  0.9637199999999999  0.8007300000000003  0.86048  1.0000
  C   C18       1.0  0.9178099999999997  0.6377599999999999  0.8801000000000002  1.0000
  C   C19       1.0  0.7764700000000001  0.92255  0.9424700000000003  1.0000
  C   C20       1.0  0.72797  0.75636  0.9605700000000003  1.0000
  C   C21       1.0  0.7777499999999998  0.8330000000000001  0.81395  1.0000
  C   C22       1.0  0.1837  0.51612  0.25181  1.0000
  C   C23       1.0  0.13635  0.48859  0.33867  1.0000
  C   C24       1.0  0.07179000000000002  0.4280900000000001  0.33826  1.0000
  C   C25       1.0  0.90395  0.4318100000000001  0.32285  1.0000
  C   C26       1.0  0.78394  0.49601  0.30666  1.0000
  C   C27       1.0  0.7622899999999997  0.53  0.21427000000000004  1.0000
  C   C28       1.0  0.10542999999999995  0.009959999999999998  0.90048  1.0000
  C   C29       1.0  0.9899999999999999  0.10438000000000001  0.88238  1.0000
  C   C30       1.0  0.9228500000000001  0.11627999999999998  0.81129  1.0000
  C   C31       1.0  0.7235900000000001  0.9073000000000001  0.51341  1.0000
  C   C32       1.0  0.8007199999999999  0.96364  0.36053  1.0000
  C   C33       1.0  0.6377899999999999  0.91778  0.38012  1.0000
  C   C34       1.0  0.92249  0.77649  0.4424900000000001  1.0000
  C   C35       1.0  0.7563800000000002  0.728  0.46056000000000014  1.0000
  C   C36       1.0  0.83295  0.77779  0.31402  1.0000
  C   C37       1.0  0.51614  0.18365999999999996  0.7517800000000002  1.0000
  C   C38       1.0  0.48859  0.13634000000000004  0.83866  1.0000
  C   C39       1.0  0.42815  0.07173999999999998  0.8382300000000003  1.0000
  C   C40       1.0  0.43187  0.90394  0.82282  1.0000
  C   C41       1.0  0.49603  0.78394  0.80666  1.0000
  C   C42       1.0  0.5300099999999998  0.76234  0.7142800000000002  1.0000
  C   C43       1.0  0.009979999999999989  0.1054  0.40046  1.0000
  C   C44       1.0  0.10438999999999998  0.9899700000000001  0.3823600000000001  1.0000
  C   C45       1.0  0.11622999999999993  0.9228900000000001  0.3113100000000001  1.0000
  C   C46       1.0  0.09268000000000001  0.27644  0.98658  1.0000
  C   C47       1.0  0.03635999999999998  0.19929  0.13947000000000007  1.0000
  C   C48       1.0  0.08219999999999998  0.36223  0.11988  1.0000
  C   C49       1.0  0.22348999999999994  0.07754  0.05753  1.0000
  C   C50       1.0  0.2719799999999999  0.24364000000000002  0.03945  1.0000
  C   C51       1.0  0.22221  0.16705  0.18600000000000005  1.0000
  C   C52       1.0  0.8163  0.48389  0.7482  1.0000
  C   C53       1.0  0.8636399999999997  0.51142  0.6613300000000002  1.0000
  C   C54       1.0  0.92821  0.57191  0.66175  1.0000
  C   C55       1.0  0.09603000000000003  0.5681799999999999  0.6771600000000002  1.0000
  C   C56       1.0  0.21606000000000006  0.50397  0.69333  1.0000
  C   C57       1.0  0.23769999999999997  0.46999  0.7857400000000002  1.0000
  C   C58       1.0  0.8945599999999999  0.9900500000000001  0.09953000000000002  1.0000
  C   C59       1.0  0.010009999999999982  0.89563  0.11765000000000003  1.0000
  C   C60       1.0  0.07710000000000003  0.88379  0.18873  1.0000
  N   N1        1.0  0.3143399999999999  0.058  0.42123  1.0000
  N   N2        1.0  0.18567999999999993  0.96228  0.67258  1.0000
  N   N3        1.0  0.45142999999999994  0.03785000000000001  0.63948  1.0000
  N   N4        1.0  0.9868600000000001  0.26744000000000007  0.54018  1.0000
  N   N5        1.0  0.2597399999999998  0.34629000000000004  0.5105200000000002  1.0000
  N   N6        1.0  0.13099999999999998  0.27305  0.74428  1.0000
  N   N7        1.0  0.40266  0.90265  0.30075  1.0000
  N   N8        1.0  0.5014099999999999  0.03918  0.18924  1.0000
  N   N9        1.0  0.39607999999999993  0.19398999999999994  0.3296500000000001  1.0000
  N   N10       1.0  0.08165999999999984  0.8385  0.6534200000000002  1.0000
  N   N11       1.0  0.942  0.68569  0.07879000000000003  1.0000
  N   N12       1.0  0.03769999999999997  0.81432  0.82744  1.0000
  N   N13       1.0  0.96214  0.54862  0.8605100000000002  1.0000
  N   N14       1.0  0.73257  0.01309999999999999  0.95979  1.0000
  N   N15       1.0  0.6537199999999999  0.7403  0.98947  1.0000
  N   N16       1.0  0.7268699999999999  0.86905  0.7556900000000002  1.0000
  N   N17       1.0  0.09734000000000001  0.59735  0.19925  1.0000
  N   N18       1.0  0.9608299999999997  0.49857  0.3107800000000001  1.0000
  N   N19       1.0  0.8059799999999996  0.6039400000000001  0.17033000000000006  1.0000
  N   N20       1.0  0.16150000000000006  0.91835  0.8466100000000002  1.0000
  N   N21       1.0  0.6856199999999999  0.9420200000000002  0.57877  1.0000
  N   N22       1.0  0.8146799999999997  0.03764  0.32724  1.0000
  N   N23       1.0  0.54862  0.96216  0.3605100000000001  1.0000
  N   N24       1.0  0.013139999999999997  0.7326  0.45975  1.0000
  N   N25       1.0  0.7402799999999999  0.65375  0.48944  1.0000
  N   N26       1.0  0.8690099999999997  0.72697  0.25571  1.0000
  N   N27       1.0  0.5973299999999998  0.09730000000000001  0.69926  1.0000
  N   N28       1.0  0.4986  0.96083  0.8107500000000001  1.0000
  N   N29       1.0  0.60392  0.8060500000000002  0.6703600000000002  1.0000
  N   N30       1.0  0.9183  0.16152  0.34655000000000014  1.0000
  N   N31       1.0  0.05797999999999995  0.31433  0.9212400000000002  1.0000
  N   N32       1.0  0.96238  0.18532  0.17274  1.0000
  N   N33       1.0  0.037840000000000006  0.45135  0.13952  1.0000
  N   N34       1.0  0.2673799999999999  0.9869000000000001  0.04028  1.0000
  N   N35       1.0  0.34623999999999994  0.25969  0.01057  1.0000
  N   N36       1.0  0.27309  0.13095000000000004  0.24432000000000006  1.0000
  N   N37       1.0  0.90269  0.40265000000000006  0.8007500000000002  1.0000
  N   N38       1.0  0.039159999999999924  0.50142  0.6892300000000002  1.0000
  N   N39       1.0  0.19399  0.39606  0.82967  1.0000
  N   N40       1.0  0.83849  0.0817  0.15342  1.0000
  N   N41       1.0  0.9615800000000001  0.038429999999999964  0.7499900000000003  1.0000
  N   N42       1.0  0.038329999999999996  0.96166  0.25001  1.0000
