data_image0
_chemical_formula_structural       Gd4Zn6H48C48O60
_chemical_formula_sum              "Gd4 Zn6 H48 C48 O60"
_cell_length_a       14.23506
_cell_length_b       14.24055
_cell_length_c       15.74573
_cell_angle_alpha    90.0
_cell_angle_beta     90.0
_cell_angle_gamma    120.17302

_symmetry_space_group_name_H-M    'P 1'
_symmetry_Int_Tables_number       1

loop_
  _symmetry_equiv_pos_as_xyz
  'x,y,z'

loop_
  _atom_site_type_symbol
  _atom_site_label
  _atom_site_symmetry_multiplicity
  _atom_site_fract_x
  _atom_site_fract_y
  _atom_site_fract_z
  _atom_site_occupancy
  Gd  Gd1       1.0  0.33305  0.66689  0.74859  1.0000
  Gd  Gd2       1.0  0.66696  0.33311  0.74859  1.0000
  Gd  Gd3       1.0  0.66696  0.33311  0.25141  1.0000
  Gd  Gd4       1.0  0.33305  0.66689  0.25141  1.0000
  Zn  Zn1       1.0  0.0  0.5  0.0  1.0000
  Zn  Zn2       1.0  0.5  0.0  0.0  1.0000
  Zn  Zn3       1.0  0.5  0.5  0.0  1.0000
  Zn  Zn4       1.0  0.5  0.5  0.5  1.0000
  Zn  Zn5       1.0  0.5  0.0  0.5  1.0000
  Zn  Zn6       1.0  0.0  0.5  0.5  1.0000
  H   H1        1.0  0.17219000000000004  0.35563000000000006  0.85031  1.0000
  H   H2        1.0  0.07275000000000002  0.34417000000000003  0.77483  1.0000
  H   H3        1.0  0.1829200000000002  0.8273400000000002  0.8501799999999998  1.0000
  H   H4        1.0  0.2716  0.92618  0.7743599999999998  1.0000
  H   H5        1.0  0.6448700000000002  0.8170900000000001  0.84937  1.0000
  H   H6        1.0  0.6544  0.72819  0.77389  1.0000
  H   H7        1.0  0.82782  0.64437  0.85031  1.0000
  H   H8        1.0  0.92725  0.65582  0.77483  1.0000
  H   H9        1.0  0.8170799999999999  0.17266  0.8501799999999998  1.0000
  H   H10       1.0  0.7284099999999999  0.07382  0.7743599999999998  1.0000
  H   H11       1.0  0.35513  0.18291  0.84937  1.0000
  H   H12       1.0  0.34561  0.27181  0.77389  1.0000
  H   H13       1.0  0.8175500000000001  0.6480300000000001  0.65046  1.0000
  H   H14       1.0  0.72774  0.65417  0.7272  1.0000
  H   H15       1.0  0.35370000000000007  0.17024  0.6496899999999998  1.0000
  H   H16       1.0  0.34531  0.07339000000000001  0.7266599999999999  1.0000
  H   H17       1.0  0.82936  0.18244000000000002  0.6501699999999998  1.0000
  H   H18       1.0  0.92712  0.27186  0.7263599999999998  1.0000
  H   H19       1.0  0.18245  0.35196  0.65046  1.0000
  H   H20       1.0  0.27227000000000007  0.3458300000000001  0.7272  1.0000
  H   H21       1.0  0.6463  0.82976  0.6496899999999998  1.0000
  H   H22       1.0  0.65469  0.92661  0.7266599999999999  1.0000
  H   H23       1.0  0.17063999999999993  0.81756  0.6501699999999998  1.0000
  H   H24       1.0  0.07289000000000007  0.7281400000000001  0.7263599999999998  1.0000
  H   H25       1.0  0.82782  0.64437  0.14969  1.0000
  H   H26       1.0  0.92725  0.65582  0.22516999999999995  1.0000
  H   H27       1.0  0.8170799999999999  0.17266  0.14983  1.0000
  H   H28       1.0  0.7284099999999999  0.07382  0.22564  1.0000
  H   H29       1.0  0.35513  0.18291  0.15063  1.0000
  H   H30       1.0  0.34561  0.27181  0.22611  1.0000
  H   H31       1.0  0.17219000000000004  0.35563000000000006  0.14969  1.0000
  H   H32       1.0  0.07275000000000002  0.34417000000000003  0.22516999999999995  1.0000
  H   H33       1.0  0.1829200000000002  0.8273400000000002  0.14983  1.0000
  H   H34       1.0  0.2716  0.92618  0.22564  1.0000
  H   H35       1.0  0.6448700000000002  0.8170900000000001  0.15063  1.0000
  H   H36       1.0  0.6544  0.72819  0.22611  1.0000
  H   H37       1.0  0.18245  0.35196  0.34954  1.0000
  H   H38       1.0  0.2722700000000001  0.34582  0.2728  1.0000
  H   H39       1.0  0.6463  0.82976  0.35031  1.0000
  H   H40       1.0  0.65469  0.92661  0.27334  1.0000
  H   H41       1.0  0.17064  0.81755  0.34982999999999986  1.0000
  H   H42       1.0  0.07289000000000007  0.7281400000000001  0.27365  1.0000
  H   H43       1.0  0.8175500000000001  0.6480300000000001  0.34954  1.0000
  H   H44       1.0  0.72774  0.65417  0.2728  1.0000
  H   H45       1.0  0.35370000000000007  0.17024  0.35031  1.0000
  H   H46       1.0  0.34531  0.07339000000000001  0.27334  1.0000
  H   H47       1.0  0.82936  0.18244000000000002  0.34982999999999986  1.0000
  H   H48       1.0  0.92712  0.27186  0.27365  1.0000
  C   C1        1.0  0.12641  0.47791  0.86201  1.0000
  C   C2        1.0  0.14765000000000006  0.4017000000000001  0.80852  1.0000
  C   C3        1.0  0.3513300000000001  0.8735100000000002  0.8622099999999998  1.0000
  C   C4        1.0  0.2537  0.85159  0.80851  1.0000
  C   C5        1.0  0.52159  0.64863  0.8619799999999997  1.0000
  C   C6        1.0  0.59768  0.7460800000000002  0.8079899999999998  1.0000
  C   C7        1.0  0.8735900000000001  0.52208  0.86201  1.0000
  C   C8        1.0  0.8523500000000003  0.5982900000000001  0.80852  1.0000
  C   C9        1.0  0.64867  0.12649000000000002  0.8622099999999998  1.0000
  C   C10       1.0  0.7463  0.14841000000000001  0.80851  1.0000
  C   C11       1.0  0.47841000000000006  0.3513700000000001  0.8619799999999997  1.0000
  C   C12       1.0  0.40233  0.25392  0.8079899999999998  1.0000
  C   C13       1.0  0.64962  0.52343  0.63742  1.0000
  C   C14       1.0  0.74678  0.59925  0.6917  1.0000
  C   C15       1.0  0.47614  0.12467  0.63742  1.0000
  C   C16       1.0  0.40124  0.1473  0.69127  1.0000
  C   C17       1.0  0.8749100000000001  0.35054  0.6371099999999997  1.0000
  C   C18       1.0  0.85278  0.25343000000000004  0.6913999999999998  1.0000
  C   C19       1.0  0.35038  0.47657  0.63742  1.0000
  C   C20       1.0  0.25323  0.40075  0.6917  1.0000
  C   C21       1.0  0.52386  0.87533  0.6374299999999998  1.0000
  C   C22       1.0  0.59876  0.8527000000000002  0.69127  1.0000
  C   C23       1.0  0.1250900000000001  0.6494600000000001  0.6371099999999997  1.0000
  C   C24       1.0  0.14722000000000007  0.7465700000000002  0.6913999999999998  1.0000
  C   C25       1.0  0.87359  0.52209  0.13799  1.0000
  C   C26       1.0  0.8523500000000003  0.5982900000000001  0.19148  1.0000
  C   C27       1.0  0.64867  0.12649000000000002  0.13779  1.0000
  C   C28       1.0  0.7463  0.14841000000000001  0.1915  1.0000
  C   C29       1.0  0.4784200000000001  0.3513700000000001  0.13802  1.0000
  C   C30       1.0  0.40233  0.25392  0.19201  1.0000
  C   C31       1.0  0.12641  0.47791  0.13799  1.0000
  C   C32       1.0  0.14765000000000006  0.4017000000000001  0.19148  1.0000
  C   C33       1.0  0.3513300000000001  0.8735100000000002  0.13779  1.0000
  C   C34       1.0  0.2537  0.85159  0.1915  1.0000
  C   C35       1.0  0.52159  0.64863  0.13802  1.0000
  C   C36       1.0  0.59768  0.7460800000000002  0.19201  1.0000
  C   C37       1.0  0.35038  0.47657  0.36258  1.0000
  C   C38       1.0  0.25323  0.40075  0.3083  1.0000
  C   C39       1.0  0.52386  0.87533  0.36258  1.0000
  C   C40       1.0  0.59876  0.8527000000000002  0.3087299999999999  1.0000
  C   C41       1.0  0.1250900000000001  0.6494600000000001  0.36289  1.0000
  C   C42       1.0  0.14722000000000007  0.7465700000000002  0.3086  1.0000
  C   C43       1.0  0.64962  0.52343  0.36258  1.0000
  C   C44       1.0  0.74678  0.59925  0.3083  1.0000
  C   C45       1.0  0.47614  0.12467  0.36258  1.0000
  C   C46       1.0  0.40124  0.1473  0.3087299999999999  1.0000
  C   C47       1.0  0.8749100000000001  0.35054  0.36289  1.0000
  C   C48       1.0  0.85278  0.25343000000000004  0.3086  1.0000
  O   O1        1.0  0.04682000000000004  0.4283000000000001  0.91292  1.0000
  O   O2        1.0  0.18678000000000008  0.5792600000000001  0.85292  1.0000
  O   O3        1.0  0.38116000000000005  0.9528200000000001  0.91323  1.0000
  O   O4        1.0  0.39296  0.81402  0.8528199999999998  1.0000
  O   O5        1.0  0.5713200000000002  0.61902  0.91286  1.0000
  O   O6        1.0  0.42019000000000006  0.6070500000000001  0.8528399999999998  1.0000
  O   O7        1.0  0.95318  0.57169  0.91292  1.0000
  O   O8        1.0  0.8132200000000002  0.42073  0.85292  1.0000
  O   O9        1.0  0.61884  0.04717000000000001  0.91323  1.0000
  O   O10       1.0  0.6070500000000001  0.18598000000000003  0.8528199999999998  1.0000
  O   O11       1.0  0.42869000000000007  0.38098000000000004  0.91286  1.0000
  O   O12       1.0  0.5798100000000002  0.39295  0.8528399999999998  1.0000
  O   O13       1.0  0.61812  0.5731100000000001  0.58822  1.0000
  O   O14       1.0  0.60992  0.4221  0.64471  1.0000
  O   O15       1.0  0.4256  0.04341000000000001  0.58815  1.0000
  O   O16       1.0  0.57765  0.18581000000000006  0.64493  1.0000
  O   O17       1.0  0.95592  0.3814200000000001  0.58761  1.0000
  O   O18       1.0  0.81384  0.3906  0.64477  1.0000
  O   O19       1.0  0.38188  0.42689  0.58822  1.0000
  O   O20       1.0  0.39009000000000005  0.5779000000000001  0.64471  1.0000
  O   O21       1.0  0.5744  0.9565900000000003  0.58815  1.0000
  O   O22       1.0  0.42235  0.8141900000000001  0.64493  1.0000
  O   O23       1.0  0.044079999999999994  0.61857  0.58761  1.0000
  O   O24       1.0  0.18617  0.6094  0.64477  1.0000
  O   O25       1.0  0.95318  0.57169  0.08709  1.0000
  O   O26       1.0  0.8132200000000002  0.42073  0.14708  1.0000
  O   O27       1.0  0.61884  0.04717000000000001  0.08677  1.0000
  O   O28       1.0  0.6070500000000001  0.18598000000000003  0.14717999999999995  1.0000
  O   O29       1.0  0.42869000000000007  0.38098000000000004  0.08715  1.0000
  O   O30       1.0  0.5798100000000002  0.39295  0.14716  1.0000
  O   O31       1.0  0.04682000000000004  0.4283000000000001  0.08708  1.0000
  O   O32       1.0  0.18678000000000008  0.5792600000000001  0.14708  1.0000
  O   O33       1.0  0.38116000000000005  0.9528200000000001  0.08677  1.0000
  O   O34       1.0  0.39296  0.81402  0.14717999999999995  1.0000
  O   O35       1.0  0.5713100000000001  0.61902  0.08715  1.0000
  O   O36       1.0  0.42019000000000006  0.6070500000000001  0.14716  1.0000
  O   O37       1.0  0.38188  0.42689  0.41178  1.0000
  O   O38       1.0  0.39009000000000005  0.5779000000000001  0.35529  1.0000
  O   O39       1.0  0.5744  0.9565900000000003  0.41185  1.0000
  O   O40       1.0  0.42235  0.8141900000000001  0.35507  1.0000
  O   O41       1.0  0.044079999999999994  0.61857  0.41239  1.0000
  O   O42       1.0  0.18616  0.6094  0.35523  1.0000
  O   O43       1.0  0.61812  0.5731100000000001  0.41178  1.0000
  O   O44       1.0  0.60992  0.4221  0.35529  1.0000
  O   O45       1.0  0.4256  0.04341000000000001  0.41185  1.0000
  O   O46       1.0  0.57765  0.18581000000000006  0.35507  1.0000
  O   O47       1.0  0.95592  0.3814200000000001  0.41239  1.0000
  O   O48       1.0  0.81384  0.3906  0.35523  1.0000
  O   O49       1.0  0.23133000000000004  0.46469000000000005  0.7490399999999998  1.0000
  O   O50       1.0  0.23254000000000005  0.7676000000000002  0.74925  1.0000
  O   O51       1.0  0.5345100000000003  0.7669300000000002  0.74892  1.0000
  O   O52       1.0  0.76867  0.5353100000000001  0.7490399999999998  1.0000
  O   O53       1.0  0.76746  0.2324  0.74925  1.0000
  O   O54       1.0  0.46549  0.23307000000000003  0.74892  1.0000
  O   O55       1.0  0.76867  0.5353100000000001  0.25096  1.0000
  O   O56       1.0  0.76746  0.2324  0.25075  1.0000
  O   O57       1.0  0.46549  0.23307000000000003  0.25108  1.0000
  O   O58       1.0  0.23133000000000004  0.46469000000000005  0.25096  1.0000
  O   O59       1.0  0.23254000000000005  0.7676000000000002  0.25075  1.0000
  O   O60       1.0  0.5345100000000003  0.7669300000000002  0.25108  1.0000
