data_image0
_chemical_formula_structural       La4P10H80C46N10O38
_chemical_formula_sum              "La4 P10 H80 C46 N10 O38"
_cell_length_a       13.04181
_cell_length_b       13.421739999999998
_cell_length_c       15.2026
_cell_angle_alpha    109.96124
_cell_angle_beta     101.27188
_cell_angle_gamma    110.24671

_space_group_name_H-M_alt    "P 1"
_space_group_IT_number       1

loop_
  _space_group_symop_operation_xyz
  'x, y, z'

loop_
  _atom_site_type_symbol
  _atom_site_label
  _atom_site_symmetry_multiplicity
  _atom_site_fract_x
  _atom_site_fract_y
  _atom_site_fract_z
  _atom_site_occupancy
  La  La1       1.0  0.31783999999999996  0.35770999999999986  0.57447  1.0000
  La  La2       1.0  0.09954  0.10982  0.6543  1.0000
  La  La3       1.0  0.6821600000000001  0.6423  0.42553000000000013  1.0000
  La  La4       1.0  0.9004599999999999  0.89019  0.34571  1.0000
  P   P1        1.0  0.9832499999999998  0.17448999999999995  0.44037  1.0000
  P   P2        1.0  0.41759999999999997  0.2192499999999999  0.73046  1.0000
  P   P3        1.0  0.21562  0.07778000000000006  0.43561000000000005  1.0000
  P   P4        1.0  0.38266  0.40787  0.36564  1.0000
  P   P5        1.0  0.8177600000000003  0.81515  0.07158  1.0000
  P   P6        1.0  0.01674999999999999  0.82552  0.55964  1.0000
  P   P7        1.0  0.5824  0.78076  0.26954  1.0000
  P   P8        1.0  0.78438  0.92223  0.5643900000000001  1.0000
  P   P9        1.0  0.61734  0.59214  0.6343600000000003  1.0000
  P   P10       1.0  0.18223999999999999  0.1848499999999999  0.92842  1.0000
  H   H1        1.0  0.07153999999999996  0.4187299999999999  0.5467  1.0000
  H   H2        1.0  0.4071  0.3268499999999999  0.93921  1.0000
  H   H3        1.0  0.41408  0.06514999999999999  0.57579  1.0000
  H   H4        1.0  0.14555  0.22774999999999995  0.07479  1.0000
  H   H5        1.0  0.96144  0.08357000000000003  0.24013000000000007  1.0000
  H   H6        1.0  0.036230000000000075  0.4404400000000001  0.8756200000000002  1.0000
  H   H7        1.0  0.09889000000000003  0.65111  0.99695  1.0000
  H   H8        1.0  0.25032000000000004  0.8156599999999998  0.9853900000000002  1.0000
  H   H9        1.0  0.33507000000000003  0.7715399999999998  0.8517700000000002  1.0000
  H   H10       1.0  0.91317  0.27077  0.56462  1.0000
  H   H11       1.0  0.8223500000000001  0.23475999999999997  0.44148  1.0000
  H   H12       1.0  0.8562  0.454  0.53542  1.0000
  H   H13       1.0  0.9610600000000001  0.47432  0.6443200000000002  1.0000
  H   H14       1.0  0.9986400000000001  0.33333  0.36788  1.0000
  H   H15       1.0  0.88041  0.37302  0.37235  1.0000
  H   H16       1.0  0.6075600000000001  0.36077  0.86477  1.0000
  H   H17       1.0  0.5305600000000001  0.24273000000000006  0.8916800000000003  1.0000
  H   H18       1.0  0.5911  0.39492999999999995  0.06235  1.0000
  H   H19       1.0  0.65754  0.50656  0.02502  1.0000
  H   H20       1.0  0.53393  0.51529  0.88148  1.0000
  H   H21       1.0  0.3841  0.4105699999999999  0.82232  1.0000
  H   H22       1.0  0.24266  0.9034699999999998  0.3558  1.0000
  H   H23       1.0  0.20831000000000005  0.9141899999999998  0.465  1.0000
  H   H24       1.0  0.44609  0.005130000000000001  0.37196  1.0000
  H   H25       1.0  0.45697  0.14345999999999998  0.45513  1.0000
  H   H26       1.0  0.34688  0.85524  0.5227500000000002  1.0000
  H   H27       1.0  0.38057000000000013  0.83569  0.4111400000000001  1.0000
  H   H28       1.0  0.35079  0.33814  0.19033  1.0000
  H   H29       1.0  0.28613  0.4337399999999999  0.22813  1.0000
  H   H30       1.0  0.24568000000000006  0.13193999999999997  0.18651  1.0000
  H   H31       1.0  0.19616  0.17655  0.28697  1.0000
  H   H32       1.0  0.11124000000000003  0.30812  0.30102  1.0000
  H   H33       1.0  0.09057999999999998  0.36094999999999994  0.20858  1.0000
  H   H34       1.0  0.95098  0.16166  0.07804  1.0000
  H   H35       1.0  0.9011399999999999  0.19940999999999995  0.18006000000000003  1.0000
  H   H36       1.0  0.057780000000000095  0.97356  0.16719000000000003  1.0000
  H   H37       1.0  0.042369999999999984  0.012429999999999995  0.06576  1.0000
  H   H38       1.0  0.7796599999999999  0.9854599999999997  0.13423  1.0000
  H   H39       1.0  0.8177600000000003  0.9730999999999997  0.02568000000000001  1.0000
  H   H40       1.0  0.38761  0.25389  0.37885  1.0000
  H   H41       1.0  0.9284700000000004  0.5812699999999998  0.4533100000000001  1.0000
  H   H42       1.0  0.5929000000000001  0.67316  0.060800000000000014  1.0000
  H   H43       1.0  0.5859200000000001  0.9348499999999997  0.4242100000000001  1.0000
  H   H44       1.0  0.8544500000000003  0.77226  0.9252200000000003  1.0000
  H   H45       1.0  0.03857000000000004  0.91644  0.7598800000000002  1.0000
  H   H46       1.0  0.9637800000000001  0.55956  0.12438000000000002  1.0000
  H   H47       1.0  0.9011100000000001  0.3489  0.0030600000000000007  1.0000
  H   H48       1.0  0.74969  0.18435  0.01461  1.0000
  H   H49       1.0  0.6649300000000002  0.22845999999999997  0.14824  1.0000
  H   H50       1.0  0.08683  0.72924  0.4353800000000001  1.0000
  H   H51       1.0  0.17765000000000006  0.7652499999999999  0.55853  1.0000
  H   H52       1.0  0.1438  0.54601  0.46458  1.0000
  H   H53       1.0  0.03893999999999998  0.52569  0.35569  1.0000
  H   H54       1.0  0.001359999999999999  0.66667  0.63212  1.0000
  H   H55       1.0  0.11958999999999997  0.6269899999999999  0.62765  1.0000
  H   H56       1.0  0.39244  0.63924  0.13523  1.0000
  H   H57       1.0  0.46944  0.7572799999999997  0.10832  1.0000
  H   H58       1.0  0.40889999999999993  0.6050799999999997  0.93766  1.0000
  H   H59       1.0  0.34246  0.49344999999999994  0.97498  1.0000
  H   H60       1.0  0.46607  0.48472  0.11852  1.0000
  H   H61       1.0  0.61591  0.58943  0.17768  1.0000
  H   H62       1.0  0.75734  0.09654000000000003  0.64421  1.0000
  H   H63       1.0  0.7917000000000002  0.08581999999999998  0.535  1.0000
  H   H64       1.0  0.5539200000000001  0.99488  0.62804  1.0000
  H   H65       1.0  0.5430400000000001  0.8565399999999999  0.54487  1.0000
  H   H66       1.0  0.65312  0.14477  0.47725  1.0000
  H   H67       1.0  0.61943  0.16430999999999993  0.58886  1.0000
  H   H68       1.0  0.6492100000000003  0.66187  0.8096800000000001  1.0000
  H   H69       1.0  0.71388  0.56626  0.77187  1.0000
  H   H70       1.0  0.7543200000000002  0.8680599999999998  0.8134900000000002  1.0000
  H   H71       1.0  0.80384  0.82345  0.71303  1.0000
  H   H72       1.0  0.88877  0.69189  0.69898  1.0000
  H   H73       1.0  0.9094200000000002  0.6390599999999997  0.79142  1.0000
  H   H74       1.0  0.049030000000000025  0.83834  0.9219600000000001  1.0000
  H   H75       1.0  0.09885999999999992  0.8005999999999998  0.81995  1.0000
  H   H76       1.0  0.94222  0.026439999999999988  0.83281  1.0000
  H   H77       1.0  0.95763  0.9875799999999998  0.9342400000000001  1.0000
  H   H78       1.0  0.22035000000000013  0.014550000000000177  0.8657800000000002  1.0000
  H   H79       1.0  0.18224999999999997  0.026909999999999958  0.97432  1.0000
  H   H80       1.0  0.6124  0.74612  0.62115  1.0000
  C   C1        1.0  0.28643000000000013  0.55318  0.71057  1.0000
  C   C2        1.0  0.1169  0.36113  0.73065  1.0000
  C   C3        1.0  0.23355999999999996  0.5823099999999999  0.78944  1.0000
  C   C4        1.0  0.14963999999999997  0.4885899999999999  0.79689  1.0000
  C   C5        1.0  0.10064  0.51432  0.87115  1.0000
  C   C6        1.0  0.13626000000000005  0.63162  0.93881  1.0000
  C   C7        1.0  0.22113999999999992  0.7242299999999998  0.93206  1.0000
  C   C8        1.0  0.26879000000000014  0.6998100000000002  0.8570900000000002  1.0000
  C   C9        1.0  0.91185  0.26760999999999996  0.49134  1.0000
  C   C10       1.0  0.94854  0.47902999999999996  0.57258  1.0000
  C   C11       1.0  0.9721699999999999  0.39759999999999995  0.41042  1.0000
  C   C12       1.0  0.52159  0.30404999999999993  0.86165  1.0000
  C   C13       1.0  0.5769700000000001  0.4552599999999999  0.03326  1.0000
  C   C14       1.0  0.45691000000000004  0.46434999999999993  0.8939900000000001  1.0000
  C   C15       1.0  0.2635  0.96378  0.4339100000000001  1.0000
  C   C16       1.0  0.46962  0.06559  0.45068000000000014  1.0000
  C   C17       1.0  0.40508  0.8976999999999998  0.4896000000000001  1.0000
  C   C18       1.0  0.29678000000000004  0.35848999999999986  0.23431000000000002  1.0000
  C   C19       1.0  0.17709  0.15341  0.20696  1.0000
  C   C20       1.0  0.08991000000000002  0.28447  0.2206  1.0000
  C   C21       1.0  0.96943  0.18023999999999998  0.15708000000000003  1.0000
  C   C22       1.0  0.05994000000000001  0.044439999999999986  0.14619  1.0000
  C   C23       1.0  0.84011  0.9682599999999999  0.09707  1.0000
  C   C24       1.0  0.7135700000000001  0.44683  0.28944  1.0000
  C   C25       1.0  0.8831000000000001  0.6388699999999999  0.26936  1.0000
  C   C26       1.0  0.76645  0.4176999999999999  0.21056000000000005  1.0000
  C   C27       1.0  0.8503600000000001  0.51142  0.20311000000000004  1.0000
  C   C28       1.0  0.89937  0.4856799999999999  0.12885  1.0000
  C   C29       1.0  0.86375  0.36839  0.06119  1.0000
  C   C30       1.0  0.7788599999999998  0.27576999999999996  0.06795000000000001  1.0000
  C   C31       1.0  0.7312100000000002  0.30019  0.14292  1.0000
  C   C32       1.0  0.08816000000000002  0.7324  0.50866  1.0000
  C   C33       1.0  0.05146000000000002  0.52098  0.4274300000000001  1.0000
  C   C34       1.0  0.027829999999999994  0.60241  0.58958  1.0000
  C   C35       1.0  0.47840999999999995  0.6959499999999997  0.13835  1.0000
  C   C36       1.0  0.42303  0.54475  0.9667400000000003  1.0000
  C   C37       1.0  0.5431  0.53566  0.10601000000000002  1.0000
  C   C38       1.0  0.7365  0.03622  0.56609  1.0000
  C   C39       1.0  0.53038  0.93441  0.54932  1.0000
  C   C40       1.0  0.5949200000000002  0.10231  0.5104  1.0000
  C   C41       1.0  0.7032200000000002  0.6415099999999999  0.7657  1.0000
  C   C42       1.0  0.8229099999999999  0.8465899999999997  0.79305  1.0000
  C   C43       1.0  0.9101  0.71553  0.77941  1.0000
  C   C44       1.0  0.03057000000000005  0.81976  0.8429200000000002  1.0000
  C   C45       1.0  0.9400599999999999  0.9555599999999999  0.85381  1.0000
  C   C46       1.0  0.1598900000000001  0.031749999999999966  0.90293  1.0000
  N   N1        1.0  0.9818  0.3918  0.50832  1.0000
  N   N2        1.0  0.4837200000000001  0.3824699999999999  0.93101  1.0000
  N   N3        1.0  0.3878400000000001  0.00302000000000003  0.49195000000000005  1.0000
  N   N4        1.0  0.1792  0.25491  0.18745  1.0000
  N   N5        1.0  0.96022  0.06900000000000002  0.16490000000000002  1.0000
  N   N6        1.0  0.01819999999999997  0.6081999999999999  0.49168  1.0000
  N   N7        1.0  0.51628  0.6175399999999999  0.069  1.0000
  N   N8        1.0  0.61216  0.9969899999999996  0.50806  1.0000
  N   N9        1.0  0.8208  0.7450999999999998  0.81255  1.0000
  N   N10       1.0  0.03978000000000003  0.93101  0.8351  1.0000
  O   O1        1.0  0.22062000000000004  0.50939  0.61822  1.0000
  O   O2        1.0  0.38929  0.56555  0.73709  1.0000
  O   O3        1.0  0.19599000000000014  0.3374800000000001  0.7009100000000003  1.0000
  O   O4        1.0  0.016369999999999992  0.28216  0.70931  1.0000
  O   O5        1.0  0.9694  0.09506999999999999  0.49493  1.0000
  O   O6        1.0  0.10579000000000001  0.26681  0.4649900000000001  1.0000
  O   O7        1.0  0.91322  0.09461000000000001  0.32778  1.0000
  O   O8        1.0  0.42933  0.31235000000000007  0.6911600000000002  1.0000
  O   O9        1.0  0.4621800000000001  0.13056000000000004  0.6795900000000002  1.0000
  O   O10       1.0  0.29952000000000006  0.16201  0.74155  1.0000
  O   O11       1.0  0.21054  0.13632  0.54047  1.0000
  O   O12       1.0  0.30871  0.17741  0.42525000000000013  1.0000
  O   O13       1.0  0.09831  0.005620000000000005  0.34935  1.0000
  O   O14       1.0  0.302  0.40018  0.4258  1.0000
  O   O15       1.0  0.43366000000000005  0.31297  0.35803  1.0000
  O   O16       1.0  0.4813100000000001  0.52839  0.39728000000000013  1.0000
  O   O17       1.0  0.68725  0.7378299999999999  0.01826  1.0000
  O   O18       1.0  0.88909  0.78704  5e-05  1.0000
  O   O19       1.0  0.87996  0.8207499999999999  0.16956  1.0000
  O   O20       1.0  0.77938  0.49061999999999995  0.3817800000000001  1.0000
  O   O21       1.0  0.61071  0.43445999999999996  0.26292  1.0000
  O   O22       1.0  0.8040100000000001  0.66253  0.2990900000000001  1.0000
  O   O23       1.0  0.98363  0.7178399999999998  0.29069  1.0000
  O   O24       1.0  0.03060000000000003  0.9049400000000001  0.50507  1.0000
  O   O25       1.0  0.8942200000000002  0.7332  0.53502  1.0000
  O   O26       1.0  0.08679000000000013  0.9054  0.67222  1.0000
  O   O27       1.0  0.57067  0.6876499999999998  0.30885  1.0000
  O   O28       1.0  0.5378200000000001  0.86944  0.32042  1.0000
  O   O29       1.0  0.7004900000000002  0.83799  0.25845  1.0000
  O   O30       1.0  0.7894599999999999  0.8636899999999998  0.4595300000000001  1.0000
  O   O31       1.0  0.6912900000000001  0.8225999999999998  0.57475  1.0000
  O   O32       1.0  0.9016900000000002  0.9943799999999998  0.65065  1.0000
  O   O33       1.0  0.6979999999999997  0.59983  0.5742  1.0000
  O   O34       1.0  0.56634  0.6870300000000001  0.6419700000000003  1.0000
  O   O35       1.0  0.5187000000000002  0.47161999999999993  0.60272  1.0000
  O   O36       1.0  0.31275000000000014  0.26218000000000014  0.9817400000000002  1.0000
  O   O37       1.0  0.11091000000000006  0.21297000000000002  0.9999600000000001  1.0000
  O   O38       1.0  0.12004000000000004  0.17925999999999995  0.8304400000000001  1.0000
