data_image0
_chemical_formula_structural       Zn4H36C72N12O32
_chemical_formula_sum              "Zn4 H36 C72 N12 O32"
_cell_length_a       7.71077
_cell_length_b       14.10927
_cell_length_c       21.85967
_cell_angle_alpha    90.00295
_cell_angle_beta     98.51596
_cell_angle_gamma    90.03881

_symmetry_space_group_name_H-M    'P 1'
_symmetry_Int_Tables_number       1

loop_
  _symmetry_equiv_pos_as_xyz
  'x,y,z'

loop_
  _atom_site_type_symbol
  _atom_site_label
  _atom_site_symmetry_multiplicity
  _atom_site_fract_x
  _atom_site_fract_y
  _atom_site_fract_z
  _atom_site_occupancy
  Zn  Zn1       1.0  0.15348  0.02152  0.15656  1.0000
  Zn  Zn2       1.0  0.84625  0.52143  0.34342  1.0000
  Zn  Zn3       1.0  0.84628  0.97853  0.8434600000000001  1.0000
  Zn  Zn4       1.0  0.15368999999999997  0.47858  0.65656  1.0000
  H   H1        1.0  0.17570000000000005  0.82721  0.1689  1.0000
  H   H2        1.0  0.49287  0.1402  0.02548  1.0000
  H   H3        1.0  0.6557700000000002  0.36901  0.93999  1.0000
  H   H4        1.0  0.10034  0.9051800000000002  0.96386  1.0000
  H   H5        1.0  0.9128100000000003  0.64379  0.8767600000000001  1.0000
  H   H6        1.0  0.91291  0.6821600000000002  0.07239  1.0000
  H   H7        1.0  0.51406  0.27878  0.014410000000000001  1.0000
  H   H8        1.0  0.50067  0.24509  0.21021  1.0000
  H   H9        1.0  0.73634  0.49279  0.14286  1.0000
  H   H10       1.0  0.82464  0.32708000000000004  0.33112  1.0000
  H   H11       1.0  0.50536  0.63956  0.4741000000000001  1.0000
  H   H12       1.0  0.3438  0.86944  0.56008  1.0000
  H   H13       1.0  0.89936  0.40521  0.53609  1.0000
  H   H14       1.0  0.08655000000000003  0.14403000000000005  0.6233100000000001  1.0000
  H   H15       1.0  0.08715000000000006  0.18231  0.4277000000000001  1.0000
  H   H16       1.0  0.48527  0.77934  0.48567000000000005  1.0000
  H   H17       1.0  0.49911  0.7458  0.28981  1.0000
  H   H18       1.0  0.26315  0.99313  0.35717  1.0000
  H   H19       1.0  0.8243500000000002  0.17283  0.83111  1.0000
  H   H20       1.0  0.50724  0.85981  0.97452  1.0000
  H   H21       1.0  0.34428  0.6310300000000001  0.06  1.0000
  H   H22       1.0  0.8996900000000002  0.09499  0.03618  1.0000
  H   H23       1.0  0.08731000000000001  0.35646  0.12318000000000001  1.0000
  H   H24       1.0  0.08713000000000005  0.31783000000000006  0.9275600000000002  1.0000
  H   H25       1.0  0.48598  0.72125  0.98558  1.0000
  H   H26       1.0  0.4992400000000001  0.75498  0.78978  1.0000
  H   H27       1.0  0.26364000000000004  0.50724  0.8571400000000001  1.0000
  H   H28       1.0  0.17533000000000007  0.67295  0.66887  1.0000
  H   H29       1.0  0.4946100000000002  0.36043  0.5259  1.0000
  H   H30       1.0  0.65616  0.1306  0.43993  1.0000
  H   H31       1.0  0.1006  0.59489  0.46389  1.0000
  H   H32       1.0  0.91334  0.85613  0.37672  1.0000
  H   H33       1.0  0.9128  0.81769  0.57232  1.0000
  H   H34       1.0  0.5146400000000002  0.22069000000000005  0.51433  1.0000
  H   H35       1.0  0.50091  0.25426  0.7102  1.0000
  H   H36       1.0  0.73684  0.00692  0.64283  1.0000
  C   C1        1.0  0.07275  0.85218  0.08263  1.0000
  C   C2        1.0  0.015849999999999993  0.79898  0.02473  1.0000
  C   C3        1.0  0.047180000000000014  0.8343  0.9673700000000001  1.0000
  C   C4        1.0  0.011130000000000069  0.7776400000000001  0.9144600000000002  1.0000
  C   C5        1.0  0.93803  0.6872600000000002  0.9182900000000002  1.0000
  C   C6        1.0  0.89556  0.65426  0.97476  1.0000
  C   C7        1.0  0.93835  0.70967  0.028150000000000005  1.0000
  C   C8        1.0  0.04770999999999998  0.8138500000000002  0.8525  1.0000
  C   C9        1.0  0.80926  0.56309  0.98101  1.0000
  C   C10       1.0  0.69047  0.45032  0.02502  1.0000
  C   C11       1.0  0.63067  0.39187  0.07293  1.0000
  C   C12       1.0  0.54675  0.30423  0.06182  1.0000
  C   C13       1.0  0.49827  0.252  0.11141000000000001  1.0000
  C   C14       1.0  0.53448  0.28697  0.17197  1.0000
  C   C15       1.0  0.6212200000000001  0.3735  0.18328  1.0000
  C   C16       1.0  0.66698  0.42595000000000005  0.13407  1.0000
  C   C17       1.0  0.68416  0.40249  0.24868000000000007  1.0000
  C   C18       1.0  0.41228  0.15852  0.10346000000000001  1.0000
  C   C19       1.0  0.9270200000000001  0.3521200000000001  0.4173700000000001  1.0000
  C   C20       1.0  0.9838400000000002  0.299  0.47528  1.0000
  C   C21       1.0  0.95241  0.33434  0.5326200000000001  1.0000
  C   C22       1.0  0.98835  0.27772  0.58553  1.0000
  C   C23       1.0  0.06149  0.18741  0.58174  1.0000
  C   C24       1.0  0.10410999999999997  0.15445  0.5253  1.0000
  C   C25       1.0  0.061439999999999995  0.20979  0.4719  1.0000
  C   C26       1.0  0.95194  0.31388  0.6475  1.0000
  C   C27       1.0  0.19043000000000004  0.0634  0.51905  1.0000
  C   C28       1.0  0.30907000000000007  0.95065  0.47505000000000003  1.0000
  C   C29       1.0  0.36889  0.8922300000000001  0.42713  1.0000
  C   C30       1.0  0.45302  0.80467  0.43824  1.0000
  C   C31       1.0  0.50202  0.75245  0.38868000000000014  1.0000
  C   C32       1.0  0.46539000000000025  0.78747  0.32814000000000004  1.0000
  C   C33       1.0  0.3782400000000001  0.8738400000000001  0.31684  1.0000
  C   C34       1.0  0.33249  0.92633  0.36601  1.0000
  C   C35       1.0  0.31508  0.90262  0.25142  1.0000
  C   C36       1.0  0.58829  0.65893  0.39657  1.0000
  C   C37       1.0  0.92712  0.14788  0.9173800000000001  1.0000
  C   C38       1.0  0.9841800000000002  0.2011  0.9752700000000002  1.0000
  C   C39       1.0  0.95284  0.16586  0.03264  1.0000
  C   C40       1.0  0.98892  0.22257  0.08553  1.0000
  C   C41       1.0  0.062040000000000005  0.31292  0.08167000000000002  1.0000
  C   C42       1.0  0.10454  0.34582  0.02519  1.0000
  C   C43       1.0  0.06174000000000007  0.29038  0.9718100000000001  1.0000
  C   C44       1.0  0.95236  0.18641000000000005  0.14749  1.0000
  C   C45       1.0  0.19083  0.43696  0.01894  1.0000
  C   C46       1.0  0.30961  0.54974  0.97496  1.0000
  C   C47       1.0  0.36935  0.60818  0.92705  1.0000
  C   C48       1.0  0.4532600000000001  0.69582  0.9381700000000002  1.0000
  C   C49       1.0  0.50167  0.74805  0.8885700000000001  1.0000
  C   C50       1.0  0.4654500000000001  0.71308  0.8280200000000001  1.0000
  C   C51       1.0  0.37875  0.6265400000000002  0.81671  1.0000
  C   C52       1.0  0.333  0.5740900000000001  0.86592  1.0000
  C   C53       1.0  0.31584  0.59753  0.75131  1.0000
  C   C54       1.0  0.5876500000000001  0.84152  0.89651  1.0000
  C   C55       1.0  0.07303000000000001  0.64792  0.58262  1.0000
  C   C56       1.0  0.01615  0.70106  0.52471  1.0000
  C   C57       1.0  0.04759000000000001  0.66576  0.46737  1.0000
  C   C58       1.0  0.01161000000000001  0.7223700000000002  0.41446  1.0000
  C   C59       1.0  0.9384800000000001  0.81268  0.41826000000000013  1.0000
  C   C60       1.0  0.89583  0.84559  0.47471  1.0000
  C   C61       1.0  0.93849  0.79025  0.52811  1.0000
  C   C62       1.0  0.04798999999999998  0.68617  0.3525  1.0000
  C   C63       1.0  0.80951  0.9366300000000002  0.48097  1.0000
  C   C64       1.0  0.69087  0.0494  0.52496  1.0000
  C   C65       1.0  0.6310600000000002  0.10783  0.57288  1.0000
  C   C66       1.0  0.54693  0.19539000000000004  0.56177  1.0000
  C   C67       1.0  0.49796  0.24762000000000006  0.61133  1.0000
  C   C68       1.0  0.53459  0.21259000000000003  0.67187  1.0000
  C   C69       1.0  0.62171  0.12622  0.68316  1.0000
  C   C70       1.0  0.66748  0.07372000000000002  0.63399  1.0000
  C   C71       1.0  0.68482  0.09742  0.74858  1.0000
  C   C72       1.0  0.41174  0.3411400000000001  0.60342  1.0000
  N   N1        1.0  0.76057  0.5362  0.03611  1.0000
  N   N2        1.0  0.6954000000000004  0.42842  0.9643800000000001  1.0000
  N   N3        1.0  0.7710800000000002  0.49920000000000003  0.9354400000000002  1.0000
  N   N4        1.0  0.23904  0.0365  0.46395  1.0000
  N   N5        1.0  0.30413  0.92881  0.53571  1.0000
  N   N6        1.0  0.22859  0.9995900000000001  0.56465  1.0000
  N   N7        1.0  0.23952000000000007  0.46387  0.9638500000000001  1.0000
  N   N8        1.0  0.30468  0.57163  0.03561  1.0000
  N   N9        1.0  0.22897  0.50084  0.06453  1.0000
  N   N10       1.0  0.7608999999999999  0.9635500000000002  0.53607  1.0000
  N   N11       1.0  0.6958  0.07123  0.46431  1.0000
  N   N12       1.0  0.77136  0.00044000000000000007  0.4353700000000001  1.0000
  O   O1        1.0  0.12647  0.9370800000000001  0.08144  1.0000
  O   O2        1.0  0.06905  0.80451  0.13353  1.0000
  O   O3        1.0  0.05873000000000002  0.90701  0.8481300000000002  1.0000
  O   O4        1.0  0.06781000000000001  0.75694  0.81136  1.0000
  O   O5        1.0  0.75134  0.48542  0.25797  1.0000
  O   O6        1.0  0.6731700000000002  0.34176  0.29081  1.0000
  O   O7        1.0  0.33685  0.12376  0.14446  1.0000
  O   O8        1.0  0.41647  0.10889000000000001  0.05112  1.0000
  O   O9        1.0  0.87298  0.4369  0.41856  1.0000
  O   O10       1.0  0.93119  0.30452  0.36645  1.0000
  O   O11       1.0  0.9411500000000002  0.40701  0.65193  1.0000
  O   O12       1.0  0.93183  0.25692  0.68864  1.0000
  O   O13       1.0  0.24746999999999994  0.9853700000000002  0.24205  1.0000
  O   O14       1.0  0.32644  0.84188  0.20931000000000002  1.0000
  O   O15       1.0  0.66452  0.6242  0.3558200000000001  1.0000
  O   O16       1.0  0.58339  0.60902  0.44878  1.0000
  O   O17       1.0  0.87311  0.06304  0.91858  1.0000
  O   O18       1.0  0.9309899999999999  0.1955  0.86647  1.0000
  O   O19       1.0  0.94132  0.09328  0.15184000000000003  1.0000
  O   O20       1.0  0.9322300000000001  0.24323000000000006  0.18867000000000003  1.0000
  O   O21       1.0  0.24869000000000008  0.51459  0.7420200000000002  1.0000
  O   O22       1.0  0.32684  0.65825  0.70917  1.0000
  O   O23       1.0  0.66296  0.87627  0.85547  1.0000
  O   O24       1.0  0.58359  0.89113  0.94887  1.0000
  O   O25       1.0  0.1272  0.56317  0.58142  1.0000
  O   O26       1.0  0.06876000000000002  0.69549  0.63355  1.0000
  O   O27       1.0  0.05878000000000001  0.59304  0.3481000000000001  1.0000
  O   O28       1.0  0.06811000000000007  0.7431  0.31134000000000006  1.0000
  O   O29       1.0  0.7522900000000002  0.01463  0.7579400000000001  1.0000
  O   O30       1.0  0.67352  0.15814  0.7907  1.0000
  O   O31       1.0  0.33555  0.37589000000000006  0.64419  1.0000
  O   O32       1.0  0.4166  0.39101  0.5512  1.0000
