data_image0
_chemical_formula_structural       Cd4H64C96N8O16
_chemical_formula_sum              "Cd4 H64 C96 N8 O16"
_cell_length_a       9.69352
_cell_length_b       14.96662
_cell_length_c       17.85221
_cell_angle_alpha    90.03942
_cell_angle_beta     90.03677
_cell_angle_gamma    95.35745

_space_group_name_H-M_alt    "P 1"
_space_group_IT_number       1

loop_
  _space_group_symop_operation_xyz
  'x, y, z'

loop_
  _atom_site_type_symbol
  _atom_site_label
  _atom_site_symmetry_multiplicity
  _atom_site_fract_x
  _atom_site_fract_y
  _atom_site_fract_z
  _atom_site_occupancy
  Cd  Cd1       1.0  0.13474  0.48493  0.41871  1.0000
  Cd  Cd2       1.0  0.8655400000000001  0.01655  0.9182900000000002  1.0000
  Cd  Cd3       1.0  0.86526  0.51507  0.58129  1.0000
  Cd  Cd4       1.0  0.13446  0.98345  0.08172  1.0000
  H   H1        1.0  0.06768999999999999  0.7250599999999998  0.63114  1.0000
  H   H2        1.0  0.42626  0.90568  0.68953  1.0000
  H   H3        1.0  0.56078  0.83902  0.58978  1.0000
  H   H4        1.0  0.4460200000000001  0.71782  0.50781  1.0000
  H   H5        1.0  0.90579  0.8234499999999998  0.85806  1.0000
  H   H6        1.0  0.0289  0.74408  0.75906  1.0000
  H   H7        1.0  0.25568  0.9987299999999999  0.70701  1.0000
  H   H8        1.0  0.1215  0.06749999999999998  0.8077  1.0000
  H   H9        1.0  0.52965  0.44131999999999993  0.25761  1.0000
  H   H10       1.0  0.67337  0.3549  0.17376  1.0000
  H   H11       1.0  0.35647  0.13245  0.17966  1.0000
  H   H12       1.0  0.22013  0.21856  0.26684  1.0000
  H   H13       1.0  0.8609000000000001  0.21274999999999994  0.98302  1.0000
  H   H14       1.0  0.73472  0.30287  0.07235  1.0000
  H   H15       1.0  0.49883000000000005  0.05490999999999999  0.13876  1.0000
  H   H16       1.0  0.63088  0.97789  0.04504  1.0000
  H   H17       1.0  0.93452  0.7735399999999998  0.13003  1.0000
  H   H18       1.0  0.57315  0.59591  0.18902  1.0000
  H   H19       1.0  0.4397000000000001  0.66306  0.08901  1.0000
  H   H20       1.0  0.55603  0.78322  0.006940000000000001  1.0000
  H   H21       1.0  0.09508999999999997  0.6778599999999998  0.35744  1.0000
  H   H22       1.0  0.9709200000000001  0.75658  0.25838  1.0000
  H   H23       1.0  0.74367  0.50154  0.20748  1.0000
  H   H24       1.0  0.87878  0.4333899999999999  0.30824  1.0000
  H   H25       1.0  0.46930000000000005  0.058619999999999985  0.75715  1.0000
  H   H26       1.0  0.32532  0.14516  0.67343  1.0000
  H   H27       1.0  0.64241  0.36765999999999993  0.67979  1.0000
  H   H28       1.0  0.77888  0.28126  0.7665700000000001  1.0000
  H   H29       1.0  0.13776000000000005  0.28718  0.48277000000000003  1.0000
  H   H30       1.0  0.26412  0.1971  0.57201  1.0000
  H   H31       1.0  0.50069  0.44505  0.63843  1.0000
  H   H32       1.0  0.36796  0.52207  0.5452  1.0000
  H   H33       1.0  0.93231  0.27494  0.36886  1.0000
  H   H34       1.0  0.5737400000000002  0.09432  0.31047  1.0000
  H   H35       1.0  0.4392200000000001  0.16098  0.41022  1.0000
  H   H36       1.0  0.55398  0.28218  0.49219  1.0000
  H   H37       1.0  0.09421  0.17654999999999996  0.14194  1.0000
  H   H38       1.0  0.9711000000000001  0.25592  0.24094  1.0000
  H   H39       1.0  0.7443200000000001  0.00127  0.29299  1.0000
  H   H40       1.0  0.87851  0.9325  0.1923  1.0000
  H   H41       1.0  0.47035000000000005  0.55868  0.74239  1.0000
  H   H42       1.0  0.32663000000000003  0.64511  0.82624  1.0000
  H   H43       1.0  0.64353  0.86755  0.82034  1.0000
  H   H44       1.0  0.7798700000000001  0.7814399999999998  0.73316  1.0000
  H   H45       1.0  0.1391  0.78725  0.01698  1.0000
  H   H46       1.0  0.26528  0.69713  0.9276600000000002  1.0000
  H   H47       1.0  0.50117  0.9450899999999999  0.86124  1.0000
  H   H48       1.0  0.36912  0.02211  0.95496  1.0000
  H   H49       1.0  0.06548  0.22646  0.86997  1.0000
  H   H50       1.0  0.42685  0.40409  0.8109800000000001  1.0000
  H   H51       1.0  0.5603  0.33694  0.91099  1.0000
  H   H52       1.0  0.44397  0.21678  0.99306  1.0000
  H   H53       1.0  0.90491  0.3221499999999999  0.64256  1.0000
  H   H54       1.0  0.02908000000000001  0.24343  0.7416200000000001  1.0000
  H   H55       1.0  0.25633  0.49846  0.79252  1.0000
  H   H56       1.0  0.12121999999999997  0.5666099999999997  0.69177  1.0000
  H   H57       1.0  0.5307  0.9413799999999999  0.24285000000000004  1.0000
  H   H58       1.0  0.67468  0.85484  0.32657  1.0000
  H   H59       1.0  0.35759  0.63234  0.32021  1.0000
  H   H60       1.0  0.22112  0.7187499999999998  0.23343  1.0000
  H   H61       1.0  0.8622400000000001  0.7128199999999998  0.51723  1.0000
  H   H62       1.0  0.73588  0.8029  0.428  1.0000
  H   H63       1.0  0.49931000000000003  0.55495  0.36158  1.0000
  H   H64       1.0  0.63204  0.47793  0.45480000000000004  1.0000
  C   C1        1.0  0.18502000000000005  0.64009  0.5173  1.0000
  C   C2        1.0  0.25095000000000006  0.71461  0.5654  1.0000
  C   C3        1.0  0.17538  0.75115  0.62281  1.0000
  C   C4        1.0  0.23645  0.82221  0.66664  1.0000
  C   C5        1.0  0.37606999999999996  0.8532799999999998  0.65393  1.0000
  C   C6        1.0  0.45234  0.81532  0.598  1.0000
  C   C7        1.0  0.38955  0.7470999999999998  0.55282  1.0000
  C   C8        1.0  0.9849600000000001  0.85931  0.82331  1.0000
  C   C9        1.0  0.05473999999999998  0.8156  0.76826  1.0000
  C   C10       1.0  0.15667  0.8645799999999998  0.72504  1.0000
  C   C11       1.0  0.18042  0.95706  0.73988  1.0000
  C   C12       1.0  0.10559  0.99601  0.79538  1.0000
  C   C13       1.0  0.27543  0.38873  0.31472000000000006  1.0000
  C   C14       1.0  0.36410000000000003  0.3361199999999999  0.26568  1.0000
  C   C15       1.0  0.49328000000000005  0.3737099999999999  0.23977  1.0000
  C   C16       1.0  0.5726  0.3251  0.19248  1.0000
  C   C17       1.0  0.52481  0.23777  0.1689  1.0000
  C   C18       1.0  0.39658000000000004  0.19965999999999995  0.19672  1.0000
  C   C19       1.0  0.31858  0.24799999999999994  0.24487  1.0000
  C   C20       1.0  0.78001  0.18118999999999993  0.0191  1.0000
  C   C21       1.0  0.70953  0.2306  0.0699  1.0000
  C   C22       1.0  0.60521  0.18757999999999997  0.11568  1.0000
  C   C23       1.0  0.57822  0.09421  0.10651  1.0000
  C   C24       1.0  0.6522  0.04981  0.05391  1.0000
  C   C25       1.0  0.81795  0.8596799999999998  0.01592  1.0000
  C   C26       1.0  0.75125  0.78544  0.06408  1.0000
  C   C27       1.0  0.8264200000000002  0.7484399999999998  0.12155  1.0000
  C   C28       1.0  0.7642200000000002  0.67814  0.16579  1.0000
  C   C29       1.0  0.6241900000000001  0.64779  0.15326  1.0000
  C   C30       1.0  0.5484900000000003  0.6859899999999998  0.09718  1.0000
  C   C31       1.0  0.61221  0.7537  0.05191  1.0000
  C   C32       1.0  0.015670000000000003  0.64173  0.32287  1.0000
  C   C33       1.0  0.94537  0.68508  0.2678  1.0000
  C   C34       1.0  0.8434500000000001  0.63587  0.22461000000000003  1.0000
  C   C35       1.0  0.8194000000000001  0.54349  0.23996  1.0000
  C   C36       1.0  0.89469  0.50483  0.2955  1.0000
  C   C37       1.0  0.7245700000000003  0.11110999999999999  0.81329  1.0000
  C   C38       1.0  0.63499  0.16377999999999995  0.76498  1.0000
  C   C39       1.0  0.5055800000000001  0.12624  0.73932  1.0000
  C   C40       1.0  0.42618000000000006  0.1749  0.69214  1.0000
  C   C41       1.0  0.47407  0.26222  0.66864  1.0000
  C   C42       1.0  0.60221  0.30042  0.6966  1.0000
  C   C43       1.0  0.68033  0.25199  0.74454  1.0000
  C   C44       1.0  0.21846000000000002  0.31884  0.51901  1.0000
  C   C45       1.0  0.28923  0.26938  0.56964  1.0000
  C   C46       1.0  0.3937800000000001  0.31238  0.6154100000000001  1.0000
  C   C47       1.0  0.4209800000000001  0.40573  0.60629  1.0000
  C   C48       1.0  0.34655  0.45015  0.55394  1.0000
  C   C49       1.0  0.81498  0.35991  0.4827  1.0000
  C   C50       1.0  0.7490500000000001  0.28539  0.43461000000000005  1.0000
  C   C51       1.0  0.82462  0.24884999999999993  0.37719  1.0000
  C   C52       1.0  0.76355  0.17778999999999998  0.33336  1.0000
  C   C53       1.0  0.62393  0.14672  0.34607  1.0000
  C   C54       1.0  0.5476600000000001  0.18467999999999996  0.402  1.0000
  C   C55       1.0  0.6104500000000003  0.2529  0.44718  1.0000
  C   C56       1.0  0.01504  0.14069  0.17669  1.0000
  C   C57       1.0  0.94526  0.1844  0.23174000000000003  1.0000
  C   C58       1.0  0.84333  0.13542  0.27497  1.0000
  C   C59       1.0  0.81958  0.04294  0.26012  1.0000
  C   C60       1.0  0.8944100000000001  0.004  0.20462  1.0000
  C   C61       1.0  0.7245700000000003  0.61127  0.68529  1.0000
  C   C62       1.0  0.6359000000000001  0.6638799999999998  0.7343200000000001  1.0000
  C   C63       1.0  0.5067200000000001  0.6262899999999998  0.76024  1.0000
  C   C64       1.0  0.42740000000000006  0.6749  0.80752  1.0000
  C   C65       1.0  0.47519000000000006  0.76223  0.8311  1.0000
  C   C66       1.0  0.60342  0.80034  0.80328  1.0000
  C   C67       1.0  0.68142  0.75201  0.75514  1.0000
  C   C68       1.0  0.21999000000000002  0.81881  0.9809  1.0000
  C   C69       1.0  0.29047000000000006  0.7694  0.9301  1.0000
  C   C70       1.0  0.3947900000000001  0.81242  0.88432  1.0000
  C   C71       1.0  0.42178  0.9057899999999998  0.89349  1.0000
  C   C72       1.0  0.34779999999999994  0.95019  0.9460900000000001  1.0000
  C   C73       1.0  0.18205000000000005  0.14032  0.9840800000000001  1.0000
  C   C74       1.0  0.24875  0.21456  0.9359200000000001  1.0000
  C   C75       1.0  0.17358  0.25156  0.87845  1.0000
  C   C76       1.0  0.23578000000000002  0.32186  0.83421  1.0000
  C   C77       1.0  0.37581  0.35221  0.84674  1.0000
  C   C78       1.0  0.45151  0.31400999999999996  0.90282  1.0000
  C   C79       1.0  0.38779  0.24631  0.94809  1.0000
  C   C80       1.0  0.9843300000000001  0.35828  0.67714  1.0000
  C   C81       1.0  0.05462999999999999  0.3149199999999999  0.7322  1.0000
  C   C82       1.0  0.15655  0.36413  0.77539  1.0000
  C   C83       1.0  0.1806  0.45651  0.7600400000000002  1.0000
  C   C84       1.0  0.10530999999999999  0.4951699999999999  0.7045000000000001  1.0000
  C   C85       1.0  0.27543  0.8888899999999997  0.18672  1.0000
  C   C86       1.0  0.36501  0.8362199999999999  0.23502  1.0000
  C   C87       1.0  0.49442000000000014  0.87377  0.26068  1.0000
  C   C88       1.0  0.57382  0.8250999999999997  0.3078600000000001  1.0000
  C   C89       1.0  0.5259300000000001  0.7377799999999998  0.33136  1.0000
  C   C90       1.0  0.39779  0.69958  0.3034  1.0000
  C   C91       1.0  0.31967000000000007  0.74801  0.25546  1.0000
  C   C92       1.0  0.7815399999999999  0.6811699999999998  0.48099  1.0000
  C   C93       1.0  0.71077  0.73062  0.43036  1.0000
  C   C94       1.0  0.6062200000000001  0.68762  0.38459  1.0000
  C   C95       1.0  0.57902  0.59427  0.39372  1.0000
  C   C96       1.0  0.6534500000000002  0.54985  0.44606  1.0000
  N   N1        1.0  0.009069999999999964  0.9480199999999998  0.83694  1.0000
  N   N2        1.0  0.75222  0.0918  0.0107  1.0000
  N   N3        1.0  0.99177  0.55306  0.33671  1.0000
  N   N4        1.0  0.24607  0.40826  0.51084  1.0000
  N   N5        1.0  0.9909300000000001  0.05198  0.16306  1.0000
  N   N6        1.0  0.24778000000000003  0.9082  0.9893  1.0000
  N   N7        1.0  0.00823  0.44694  0.6633  1.0000
  N   N8        1.0  0.75393  0.59175  0.48916  1.0000
  O   O1        1.0  0.25006999999999996  0.6207699999999998  0.45803000000000005  1.0000
  O   O2        1.0  0.32099  0.4689  0.33286  1.0000
  O   O3        1.0  0.15877  0.35192  0.33692  1.0000
  O   O4        1.0  0.07096000000000004  0.59846  0.53768  1.0000
  O   O5        1.0  0.74982  0.88284  0.95879  1.0000
  O   O6        1.0  0.67853  0.03139  0.83239  1.0000
  O   O7        1.0  0.84252  0.14762  0.83389  1.0000
  O   O8        1.0  0.9364100000000001  0.89688  0.03401  1.0000
  O   O9        1.0  0.74993  0.3792299999999999  0.54197  1.0000
  O   O10       1.0  0.67901  0.5311  0.66714  1.0000
  O   O11       1.0  0.84123  0.6480799999999998  0.66308  1.0000
  O   O12       1.0  0.9290400000000002  0.4015399999999999  0.46232000000000006  1.0000
  O   O13       1.0  0.25018  0.11715999999999997  0.04121  1.0000
  O   O14       1.0  0.32147  0.96861  0.16761  1.0000
  O   O15       1.0  0.15748000000000004  0.85238  0.16611  1.0000
  O   O16       1.0  0.06359  0.10312  0.9660000000000001  1.0000
