data_image0
_chemical_formula_structural       Cu2H88C108N8
_chemical_formula_sum              "Cu2 H88 C108 N8"
_cell_length_a       10.88739
_cell_length_b       10.88861
_cell_length_c       20.19414
_cell_angle_alpha    105.74137
_cell_angle_beta     105.73876
_cell_angle_gamma    89.99402999999998

_space_group_name_H-M_alt    "P 1"
_space_group_IT_number       1

loop_
  _space_group_symop_operation_xyz
  'x, y, z'

loop_
  _atom_site_type_symbol
  _atom_site_label
  _atom_site_symmetry_multiplicity
  _atom_site_fract_x
  _atom_site_fract_y
  _atom_site_fract_z
  _atom_site_occupancy
  Cu  Cu1       1.0  0.75025  0.25151  0.49937  1.0000
  Cu  Cu2       1.0  0.24846  0.74764  0.49916  1.0000
  H   H1        1.0  0.92688  0.17406000000000005  0.63178  1.0000
  H   H2        1.0  0.53684  0.17907000000000006  0.54106  1.0000
  H   H3        1.0  0.89712  0.17633000000000004  0.74793  1.0000
  H   H4        1.0  0.48853  0.17328  0.65241  1.0000
  H   H5        1.0  0.8482300000000002  0.09708999999999991  0.82091  1.0000
  H   H6        1.0  0.47076  0.22596  0.75625  1.0000
  H   H7        1.0  0.7976600000000001  0.052860000000000046  0.9232800000000001  1.0000
  H   H8        1.0  0.4217200000000001  0.18131000000000014  0.8578100000000002  1.0000
  H   H9        1.0  0.7062  0.92699  0.96641  1.0000
  H   H10       1.0  0.49458  0.8783  0.8702  1.0000
  H   H11       1.0  0.57434  0.24135000000000004  0.03204  1.0000
  H   H12       1.0  0.70549  0.46629  0.62821  1.0000
  H   H13       1.0  0.005879999999999997  0.37526  0.53852  1.0000
  H   H14       1.0  0.8507900000000002  0.5751700000000001  0.74598  1.0000
  H   H15       1.0  0.16537000000000004  0.4874500000000002  0.6518800000000001  1.0000
  H   H16       1.0  0.97355  0.72611  0.82069  1.0000
  H   H17       1.0  0.28515  0.5286600000000001  0.75706  1.0000
  H   H18       1.0  0.12748000000000004  0.87138  0.9238900000000001  1.0000
  H   H19       1.0  0.4367900000000001  0.6733300000000001  0.8596800000000001  1.0000
  H   H20       1.0  0.26231  0.03955999999999999  0.96565  1.0000
  H   H21       1.0  0.37654  0.98897  0.8697200000000002  1.0000
  H   H22       1.0  0.4603  0.7920400000000002  0.03284  1.0000
  H   H23       1.0  0.46316  0.9238100000000001  0.62955  1.0000
  H   H24       1.0  0.36818  0.53347  0.54  1.0000
  H   H25       1.0  0.57665  0.8957  0.74641  1.0000
  H   H26       1.0  0.48425  0.4868100000000001  0.65226  1.0000
  H   H27       1.0  0.7294200000000001  0.8467400000000003  0.8201300000000001  1.0000
  H   H28       1.0  0.52877  0.47297  0.75728  1.0000
  H   H29       1.0  0.87444  0.79596  0.9231300000000001  1.0000
  H   H30       1.0  0.6731  0.42375  0.85961  1.0000
  H   H31       1.0  0.04142999999999992  0.7026  0.9663399999999999  1.0000
  H   H32       1.0  0.98904  0.49035  0.86986  1.0000
  H   H33       1.0  0.79189  0.57492  0.03303  1.0000
  H   H34       1.0  0.16784999999999994  0.7030900000000001  0.62915  1.0000
  H   H35       1.0  0.17061000000000007  0.003899999999999997  0.53996  1.0000
  H   H36       1.0  0.17056  0.84786  0.74597  1.0000
  H   H37       1.0  0.16544  0.16263000000000005  0.65215  1.0000
  H   H38       1.0  0.09027999999999993  0.9698200000000002  0.81932  1.0000
  H   H39       1.0  0.22514000000000003  0.2827400000000001  0.75719  1.0000
  H   H40       1.0  0.04813999999999996  0.12293999999999995  0.9225999999999999  1.0000
  H   H41       1.0  0.18244999999999997  0.43333  0.85958  1.0000
  H   H42       1.0  0.9236399999999999  0.2605300000000001  0.9665  1.0000
  H   H43       1.0  0.87716  0.37455  0.871  1.0000
  H   H44       1.0  0.2404  0.45528  0.03261  1.0000
  H   H45       1.0  0.07379999999999998  0.53793  0.3691  1.0000
  H   H46       1.0  0.46492  0.6254400000000001  0.46078  1.0000
  H   H47       1.0  0.10273  0.4250500000000001  0.25227  1.0000
  H   H48       1.0  0.51188  0.50985  0.34848  1.0000
  H   H49       1.0  0.15211  0.2695  0.17941  1.0000
  H   H50       1.0  0.5265100000000001  0.46942  0.24335  1.0000
  H   H51       1.0  0.20295  0.12515  0.07604  1.0000
  H   H52       1.0  0.57641  0.32521000000000005  0.14103  1.0000
  H   H53       1.0  0.29648  0.95817  0.03335  1.0000
  H   H54       1.0  0.50748  0.00971  0.12934  1.0000
  H   H55       1.0  0.42379000000000006  0.20729000000000003  0.96648  1.0000
  H   H56       1.0  0.29560000000000003  0.8286000000000001  0.37031000000000003  1.0000
  H   H57       1.0  0.99428  0.83267  0.4601100000000001  1.0000
  H   H58       1.0  0.15114  0.82615  0.25327  1.0000
  H   H59       1.0  0.83613  0.83759  0.3475500000000001  1.0000
  H   H60       1.0  0.029499999999999995  0.9117000000000001  0.181  1.0000
  H   H61       1.0  0.71686  0.7743700000000001  0.24254  1.0000
  H   H62       1.0  0.87592  0.9535500000000001  0.07756000000000002  1.0000
  H   H63       1.0  0.56578  0.8170900000000002  0.14019  1.0000
  H   H64       1.0  0.7381999999999999  0.07716000000000002  0.03357  1.0000
  H   H65       1.0  0.62393  0.12205  0.1294  1.0000
  H   H66       1.0  0.54484  0.7598700000000002  0.96722  1.0000
  H   H67       1.0  0.53911  0.29561  0.3691  1.0000
  H   H68       1.0  0.6254699999999997  0.99764  0.46152  1.0000
  H   H69       1.0  0.42802999999999997  0.14891  0.25215  1.0000
  H   H70       1.0  0.51082  0.83721  0.3492  1.0000
  H   H71       1.0  0.27457  0.026240000000000003  0.17852  1.0000
  H   H72       1.0  0.46935  0.7152600000000001  0.24425000000000002  1.0000
  H   H73       1.0  0.12953  0.8719800000000001  0.07537  1.0000
  H   H74       1.0  0.32488  0.56307  0.14179  1.0000
  H   H75       1.0  0.95983  0.7370900000000001  0.03391  1.0000
  H   H76       1.0  0.00958  0.62278  0.12977  1.0000
  H   H77       1.0  0.20717999999999992  0.53972  0.96693  1.0000
  H   H78       1.0  0.8306399999999999  0.077  0.37024  1.0000
  H   H79       1.0  0.8254700000000001  0.46744  0.45977999999999997  1.0000
  H   H80       1.0  0.8254700000000001  0.10498000000000002  0.25323  1.0000
  H   H81       1.0  0.82819  0.51404  0.34739  1.0000
  H   H82       1.0  0.905  0.15315  0.1804  1.0000
  H   H83       1.0  0.77176  0.52907  0.24274  1.0000
  H   H84       1.0  0.9484  0.20215  0.07738  1.0000
  H   H85       1.0  0.81581  0.57718  0.1407  1.0000
  H   H86       1.0  0.07349  0.29382  0.03384  1.0000
  H   H87       1.0  0.12063999999999998  0.50519  0.1298  1.0000
  H   H88       1.0  0.7583499999999999  0.42440999999999995  0.9674  1.0000
  C   C1        1.0  0.83083  0.17432  0.63827  1.0000
  C   C2        1.0  0.61366  0.17703000000000002  0.58818  1.0000
  C   C3        1.0  0.81299  0.17490000000000003  0.70376  1.0000
  C   C4        1.0  0.58792  0.1762  0.65147  1.0000
  C   C5        1.0  0.68842  0.17295000000000005  0.71238  1.0000
  C   C6        1.0  0.66313  0.16156000000000004  0.77809  1.0000
  C   C7        1.0  0.7545300000000001  0.11691999999999997  0.82873  1.0000
  C   C8        1.0  0.54383  0.18744000000000005  0.79204  1.0000
  C   C9        1.0  0.72554  0.09162000000000002  0.88716  1.0000
  C   C10       1.0  0.51608  0.16275000000000012  0.85052  1.0000
  C   C11       1.0  0.6043  0.10959999999999992  0.89829  1.0000
  C   C12       1.0  0.5582300000000001  0.05949000000000007  0.9514300000000001  1.0000
  C   C13       1.0  0.80825  0.47212  0.63554  1.0000
  C   C14       1.0  0.9758300000000001  0.42147  0.58594  1.0000
  C   C15       1.0  0.8911799999999999  0.53408  0.70188  1.0000
  C   C16       1.0  0.06469000000000003  0.4827800000000001  0.6501400000000002  1.0000
  C   C17       1.0  0.024600000000000073  0.5436600000000003  0.7113100000000001  1.0000
  C   C18       1.0  0.11544999999999993  0.61765  0.77819  1.0000
  C   C19       1.0  0.07500000000000001  0.7128600000000002  0.82899  1.0000
  C   C20       1.0  0.24843000000000004  0.6035300000000001  0.79284  1.0000
  C   C21       1.0  0.16292000000000004  0.7958200000000001  0.8878500000000001  1.0000
  C   C22       1.0  0.33518999999999993  0.6858300000000002  0.8518100000000001  1.0000
  C   C23       1.0  0.29525  0.7878700000000001  0.89917  1.0000
  C   C24       1.0  0.39488  0.89174  0.95186  1.0000
  C   C25       1.0  0.46928000000000003  0.82811  0.6365600000000001  1.0000
  C   C26       1.0  0.41655  0.6108  0.58716  1.0000
  C   C27       1.0  0.53369  0.8113  0.70243  1.0000
  C   C28       1.0  0.4799999999999999  0.58597  0.65089  1.0000
  C   C29       1.0  0.5433  0.6872100000000001  0.71174  1.0000
  C   C30       1.0  0.6189500000000001  0.6630800000000002  0.7781500000000001  1.0000
  C   C31       1.0  0.71535  0.7539000000000002  0.82857  1.0000
  C   C32       1.0  0.60442  0.54501  0.79288  1.0000
  C   C33       1.0  0.7982299999999999  0.7247800000000001  0.88736  1.0000
  C   C34       1.0  0.68662  0.5172300000000002  0.8517700000000001  1.0000
  C   C35       1.0  0.78919  0.60427  0.89909  1.0000
  C   C36       1.0  0.8921099999999998  0.55718  0.95212  1.0000
  C   C37       1.0  0.16782  0.80578  0.6363  1.0000
  C   C38       1.0  0.16956  0.9736600000000002  0.58698  1.0000
  C   C39       1.0  0.16875  0.88842  0.7021  1.0000
  C   C40       1.0  0.16905000000000012  0.062090000000000055  0.6506400000000001  1.0000
  C   C41       1.0  0.16697999999999993  0.02178999999999999  0.71138  1.0000
  C   C42       1.0  0.15751  0.11232000000000007  0.77777  1.0000
  C   C43       1.0  0.11220999999999999  0.07140000000000009  0.82805  1.0000
  C   C44       1.0  0.18586  0.24547000000000002  0.79265  1.0000
  C   C45       1.0  0.08797000000000006  0.15895000000000006  0.8869500000000001  1.0000
  C   C46       1.0  0.16219  0.3317  0.85158  1.0000
  C   C47       1.0  0.10779000000000001  0.29143000000000013  0.89883  1.0000
  C   C48       1.0  0.05820999999999998  0.39157  0.95201  1.0000
  C   C49       1.0  0.16972  0.53039  0.36248  1.0000
  C   C50       1.0  0.38751  0.5790500000000001  0.41317  1.0000
  C   C51       1.0  0.187  0.46627000000000013  0.29671  1.0000
  C   C52       1.0  0.41258999999999996  0.51579  0.34951  1.0000
  C   C53       1.0  0.31143  0.45484  0.28807  1.0000
  C   C54       1.0  0.33585000000000004  0.37967  0.22164  1.0000
  C   C55       1.0  0.24494000000000002  0.28368000000000004  0.17097  1.0000
  C   C56       1.0  0.45436  0.39421  0.20734  1.0000
  C   C57       1.0  0.27414  0.20122000000000007  0.11208000000000001  1.0000
  C   C58       1.0  0.4824  0.31227  0.14845  1.0000
  C   C59       1.0  0.39497  0.21032000000000003  0.10073  1.0000
  C   C60       1.0  0.44197999999999993  0.1075  0.04764  1.0000
  C   C61       1.0  0.19288  0.82992  0.36316  1.0000
  C   C62       1.0  0.024730000000000033  0.8318600000000002  0.41286  1.0000
  C   C63       1.0  0.11056000000000002  0.8291800000000001  0.29731  1.0000
  C   C64       1.0  0.9366500000000001  0.8324600000000002  0.34911  1.0000
  C   C65       1.0  0.97734  0.83253  0.28821  1.0000
  C   C66       1.0  0.88693  0.84244  0.22186  1.0000
  C   C67       1.0  0.92797  0.8888000000000001  0.17198  1.0000
  C   C68       1.0  0.75384  0.81389  0.20707000000000003  1.0000
  C   C69       1.0  0.8403  0.9129800000000001  0.11310000000000002  1.0000
  C   C70       1.0  0.66745  0.8375500000000001  0.14819  1.0000
  C   C71       1.0  0.70791  0.8922200000000001  0.10109  1.0000
  C   C72       1.0  0.60782  0.94168  0.0479  1.0000
  C   C73       1.0  0.53161  0.19309  0.36261  1.0000
  C   C74       1.0  0.57958  0.0268  0.41371  1.0000
  C   C75       1.0  0.4685  0.10939000000000002  0.29671  1.0000
  C   C76       1.0  0.51706  0.9373600000000002  0.34999  1.0000
  C   C77       1.0  0.45692  0.9763300000000001  0.2883  1.0000
  C   C78       1.0  0.38219  0.88476  0.22183  1.0000
  C   C79       1.0  0.28739  0.9248100000000001  0.17066  1.0000
  C   C80       1.0  0.39512  0.75162  0.20792  1.0000
  C   C81       1.0  0.20442000000000002  0.8367200000000001  0.11188000000000001  1.0000
  C   C82       1.0  0.31277  0.66464  0.14904  1.0000
  C   C83       1.0  0.21168  0.7043700000000003  0.10096  1.0000
  C   C84       1.0  0.10783  0.6046700000000002  0.04808  1.0000
  C   C85       1.0  0.82947  0.17261000000000004  0.36311  1.0000
  C   C86       1.0  0.82647  0.39021  0.41258  1.0000
  C   C87       1.0  0.8273300000000001  0.18947000000000006  0.29726  1.0000
  C   C88       1.0  0.8257499999999999  0.41491  0.34884  1.0000
  C   C89       1.0  0.82817  0.31366  0.28807  1.0000
  C   C90       1.0  0.83816  0.33769  0.22187  1.0000
  C   C91       1.0  0.88374  0.24607  0.17178  1.0000
  C   C92       1.0  0.81092  0.45621000000000006  0.20719000000000004  1.0000
  C   C93       1.0  0.9087899999999999  0.27422  0.11311  1.0000
  C   C94       1.0  0.8354499999999999  0.48328  0.14852000000000004  1.0000
  C   C95       1.0  0.88964  0.39491  0.10134000000000001  1.0000
  C   C96       1.0  0.93998  0.4408500000000001  0.04826  1.0000
  C   C97       1.0  0.66304  0.0013700000000000353  0.9998200000000002  1.0000
  C   C98       1.0  0.33857000000000004  0.9992500000000001  0.9996600000000001  1.0000
  C   C99       1.0  0.00034  0.66071  0.0001  1.0000
  C   C100      1.0  0.9988199999999999  0.33631000000000005  0.00019  1.0000
  C   C101      1.0  0.45323  0.9517600000000003  0.90513  1.0000
  C   C102      1.0  0.9513000000000003  0.4506500000000002  0.9055800000000002  1.0000
  C   C103      1.0  0.54817  0.04808000000000001  0.09421000000000002  1.0000
  C   C104      1.0  0.047360000000000006  0.54621  0.09461  1.0000
  C   C105      1.0  0.49948  0.16453000000000007  0.9993800000000002  1.0000
  C   C106      1.0  0.5020200000000001  0.8357300000000004  0.9999700000000001  1.0000
  C   C107      1.0  0.83497  0.49940000000000007  0.00023000000000000003  1.0000
  C   C108      1.0  0.16403000000000004  0.4977400000000001  0.9999100000000001  1.0000
  N   N1        1.0  0.73337  0.17433000000000007  0.57936  1.0000
  N   N2        1.0  0.84715  0.4151600000000001  0.57666  1.0000
  N   N3        1.0  0.41023  0.7301900000000001  0.57793  1.0000
  N   N4        1.0  0.16751  0.845  0.57773  1.0000
  N   N5        1.0  0.26757  0.5874  0.42166  1.0000
  N   N6        1.0  0.15330000000000002  0.83161  0.42182000000000003  1.0000
  N   N7        1.0  0.58756  0.15519  0.42205  1.0000
  N   N8        1.0  0.83002  0.27073  0.42178  1.0000
