data_image0
_chemical_formula_structural       Mn6H48C84O24
_chemical_formula_sum              "Mn6 H48 C84 O24"
_cell_length_a       9.83698
_cell_length_b       14.023239999999998
_cell_length_c       13.741180000000002
_cell_angle_alpha    89.95298
_cell_angle_beta     89.18029
_cell_angle_gamma    108.78802

_space_group_name_H-M_alt    "P 1"
_space_group_IT_number       1

loop_
  _space_group_symop_operation_xyz
  'x, y, z'

loop_
  _atom_site_type_symbol
  _atom_site_label
  _atom_site_symmetry_multiplicity
  _atom_site_fract_x
  _atom_site_fract_y
  _atom_site_fract_z
  _atom_site_occupancy
  Mn  Mn1       1.0  0.09607999999999997  0.41704  0.53602  1.0000
  Mn  Mn2       1.0  0.39087  0.57039  0.99875  1.0000
  Mn  Mn3       1.0  0.87094  0.56695  0.47896  1.0000
  Mn  Mn4       1.0  0.6151500000000001  0.4390300000000001  0.96818  1.0000
  Mn  Mn5       1.0  0.46929  0.50814  0.50174  1.0000
  Mn  Mn6       1.0  0.9758099999999998  0.5163300000000001  0.005190000000000002  1.0000
  H   H1        1.0  0.49181  0.25589  0.70392  1.0000
  H   H2        1.0  0.48567000000000005  0.08425000000000002  0.74393  1.0000
  H   H3        1.0  0.08235000000000005  0.9648300000000001  0.59823  1.0000
  H   H4        1.0  0.07859  0.13863  0.57091  1.0000
  H   H5        1.0  0.39890000000000003  0.7947900000000001  0.89157  1.0000
  H   H6        1.0  0.4223800000000001  0.9630800000000002  0.82387  1.0000
  H   H7        1.0  0.09728000000000005  0.8239100000000003  0.61586  1.0000
  H   H8        1.0  0.05798999999999998  0.66007  0.6936  1.0000
  H   H9        1.0  0.46759000000000006  0.71014  0.58584  1.0000
  H   H10       1.0  0.60144  0.88925  0.58749  1.0000
  H   H11       1.0  0.2894500000000001  0.9463100000000002  0.39714  1.0000
  H   H12       1.0  0.15546  0.76525  0.3961  1.0000
  H   H13       1.0  0.03679000000000002  0.73121  0.19765  1.0000
  H   H14       1.0  0.03158000000000006  0.89615  0.25397  1.0000
  H   H15       1.0  0.41186  0.04179  0.08235  1.0000
  H   H16       1.0  0.42373999999999995  0.87478  0.03336  1.0000
  H   H17       1.0  0.10364  0.17035  0.42037  1.0000
  H   H18       1.0  0.09928000000000001  0.010130000000000004  0.34384  1.0000
  H   H19       1.0  0.38358  0.17741  0.11736  1.0000
  H   H20       1.0  0.40761  0.33465  0.20385  1.0000
  H   H21       1.0  0.04633999999999998  0.29057  0.09748  1.0000
  H   H22       1.0  0.92208  0.11062  0.10537000000000003  1.0000
  H   H23       1.0  0.21861  0.06206  0.89024  1.0000
  H   H24       1.0  0.34677  0.24277000000000007  0.8856400000000002  1.0000
  H   H25       1.0  0.50919  0.73648  0.28897  1.0000
  H   H26       1.0  0.5142400000000001  0.9058900000000002  0.23725  1.0000
  H   H27       1.0  0.90729  0.036309999999999995  0.39194000000000007  1.0000
  H   H28       1.0  0.91045  0.86504  0.4337700000000001  1.0000
  H   H29       1.0  0.6074900000000001  0.18971  0.07626  1.0000
  H   H30       1.0  0.59858  0.023830000000000004  0.14326  1.0000
  H   H31       1.0  0.8739100000000001  0.17473  0.3750300000000001  1.0000
  H   H32       1.0  0.9004599999999999  0.33803000000000005  0.29844  1.0000
  H   H33       1.0  0.5307  0.27092  0.4091400000000001  1.0000
  H   H34       1.0  0.4006  0.09045  0.39736  1.0000
  H   H35       1.0  0.68871  0.029990000000000003  0.60547  1.0000
  H   H36       1.0  0.8197099999999999  0.21064  0.61438  1.0000
  H   H37       1.0  0.99379  0.26743  0.8017100000000003  1.0000
  H   H38       1.0  0.9884  0.09683  0.7557  1.0000
  H   H39       1.0  0.5817  0.97232  0.9045900000000001  1.0000
  H   H40       1.0  0.57407  0.14466  0.93382  1.0000
  H   H41       1.0  0.87801  0.81756  0.58307  1.0000
  H   H42       1.0  0.89857  0.98307  0.65675  1.0000
  H   H43       1.0  0.6241  0.83138  0.89328  1.0000
  H   H44       1.0  0.57859  0.66919  0.80849  1.0000
  H   H45       1.0  0.99403  0.7343400000000001  0.9138500000000003  1.0000
  H   H46       1.0  0.12993000000000016  0.9135500000000002  0.91075  1.0000
  H   H47       1.0  0.80795  0.97154  0.09774  1.0000
  H   H48       1.0  0.67201  0.7917000000000002  0.09903  1.0000
  C   C1        1.0  0.28077  0.31238  0.6161900000000001  1.0000
  C   C2        1.0  0.28300000000000003  0.20886000000000005  0.63746  1.0000
  C   C3        1.0  0.39963  0.19219  0.68354  1.0000
  C   C4        1.0  0.39522000000000007  0.09447000000000001  0.7059300000000001  1.0000
  C   C5        1.0  0.27839  0.010210000000000002  0.67903  1.0000
  C   C6        1.0  0.16985  0.028290000000000006  0.62404  1.0000
  C   C7        1.0  0.16882  0.12579  0.6070600000000003  1.0000
  C   C8        1.0  0.21069000000000007  0.6218000000000002  0.8513400000000002  1.0000
  C   C9        1.0  0.23088  0.71623  0.7957000000000002  1.0000
  C   C10       1.0  0.33461000000000013  0.8027100000000003  0.8305600000000001  1.0000
  C   C11       1.0  0.3481000000000001  0.8965000000000002  0.79181  1.0000
  C   C12       1.0  0.26446  0.90765  0.71342  1.0000
  C   C13       1.0  0.16287000000000007  0.8197000000000002  0.67741  1.0000
  C   C14       1.0  0.14276999999999995  0.72566  0.71954  1.0000
  C   C15       1.0  0.21814  0.61796  0.4972200000000001  1.0000
  C   C16       1.0  0.30234000000000005  0.7251800000000003  0.49095  1.0000
  C   C17       1.0  0.42978  0.76193  0.54358  1.0000
  C   C18       1.0  0.50436  0.86439  0.54498  1.0000
  C   C19       1.0  0.4561  0.93431  0.4939  1.0000
  C   C20       1.0  0.3295800000000001  0.89571  0.43922  1.0000
  C   C21       1.0  0.25335  0.79327  0.43796000000000007  1.0000
  C   C22       1.0  0.23699  0.69168  0.08508  1.0000
  C   C23       1.0  0.23445000000000002  0.79193  0.11545  1.0000
  C   C24       1.0  0.12153999999999997  0.79952  0.17539000000000002  1.0000
  C   C25       1.0  0.12008999999999996  0.8930400000000001  0.20723  1.0000
  C   C26       1.0  0.22871  0.98256  0.17853  1.0000
  C   C27       1.0  0.3324700000000001  0.97402  0.11054  1.0000
  C   C28       1.0  0.3384400000000001  0.8805  0.08181  1.0000
  C   C29       1.0  0.25648  0.35563  0.37139  1.0000
  C   C30       1.0  0.25274  0.26312  0.31667000000000006  1.0000
  C   C31       1.0  0.16498  0.17044  0.35412  1.0000
  C   C32       1.0  0.16103  0.08094  0.30988  1.0000
  C   C33       1.0  0.23717000000000002  0.08015  0.22263  1.0000
  C   C34       1.0  0.32443  0.17379  0.18523000000000006  1.0000
  C   C35       1.0  0.33573  0.26378  0.23274  1.0000
  C   C36       1.0  0.2806  0.38778  0.9942300000000001  1.0000
  C   C37       1.0  0.20684999999999998  0.28053  0.99208  1.0000
  C   C38       1.0  0.08403000000000004  0.24022000000000004  0.0524  1.0000
  C   C39       1.0  0.01360999999999999  0.13747  0.05594  1.0000
  C   C40       1.0  0.058960000000000005  0.06899  0.9989200000000001  1.0000
  C   C41       1.0  0.1812  0.11071  0.9377  1.0000
  C   C42       1.0  0.25426  0.21365000000000003  0.93435  1.0000
  C   C43       1.0  0.71524  0.6876800000000002  0.3905100000000001  1.0000
  C   C44       1.0  0.71205  0.7893300000000001  0.36211  1.0000
  C   C45       1.0  0.5987000000000001  0.8022300000000001  0.30883  1.0000
  C   C46       1.0  0.60253  0.89824  0.27985  1.0000
  C   C47       1.0  0.7166099999999999  0.9846100000000001  0.30608  1.0000
  C   C48       1.0  0.8222599999999999  0.97078  0.3670300000000001  1.0000
  C   C49       1.0  0.82316  0.8749600000000001  0.39165000000000005  1.0000
  C   C50       1.0  0.7564100000000001  0.37066  0.13473  1.0000
  C   C51       1.0  0.74985  0.27466  0.18412  1.0000
  C   C52       1.0  0.66471  0.18486000000000005  0.14191  1.0000
  C   C53       1.0  0.65824  0.09225  0.18062  1.0000
  C   C54       1.0  0.72962  0.08535000000000001  0.26687  1.0000
  C   C55       1.0  0.8166500000000001  0.17602  0.3083400000000001  1.0000
  C   C56       1.0  0.82974  0.26927  0.26649  1.0000
  C   C57       1.0  0.77033  0.3609600000000001  0.51185  1.0000
  C   C58       1.0  0.68523  0.25301  0.51122  1.0000
  C   C59       1.0  0.56464  0.21747  0.4517800000000001  1.0000
  C   C60       1.0  0.49169999999999997  0.11474000000000001  0.44556  1.0000
  C   C61       1.0  0.5345  0.043800000000000006  0.4992  1.0000
  C   C62       1.0  0.65409  0.08124  0.5604  1.0000
  C   C63       1.0  0.72848  0.18358  0.56627  1.0000
  C   C64       1.0  0.78046  0.32036  0.89376  1.0000
  C   C65       1.0  0.78221  0.21767000000000006  0.8683000000000002  1.0000
  C   C66       1.0  0.9008100000000003  0.20295  0.82087  1.0000
  C   C67       1.0  0.8970499999999999  0.10615000000000002  0.7952  1.0000
  C   C68       1.0  0.77947  0.021040000000000003  0.82103  1.0000
  C   C69       1.0  0.66911  0.0368  0.87826  1.0000
  C   C70       1.0  0.66649  0.13356  0.8971700000000002  1.0000
  C   C71       1.0  0.7117800000000001  0.6370600000000001  0.63775  1.0000
  C   C72       1.0  0.7304300000000001  0.7324200000000002  0.6920300000000001  1.0000
  C   C73       1.0  0.8222800000000001  0.8218  0.65089  1.0000
  C   C74       1.0  0.83571  0.91406  0.69321  1.0000
  C   C75       1.0  0.76604  0.9204000000000001  0.78185  1.0000
  C   C76       1.0  0.67687  0.8298900000000001  0.82367  1.0000
  C   C77       1.0  0.65479  0.7375  0.77793  1.0000
  C   C78       1.0  0.73377  0.6438900000000002  0.00164  1.0000
  C   C79       1.0  0.82288  0.7498000000000001  0.00664  1.0000
  C   C80       1.0  0.9542799999999999  0.78642  0.95496  1.0000
  C   C81       1.0  0.030149999999999948  0.88897  0.95267  1.0000
  C   C82       1.0  0.98061  0.9597600000000001  0.0027  1.0000
  C   C83       1.0  0.8505099999999999  0.9209900000000002  0.056870000000000004  1.0000
  C   C84       1.0  0.773  0.81908  0.05841  1.0000
  O   O1        1.0  0.39635  0.37665  0.58516  1.0000
  O   O2        1.0  0.1599  0.32833  0.62844  1.0000
  O   O3        1.0  0.32675  0.60459  0.87607  1.0000
  O   O4        1.0  0.08423  0.56851  0.87637  1.0000
  O   O5        1.0  0.27424  0.55404  0.53376  1.0000
  O   O6        1.0  0.08694000000000005  0.58505  0.47001  1.0000
  O   O7        1.0  0.12067  0.61817  0.08923  1.0000
  O   O8        1.0  0.3603800000000001  0.6851500000000003  0.05661  1.0000
  O   O9        1.0  0.13695  0.35258  0.41343000000000013  1.0000
  O   O10       1.0  0.37341  0.4283  0.3764  1.0000
  O   O11       1.0  0.23331999999999997  0.4499  0.04237  1.0000
  O   O12       1.0  0.4044400000000001  0.4342800000000001  0.94863  1.0000
  O   O13       1.0  0.59735  0.6187600000000001  0.40955  1.0000
  O   O14       1.0  0.8400200000000001  0.67673  0.3953  1.0000
  O   O15       1.0  0.6402800000000001  0.37105  0.09206  1.0000
  O   O16       1.0  0.87355  0.44354000000000005  0.13326  1.0000
  O   O17       1.0  0.72983  0.42387  0.46156  1.0000
  O   O18       1.0  0.8862799999999998  0.39057000000000003  0.56212  1.0000
  O   O19       1.0  0.8916799999999999  0.37971  0.93283  1.0000
  O   O20       1.0  0.66384  0.3406  0.8776  1.0000
  O   O21       1.0  0.8277300000000001  0.6243000000000001  0.60497  1.0000
  O   O22       1.0  0.58559  0.5776900000000001  0.62383  1.0000
  O   O23       1.0  0.78609  0.57579  0.96725  1.0000
  O   O24       1.0  0.60078  0.61763  0.028930000000000008  1.0000
