data_image0
_chemical_formula_structural       Co6H76C100N8O28
_chemical_formula_sum              "Co6 H76 C100 N8 O28"
_cell_length_a       10.56983
_cell_length_b       11.61396
_cell_length_c       27.775129999999997
_cell_angle_alpha    82.42098000000001
_cell_angle_beta     79.03008000000001
_cell_angle_gamma    62.80196999999999

_symmetry_space_group_name_H-M    'P 1'
_symmetry_Int_Tables_number       1

loop_
  _symmetry_equiv_pos_as_xyz
  'x,y,z'

loop_
  _atom_site_type_symbol
  _atom_site_label
  _atom_site_symmetry_multiplicity
  _atom_site_fract_x
  _atom_site_fract_y
  _atom_site_fract_z
  _atom_site_occupancy
  Co  Co1       1.0  0.9882299999999999  0.007950000000000002  0.66133  1.0000
  Co  Co2       1.0  0.15807999999999992  0.49153  0.8387  1.0000
  Co  Co3       1.0  0.010679999999999955  0.9921300000000001  0.33926  1.0000
  Co  Co4       1.0  0.8442199999999999  0.50926  0.1611  1.0000
  Co  Co5       1.0  0.91247  0.75035  0.74975  1.0000
  Co  Co6       1.0  0.08604000000000002  0.24922000000000002  0.25028  1.0000
  H   H1        1.0  0.9679899999999999  0.21183  0.77656  1.0000
  H   H2        1.0  0.035650000000000036  0.9648800000000001  0.93672  1.0000
  H   H3        1.0  0.0107899999999999  0.8695200000000002  0.86675  1.0000
  H   H4        1.0  0.8535299999999999  0.38172  0.9310599999999999  1.0000
  H   H5        1.0  0.85834  0.46352  0.00831  1.0000
  H   H6        1.0  0.22432000000000002  0.10756000000000002  0.036919999999999994  1.0000
  H   H7        1.0  0.21959  0.02222  0.95976  1.0000
  H   H8        1.0  0.5964200000000002  0.84996  0.7228599999999998  1.0000
  H   H9        1.0  0.34579999999999994  0.003559999999999991  0.75494  1.0000
  H   H10       1.0  0.30204  0.1304  0.8285299999999999  1.0000
  H   H11       1.0  0.51592  0.08716  0.86762  1.0000
  H   H12       1.0  0.7579300000000002  0.9290500000000002  0.8327899999999999  1.0000
  H   H13       1.0  0.004079999999999979  0.17530000000000007  0.57403  1.0000
  H   H14       1.0  0.13779999999999998  0.30445  0.53898  1.0000
  H   H15       1.0  0.31809000000000004  0.30823999999999996  0.58625  1.0000
  H   H16       1.0  0.3583799999999999  0.17631  0.66585  1.0000
  H   H17       1.0  0.20979999999999996  0.05759000000000001  0.69743  1.0000
  H   H18       1.0  0.9276800000000002  0.82144  0.65064  1.0000
  H   H19       1.0  0.7897300000000003  0.94159  0.68208  1.0000
  H   H20       1.0  0.4567600000000001  0.2879  0.72339  1.0000
  H   H21       1.0  0.43747000000000014  0.53497  0.56315  1.0000
  H   H22       1.0  0.2473100000000001  0.63058  0.6329999999999999  1.0000
  H   H23       1.0  0.66565  0.11865000000000002  0.56908  1.0000
  H   H24       1.0  0.82951  0.03706000000000001  0.49202  1.0000
  H   H25       1.0  0.8678999999999999  0.39263000000000003  0.46353  1.0000
  H   H26       1.0  0.70089  0.47822  0.54043  1.0000
  H   H27       1.0  0.67063  0.64993  0.77713  1.0000
  H   H28       1.0  0.60463  0.49639000000000005  0.7449  1.0000
  H   H29       1.0  0.76095  0.36967000000000005  0.67153  1.0000
  H   H30       1.0  0.97036  0.41243  0.6322999999999999  1.0000
  H   H31       1.0  0.019570000000000025  0.57099  0.66708  1.0000
  H   H32       1.0  0.2532  0.32494  0.92592  1.0000
  H   H33       1.0  0.48119000000000006  0.1956  0.961  1.0000
  H   H34       1.0  0.71256  0.19169  0.91384  1.0000
  H   H35       1.0  0.7004  0.32367000000000007  0.8340999999999998  1.0000
  H   H36       1.0  0.46450000000000036  0.44275  0.80248  1.0000
  H   H37       1.0  0.9008100000000001  0.6786699999999999  0.84854  1.0000
  H   H38       1.0  0.9136100000000001  0.55819  0.8177999999999999  1.0000
  H   H39       1.0  0.03188000000000001  0.7878  0.22346  1.0000
  H   H40       1.0  0.96449  0.03464  0.06352  1.0000
  H   H41       1.0  0.9892900000000001  0.1303  0.13337  1.0000
  H   H42       1.0  0.14642999999999995  0.61827  0.06915  1.0000
  H   H43       1.0  0.14185  0.53638  0.9917699999999999  1.0000
  H   H44       1.0  0.7754400000000002  0.8925500000000001  0.96316  1.0000
  H   H45       1.0  0.7802800000000002  0.97804  0.04033  1.0000
  H   H46       1.0  0.40362  0.14999999999999997  0.27724  1.0000
  H   H47       1.0  0.6542600000000001  0.99639  0.24511  1.0000
  H   H48       1.0  0.6979099999999999  0.8695400000000001  0.17152999999999996  1.0000
  H   H49       1.0  0.48377999999999993  0.9130500000000001  0.1325  1.0000
  H   H50       1.0  0.24211  0.07117  0.16721  1.0000
  H   H51       1.0  0.9964100000000001  0.8251200000000001  0.42562  1.0000
  H   H52       1.0  0.8630199999999998  0.69585  0.46097999999999995  1.0000
  H   H53       1.0  0.6824200000000001  0.69221  0.41375  1.0000
  H   H54       1.0  0.64194  0.82379  0.33403  1.0000
  H   H55       1.0  0.79058  0.94272  0.30245  1.0000
  H   H56       1.0  0.07192000000000001  0.1785  0.34922  1.0000
  H   H57       1.0  0.21094000000000002  0.059120000000000006  0.31807  1.0000
  H   H58       1.0  0.5426499999999999  0.71226  0.27662  1.0000
  H   H59       1.0  0.56229  0.46537000000000006  0.43685999999999997  1.0000
  H   H60       1.0  0.75254  0.36975  0.36696  1.0000
  H   H61       1.0  0.3341599999999999  0.8813200000000001  0.43088  1.0000
  H   H62       1.0  0.17050999999999994  0.9630000000000001  0.50802  1.0000
  H   H63       1.0  0.13197999999999993  0.6072  0.53644  1.0000
  H   H64       1.0  0.2991  0.52179  0.45954  1.0000
  H   H65       1.0  0.3303599999999999  0.34998  0.22272  1.0000
  H   H66       1.0  0.39551  0.50383  0.25509  1.0000
  H   H67       1.0  0.23872999999999991  0.63042  0.32849  1.0000
  H   H68       1.0  0.029779999999999973  0.58681  0.36752  1.0000
  H   H69       1.0  0.9808499999999999  0.42877000000000004  0.33253  1.0000
  H   H70       1.0  0.7475  0.67463  0.07427  1.0000
  H   H71       1.0  0.51961  0.80443  0.03893  1.0000
  H   H72       1.0  0.28829999999999995  0.8078800000000002  0.08619  1.0000
  H   H73       1.0  0.29947  0.67626  0.16613  1.0000
  H   H74       1.0  0.5360699999999999  0.55681  0.19758  1.0000
  H   H75       1.0  0.0953  0.32305  0.15096  1.0000
  H   H76       1.0  0.08356000000000004  0.4435799999999999  0.18199  1.0000
  C   C1        1.0  0.9806100000000002  0.97079  0.77335  1.0000
  C   C2        1.0  0.99152  0.03197000000000002  0.8160999999999998  1.0000
  C   C3        1.0  0.9841  0.15633  0.81143  1.0000
  C   C4        1.0  0.9985900000000001  0.21022999999999997  0.85097  1.0000
  C   C5        1.0  0.9981500000000001  0.34032  0.8417699999999999  1.0000
  C   C6        1.0  0.022000000000000006  0.14101  0.89665  1.0000
  C   C7        1.0  0.024460000000000006  0.01781  0.90131  1.0000
  C   C8        1.0  0.009290000000000031  0.96478  0.86189  1.0000
  C   C9        1.0  0.03409  0.19491000000000006  0.9403  1.0000
  C   C10       1.0  0.93505  0.32062  0.9543  1.0000
  C   C11       1.0  0.9371399999999998  0.3668600000000001  0.99756  1.0000
  C   C12       1.0  0.03977000000000001  0.28985  0.02827  1.0000
  C   C13       1.0  0.034120000000000025  0.33122  0.07784  1.0000
  C   C14       1.0  0.14307000000000003  0.16615  0.0135  1.0000
  C   C15       1.0  0.13918999999999998  0.11899000000000001  0.97056  1.0000
  C   C16       1.0  0.57564  0.90273  0.75519  1.0000
  C   C17       1.0  0.43575  0.99033  0.77283  1.0000
  C   C18       1.0  0.41046  0.059290000000000016  0.81356  1.0000
  C   C19       1.0  0.52799  0.03704999999999999  0.83557  1.0000
  C   C20       1.0  0.6658899999999998  0.94663  0.81621  1.0000
  C   C21       1.0  0.08334000000000003  0.17854000000000003  0.5932699999999999  1.0000
  C   C22       1.0  0.15856  0.24989  0.57398  1.0000
  C   C23       1.0  0.2582199999999999  0.25154  0.60007  1.0000
  C   C24       1.0  0.2795700000000001  0.18030000000000002  0.6446899999999999  1.0000
  C   C25       1.0  0.19914  0.11200000000000002  0.66225  1.0000
  C   C26       1.0  0.22601999999999992  0.5291900000000002  0.72645  1.0000
  C   C27       1.0  0.34001999999999966  0.46785000000000004  0.68369  1.0000
  C   C28       1.0  0.4522700000000003  0.34327  0.68854  1.0000
  C   C29       1.0  0.55977  0.28942  0.64893  1.0000
  C   C30       1.0  0.6801499999999998  0.15939000000000006  0.65831  1.0000
  C   C31       1.0  0.5597199999999999  0.35867  0.60339  1.0000
  C   C32       1.0  0.44392000000000004  0.48201  0.59853  1.0000
  C   C33       1.0  0.33626  0.53519  0.63796  1.0000
  C   C34       1.0  0.66895  0.30517  0.55982  1.0000
  C   C35       1.0  0.70944  0.17963  0.54592  1.0000
  C   C36       1.0  0.80118  0.13356  0.50259  1.0000
  C   C37       1.0  0.85725  0.21053000000000002  0.47185999999999995  1.0000
  C   C38       1.0  0.9440999999999998  0.16917  0.42211  1.0000
  C   C39       1.0  0.82201  0.33409  0.4868  1.0000
  C   C40       1.0  0.72799  0.3812800000000001  0.52979  1.0000
  C   C41       1.0  0.73395  0.5968500000000001  0.74479  1.0000
  C   C42       1.0  0.69926  0.50979  0.72718  1.0000
  C   C43       1.0  0.78341  0.44055  0.68642  1.0000
  C   C44       1.0  0.9006899999999999  0.46274  0.66437  1.0000
  C   C45       1.0  0.9290699999999998  0.55258  0.68351  1.0000
  C   C46       1.0  0.35470000000000007  0.32203  0.90661  1.0000
  C   C47       1.0  0.4824  0.25027  0.92605  1.0000
  C   C48       1.0  0.6098000000000001  0.24858  0.89992  1.0000
  C   C49       1.0  0.6045100000000002  0.31977999999999995  0.85531  1.0000
  C   C50       1.0  0.473  0.38838  0.83776  1.0000
  C   C51       1.0  0.018950000000000026  0.029069999999999995  0.22681999999999997  1.0000
  C   C52       1.0  0.009060000000000009  0.9675300000000001  0.18404  1.0000
  C   C53       1.0  0.016199999999999964  0.84322  0.1886  1.0000
  C   C54       1.0  0.0011300000000000101  0.7898100000000001  0.1491  1.0000
  C   C55       1.0  0.0015399999999999787  0.66043  0.15820999999999996  1.0000
  C   C56       1.0  0.97778  0.8587700000000001  0.10348  1.0000
  C   C57       1.0  0.9756600000000004  0.98181  0.09887  1.0000
  C   C58       1.0  0.99112  0.03477  0.13825  1.0000
  C   C59       1.0  0.96556  0.8051199999999998  0.05986  1.0000
  C   C60       1.0  0.06494999999999995  0.67937  0.04584  1.0000
  C   C61       1.0  0.063  0.63332  0.00246  1.0000
  C   C62       1.0  0.9604900000000001  0.71042  0.97162  1.0000
  C   C63       1.0  0.9663599999999998  0.66906  0.92156  1.0000
  C   C64       1.0  0.8568700000000001  0.8339800000000002  0.9865799999999999  1.0000
  C   C65       1.0  0.86054  0.88104  0.0296  1.0000
  C   C66       1.0  0.42441  0.09735000000000002  0.2449  1.0000
  C   C67       1.0  0.56428  0.00964  0.22723  1.0000
  C   C68       1.0  0.58952  0.9407100000000002  0.1865  1.0000
  C   C69       1.0  0.47177999999999987  0.96311  0.16455  1.0000
  C   C70       1.0  0.33393  0.05372000000000001  0.18394999999999997  1.0000
  C   C71       1.0  0.9170300000000002  0.82158  0.40666  1.0000
  C   C72       1.0  0.84189  0.7503100000000001  0.42596  1.0000
  C   C73       1.0  0.7422299999999996  0.7487600000000001  0.3998399999999999  1.0000
  C   C74       1.0  0.7207000000000001  0.81998  0.35521  1.0000
  C   C75       1.0  0.80083  0.88829  0.3376  1.0000
  C   C76       1.0  0.7734200000000002  0.47228  0.27362  1.0000
  C   C77       1.0  0.6602400000000003  0.53283  0.31641  1.0000
  C   C78       1.0  0.5475099999999998  0.65686  0.31145  1.0000
  C   C79       1.0  0.43961000000000017  0.71021  0.35094  1.0000
  C   C80       1.0  0.3194600000000001  0.84059  0.34154  1.0000
  C   C81       1.0  0.4399099999999999  0.64132  0.39654999999999996  1.0000
  C   C82       1.0  0.55584  0.51802  0.40142  1.0000
  C   C83       1.0  0.6636500000000001  0.46503  0.36202  1.0000
  C   C84       1.0  0.33057  0.69491  0.4400899999999999  1.0000
  C   C85       1.0  0.2904000000000001  0.8204  0.45408  1.0000
  C   C86       1.0  0.19898  0.8663  0.4975  1.0000
  C   C87       1.0  0.14284000000000005  0.78937  0.52825  1.0000
  C   C88       1.0  0.05626999999999998  0.8305300000000001  0.5782  1.0000
  C   C89       1.0  0.17799  0.66582  0.51326  1.0000
  C   C90       1.0  0.27173000000000014  0.6188  0.47019  1.0000
  C   C91       1.0  0.26669000000000004  0.40310999999999997  0.25497  1.0000
  C   C92       1.0  0.30095  0.49025  0.27276  1.0000
  C   C93       1.0  0.21669  0.55925  0.31357  1.0000
  C   C94       1.0  0.09958999999999997  0.53667  0.33542  1.0000
  C   C95       1.0  0.07142999999999991  0.4469000000000001  0.31605  1.0000
  C   C96       1.0  0.64572  0.67761  0.0934  1.0000
  C   C97       1.0  0.5182  0.74954  0.07387  1.0000
  C   C98       1.0  0.39083999999999997  0.75119  0.10013999999999999  1.0000
  C   C99       1.0  0.3954799999999999  0.67996  0.14479  1.0000
  C   C100      1.0  0.52722  0.61125  0.16228  1.0000
  N   N1        1.0  0.6900499999999999  0.87946  0.7765699999999999  1.0000
  N   N2        1.0  0.10274  0.11090000000000001  0.63677  1.0000
  N   N3        1.0  0.8471299999999998  0.61997  0.72307  1.0000
  N   N4        1.0  0.3501000000000001  0.38980000000000004  0.8629499999999999  1.0000
  N   N5        1.0  0.30966  0.12108000000000001  0.22357  1.0000
  N   N6        1.0  0.89726  0.8893000000000001  0.36313  1.0000
  N   N7        1.0  0.15361999999999998  0.37964000000000003  0.2764  1.0000
  N   N8        1.0  0.6501  0.6101  0.1371  1.0000
  O   O1        1.0  0.9736899999999999  0.8642999999999997  0.78309  1.0000
  O   O2        1.0  0.98198  0.030449999999999994  0.73087  1.0000
  O   O3        1.0  0.8901300000000001  0.43364  0.8256599999999998  1.0000
  O   O4        1.0  0.11122999999999998  0.34286  0.8501  1.0000
  O   O5        1.0  0.14119  0.2667  0.10056  1.0000
  O   O6        1.0  0.9165  0.4258  0.09539  1.0000
  O   O7        1.0  0.8908700000000003  0.8664099999999999  0.68347  1.0000
  O   O8        1.0  0.12094999999999996  0.63667  0.71654  1.0000
  O   O9        1.0  0.24519999999999995  0.47062  0.76877  1.0000
  O   O10       1.0  0.65099  0.06644  0.67409  1.0000
  O   O11       1.0  0.8040799999999999  0.15839  0.64991  1.0000
  O   O12       1.0  0.008000000000000002  0.23364  0.3996  1.0000
  O   O13       1.0  0.94016  0.07231  0.40473  1.0000
  O   O14       1.0  0.9420700000000002  0.63179  0.8160599999999999  1.0000
  O   O15       1.0  0.023620000000000006  0.13654  0.21745999999999996  1.0000
  O   O16       1.0  0.017539999999999983  0.9688100000000001  0.26943  1.0000
  O   O17       1.0  0.10903000000000002  0.56672  0.17424  1.0000
  O   O18       1.0  0.8883099999999999  0.65779  0.14992  1.0000
  O   O19       1.0  0.8585599999999999  0.73283  0.89922  1.0000
  O   O20       1.0  0.08482  0.57546  0.90423  1.0000
  O   O21       1.0  0.10874000000000009  0.13161  0.317  1.0000
  O   O22       1.0  0.8777  0.36304  0.28311  1.0000
  O   O23       1.0  0.75486  0.5317  0.23155  1.0000
  O   O24       1.0  0.3503399999999997  0.9326200000000001  0.32587000000000005  1.0000
  O   O25       1.0  0.1952299999999999  0.8421700000000001  0.34997  1.0000
  O   O26       1.0  0.9911500000000002  0.76697  0.60055  1.0000
  O   O27       1.0  0.06191999999999994  0.9261400000000001  0.59568  1.0000
  O   O28       1.0  0.05756999999999995  0.3679500000000001  0.18437  1.0000
