data_image0
_chemical_formula_structural       Cu6H54C84N6O30
_chemical_formula_sum              "Cu6 H54 C84 N6 O30"
_cell_length_a       15.88941
_cell_length_b       15.89194
_cell_length_c       15.89178
_cell_angle_alpha    72.64627
_cell_angle_beta     72.60809
_cell_angle_gamma    72.60779000000001

_space_group_name_H-M_alt    "P 1"
_space_group_IT_number       1

loop_
  _space_group_symop_operation_xyz
  'x, y, z'

loop_
  _atom_site_type_symbol
  _atom_site_label
  _atom_site_symmetry_multiplicity
  _atom_site_fract_x
  _atom_site_fract_y
  _atom_site_fract_z
  _atom_site_occupancy
  Cu  Cu1       1.0  0.48358000000000007  0.05309000000000001  0.05383  1.0000
  Cu  Cu2       1.0  0.05382999999999996  0.4836400000000001  0.05306  1.0000
  Cu  Cu3       1.0  0.5164199999999994  0.9469100000000004  0.94617  1.0000
  Cu  Cu4       1.0  0.05308999999999998  0.053809999999999955  0.4836300000000001  1.0000
  Cu  Cu5       1.0  0.9469200000000001  0.94619  0.51637  1.0000
  Cu  Cu6       1.0  0.9461699999999998  0.51637  0.94694  1.0000
  H   H1        1.0  0.8977099999999996  0.64976  0.77028  1.0000
  H   H2        1.0  0.4089399999999997  0.8056800000000002  0.6630000000000003  1.0000
  H   H3        1.0  0.6498099999999999  0.7702400000000001  0.89769  1.0000
  H   H4        1.0  0.75673  0.11697999999999997  0.3424000000000001  1.0000
  H   H5        1.0  0.8869599999999996  0.23631000000000002  0.6531400000000003  1.0000
  H   H6        1.0  0.02358999999999996  0.7492100000000002  0.74165  1.0000
  H   H7        1.0  0.23635  0.6531900000000002  0.88693  1.0000
  H   H8        1.0  0.7636599999999997  0.34682000000000013  0.11306000000000002  1.0000
  H   H9        1.0  0.2797899999999999  0.6496700000000002  0.10449000000000003  1.0000
  H   H10       1.0  0.19429999999999994  0.33698  0.5911700000000002  1.0000
  H   H11       1.0  0.97641  0.2508  0.25834  1.0000
  H   H12       1.0  0.10228999999999999  0.35025  0.22972000000000006  1.0000
  H   H13       1.0  0.11303999999999988  0.7636900000000002  0.3468600000000001  1.0000
  H   H14       1.0  0.34252  0.75667  0.11686000000000003  1.0000
  H   H15       1.0  0.3501799999999999  0.8954600000000001  0.7203300000000002  1.0000
  H   H16       1.0  0.34693999999999997  0.11296000000000003  0.7636  1.0000
  H   H17       1.0  0.8056999999999995  0.6630300000000002  0.4088200000000001  1.0000
  H   H18       1.0  0.8257200000000001  0.6515400000000001  0.64887  1.0000
  H   H19       1.0  0.06589  0.1854  0.58049  1.0000
  H   H20       1.0  0.65307  0.8870500000000002  0.23640000000000005  1.0000
  H   H21       1.0  0.7202099999999998  0.35034000000000004  0.8955100000000003  1.0000
  H   H22       1.0  0.11695999999999987  0.34245000000000003  0.7567400000000002  1.0000
  H   H23       1.0  0.25079999999999997  0.2583600000000001  0.97636  1.0000
  H   H24       1.0  0.3483999999999999  0.3512300000000001  0.17427000000000006  1.0000
  H   H25       1.0  0.25576999999999994  0.47041000000000005  0.3257800000000001  1.0000
  H   H26       1.0  0.7702299999999996  0.8977399999999999  0.6498300000000002  1.0000
  H   H27       1.0  0.33708  0.5910199999999999  0.19424000000000005  1.0000
  H   H28       1.0  0.8954900000000001  0.7202899999999999  0.35012000000000004  1.0000
  H   H29       1.0  0.6629199999999998  0.4089900000000002  0.80576  1.0000
  H   H30       1.0  0.1854199999999999  0.58039  0.06593  1.0000
  H   H31       1.0  0.4703599999999999  0.3258600000000001  0.25576  1.0000
  H   H32       1.0  0.7442299999999998  0.52959  0.67421  1.0000
  H   H33       1.0  0.41955999999999993  0.93412  0.81459  1.0000
  H   H34       1.0  0.7492099999999998  0.7416500000000003  0.02363000000000001  1.0000
  H   H35       1.0  0.22976999999999992  0.10226999999999999  0.3501700000000001  1.0000
  H   H36       1.0  0.24326999999999996  0.8830300000000002  0.6575900000000002  1.0000
  H   H37       1.0  0.6498299999999998  0.10454000000000004  0.27967  1.0000
  H   H38       1.0  0.2583599999999999  0.9763700000000001  0.25079000000000007  1.0000
  H   H39       1.0  0.74165  0.023630000000000047  0.7492  1.0000
  H   H40       1.0  0.3501999999999999  0.22977000000000006  0.10231  1.0000
  H   H41       1.0  0.8830500000000001  0.6575599999999999  0.24326000000000006  1.0000
  H   H42       1.0  0.65748  0.24334000000000006  0.8831400000000003  1.0000
  H   H43       1.0  0.6515999999999997  0.64877  0.8257200000000002  1.0000
  H   H44       1.0  0.5296399999999996  0.6741400000000001  0.7442300000000002  1.0000
  H   H45       1.0  0.10451999999999995  0.27972  0.6498800000000002  1.0000
  H   H46       1.0  0.32583999999999985  0.2557500000000001  0.47033000000000014  1.0000
  H   H47       1.0  0.9341099999999999  0.8146000000000002  0.4195100000000001  1.0000
  H   H48       1.0  0.3512  0.17426999999999998  0.3483300000000001  1.0000
  H   H49       1.0  0.17427999999999996  0.3484700000000001  0.35113  1.0000
  H   H50       1.0  0.6741599999999998  0.7442500000000004  0.52966  1.0000
  H   H51       1.0  0.8145799999999995  0.41962  0.93406  1.0000
  H   H52       1.0  0.5804399999999998  0.06589  0.18541000000000005  1.0000
  H   H53       1.0  0.6488099999999996  0.8257399999999999  0.6516700000000002  1.0000
  H   H54       1.0  0.59107  0.19432  0.337  1.0000
  C   C1        1.0  0.8208599999999997  0.59922  0.7112900000000002  1.0000
  C   C2        1.0  0.17914999999999998  0.40078000000000014  0.28871  1.0000
  C   C3        1.0  0.07801999999999998  0.6228  0.8870300000000002  1.0000
  C   C4        1.0  0.12468000000000003  0.69381  0.82193  1.0000
  C   C5        1.0  0.6937599999999999  0.8219900000000002  0.12474000000000003  1.0000
  C   C6        1.0  0.46825000000000006  0.27415999999999996  0.22477000000000005  1.0000
  C   C7        1.0  0.1673499999999999  0.7937100000000002  0.29969  1.0000
  C   C8        1.0  0.27087999999999995  0.6130500000000002  0.1761  1.0000
  C   C9        1.0  0.7708799999999997  0.4655500000000002  0.80735  1.0000
  C   C10       1.0  0.8703499999999996  0.17816000000000007  0.30701  1.0000
  C   C11       1.0  0.17807999999999985  0.8752900000000002  0.3062100000000001  1.0000
  C   C12       1.0  0.2741299999999998  0.22476  0.46824  1.0000
  C   C13       1.0  0.37951999999999975  0.9150900000000002  0.11206  1.0000
  C   C14       1.0  0.9151099999999996  0.11213  0.37949  1.0000
  C   C15       1.0  0.17817000000000002  0.30702000000000007  0.87032  1.0000
  C   C16       1.0  0.08489000000000001  0.88787  0.62051  1.0000
  C   C17       1.0  0.3062499999999998  0.17802  0.87526  1.0000
  C   C18       1.0  0.7730899999999999  0.2502  0.7672700000000002  1.0000
  C   C19       1.0  0.11296999999999996  0.9219700000000001  0.3772500000000001  1.0000
  C   C20       1.0  0.7786099999999998  0.86065  0.5991200000000002  1.0000
  C   C21       1.0  0.6227599999999999  0.88709  0.07805  1.0000
  C   C22       1.0  0.40089  0.2214  0.13939  1.0000
  C   C23       1.0  0.24892999999999996  0.9132000000000001  0.24609000000000006  1.0000
  C   C24       1.0  0.8606299999999997  0.5990800000000002  0.77863  1.0000
  C   C25       1.0  0.40072999999999975  0.28878  0.17915000000000006  1.0000
  C   C26       1.0  0.74984  0.23277  0.22686000000000006  1.0000
  C   C27       1.0  0.7752299999999999  0.5317200000000002  0.7258900000000001  1.0000
  C   C28       1.0  0.8870400000000002  0.07804  0.62275  1.0000
  C   C29       1.0  0.29977  0.16725999999999994  0.7936600000000003  1.0000
  C   C30       1.0  0.19265999999999997  0.2291000000000001  0.53448  1.0000
  C   C31       1.0  0.37723999999999996  0.11291999999999998  0.9219500000000003  1.0000
  C   C32       1.0  0.12964999999999982  0.8218400000000003  0.69299  1.0000
  C   C33       1.0  0.8326499999999996  0.20629  0.7003100000000001  1.0000
  C   C34       1.0  0.28874999999999995  0.17914000000000005  0.4007000000000001  1.0000
  C   C35       1.0  0.5296799999999999  0.12955  0.18649  1.0000
  C   C36       1.0  0.7881399999999996  0.17085000000000006  0.29643  1.0000
  C   C37       1.0  0.18648999999999977  0.52965  0.12957  1.0000
  C   C38       1.0  0.24613999999999983  0.24889000000000003  0.9131900000000002  1.0000
  C   C39       1.0  0.17085999999999996  0.2964399999999999  0.7881200000000003  1.0000
  C   C40       1.0  0.08675999999999989  0.7538900000000002  0.7511000000000002  1.0000
  C   C41       1.0  0.8218399999999996  0.69298  0.12968  1.0000
  C   C42       1.0  0.13938000000000003  0.40091999999999994  0.22136  1.0000
  C   C43       1.0  0.6204799999999998  0.08491999999999994  0.8879400000000002  1.0000
  C   C44       1.0  0.7112499999999997  0.8208600000000003  0.5993000000000002  1.0000
  C   C45       1.0  0.29651999999999995  0.78809  0.17077000000000006  1.0000
  C   C46       1.0  0.46553999999999995  0.8073300000000002  0.7709000000000003  1.0000
  C   C47       1.0  0.5992699999999999  0.7112300000000003  0.8208500000000002  1.0000
  C   C48       1.0  0.75108  0.08680999999999997  0.7539000000000002  1.0000
  C   C49       1.0  0.8291399999999999  0.7035600000000002  0.21188000000000007  1.0000
  C   C50       1.0  0.9219799999999997  0.37721  0.11297000000000003  1.0000
  C   C51       1.0  0.7034899999999996  0.21191999999999997  0.8292300000000001  1.0000
  C   C52       1.0  0.7291199999999998  0.38696000000000014  0.8239000000000002  1.0000
  C   C53       1.0  0.2118599999999999  0.8291500000000003  0.70357  1.0000
  C   C54       1.0  0.22139  0.13935000000000006  0.40088  1.0000
  C   C55       1.0  0.76718  0.7731800000000002  0.2502  1.0000
  C   C56       1.0  0.8135099999999996  0.4703500000000001  0.87043  1.0000
  C   C57       1.0  0.69294  0.12971  0.82189  1.0000
  C   C58       1.0  0.3869  0.8238599999999999  0.72919  1.0000
  C   C59       1.0  0.22476999999999991  0.46829000000000004  0.2741  1.0000
  C   C60       1.0  0.8704400000000001  0.81353  0.47029  1.0000
  C   C61       1.0  0.8753199999999995  0.30619000000000013  0.17806000000000005  1.0000
  C   C62       1.0  0.11211999999999987  0.3795100000000001  0.9151300000000002  1.0000
  C   C63       1.0  0.30705999999999983  0.8703000000000002  0.1781  1.0000
  C   C64       1.0  0.9132399999999997  0.24611000000000002  0.24889  1.0000
  C   C65       1.0  0.20627999999999996  0.70032  0.83267  1.0000
  C   C66       1.0  0.5344699999999998  0.19266999999999998  0.22909000000000004  1.0000
  C   C67       1.0  0.1761399999999998  0.27081  0.6131400000000002  1.0000
  C   C68       1.0  0.23281999999999986  0.22682999999999995  0.7498000000000002  1.0000
  C   C69       1.0  0.7538699999999999  0.7511200000000001  0.08681  1.0000
  C   C70       1.0  0.5991199999999997  0.7786100000000002  0.8606100000000001  1.0000
  C   C71       1.0  0.61311  0.17615000000000003  0.27081  1.0000
  C   C72       1.0  0.8238599999999999  0.7292000000000002  0.38685000000000014  1.0000
  C   C73       1.0  0.47033  0.87045  0.8135  1.0000
  C   C74       1.0  0.2501699999999999  0.7672400000000003  0.7731400000000003  1.0000
  C   C75       1.0  0.8073399999999995  0.7709100000000002  0.4655100000000001  1.0000
  C   C76       1.0  0.8219199999999999  0.12471  0.6937900000000002  1.0000
  C   C77       1.0  0.12955999999999987  0.18647000000000002  0.5297100000000001  1.0000
  C   C78       1.0  0.22911999999999982  0.5344500000000002  0.19265000000000004  1.0000
  C   C79       1.0  0.7937199999999996  0.2996800000000001  0.16733  1.0000
  C   C80       1.0  0.22691000000000003  0.7498100000000001  0.23273000000000005  1.0000
  C   C81       1.0  0.7002399999999994  0.83274  0.20634  1.0000
  C   C82       1.0  0.53175  0.72585  0.7752300000000001  1.0000
  C   C83       1.0  0.7258699999999999  0.7752400000000003  0.5317600000000001  1.0000
  C   C84       1.0  0.8878899999999997  0.6205000000000003  0.08486000000000002  1.0000
  N   N1        1.0  0.85721  0.5356  0.8569300000000002  1.0000
  N   N2        1.0  0.8569300000000001  0.8572400000000002  0.53557  1.0000
  N   N3        1.0  0.14308  0.14277000000000006  0.46443  1.0000
  N   N4        1.0  0.14278999999999997  0.46440000000000003  0.14307000000000006  1.0000
  N   N5        1.0  0.53562  0.8569400000000001  0.85718  1.0000
  N   N6        1.0  0.46438999999999986  0.14306  0.14282000000000006  1.0000
  O   O1        1.0  0.6074699999999996  0.018969999999999935  0.8669800000000002  1.0000
  O   O2        1.0  0.3904099999999999  0.13410999999999998  0.9876500000000002  1.0000
  O   O3        1.0  0.9810599999999999  0.13305  0.39254  1.0000
  O   O4        1.0  0.13306999999999986  0.39257000000000003  0.9810500000000001  1.0000
  O   O5        1.0  0.4211499999999999  0.8851300000000002  0.04096  1.0000
  O   O6        1.0  0.10755999999999995  0.5811399999999999  0.9585100000000002  1.0000
  O   O7        1.0  0.88511  0.041100000000000005  0.4211  1.0000
  O   O8        1.0  0.4189899999999999  0.04140999999999999  0.8924  1.0000
  O   O9        1.0  0.5788599999999996  0.11488  0.9590400000000002  1.0000
  O   O10       1.0  0.23423999999999986  0.20799999999999993  0.6701000000000003  1.0000
  O   O11       1.0  0.89244  0.41887  0.04149  1.0000
  O   O12       1.0  0.13415999999999986  0.9876200000000004  0.39051  1.0000
  O   O13       1.0  0.012360000000000003  0.60952  0.86585  1.0000
  O   O14       1.0  0.20806999999999995  0.6701300000000002  0.23414000000000004  1.0000
  O   O15       1.0  0.9585499999999997  0.10756  0.58105  1.0000
  O   O16       1.0  0.018940000000000005  0.86696  0.60745  1.0000
  O   O17       1.0  0.11488999999999991  0.9589100000000004  0.5789  1.0000
  O   O18       1.0  0.9589999999999997  0.5789000000000002  0.11478  1.0000
  O   O19       1.0  0.3298699999999998  0.7658200000000002  0.7919600000000002  1.0000
  O   O20       1.0  0.60959  0.8659000000000002  0.01234  1.0000
  O   O21       1.0  0.9876399999999999  0.3904900000000001  0.13414  1.0000
  O   O22       1.0  0.04100999999999994  0.42110999999999993  0.8852200000000002  1.0000
  O   O23       1.0  0.39252999999999993  0.9810300000000002  0.13302  1.0000
  O   O24       1.0  0.8669299999999998  0.6074300000000001  0.01895  1.0000
  O   O25       1.0  0.8658399999999999  0.01238  0.60949  1.0000
  O   O26       1.0  0.6701299999999998  0.23418  0.20803000000000005  1.0000
  O   O27       1.0  0.7919399999999995  0.3298700000000001  0.76586  1.0000
  O   O28       1.0  0.58102  0.95859  0.10760000000000003  1.0000
  O   O29       1.0  0.7657699999999995  0.7920000000000003  0.3299000000000001  1.0000
  O   O30       1.0  0.04145999999999992  0.8924500000000002  0.4189400000000001  1.0000
