data_image0
_chemical_formula_structural       Eu4Cu12H48C72Br12N12O24
_chemical_formula_sum              "Eu4 Cu12 H48 C72 Br12 N12 O24"
_cell_length_a       9.83484
_cell_length_b       14.93126
_cell_length_c       19.58399
_cell_angle_alpha    74.11919
_cell_angle_beta     81.90898
_cell_angle_gamma    77.47865

_symmetry_space_group_name_H-M    'P 1'
_symmetry_Int_Tables_number       1

loop_
  _symmetry_equiv_pos_as_xyz
  'x,y,z'

loop_
  _atom_site_type_symbol
  _atom_site_label
  _atom_site_symmetry_multiplicity
  _atom_site_fract_x
  _atom_site_fract_y
  _atom_site_fract_z
  _atom_site_occupancy
  Eu  Eu1       1.0  0.17095  0.45328  0.19064  1.0000
  Eu  Eu2       1.0  0.6223499999999998  0.4366400000000001  0.19273  1.0000
  Eu  Eu3       1.0  0.82899  0.54689  0.80927  1.0000
  Eu  Eu4       1.0  0.37742000000000026  0.56336  0.80749  1.0000
  Cu  Cu1       1.0  0.60777  0.09474000000000003  0.55939  1.0000
  Cu  Cu2       1.0  0.7223  0.23614999999999997  0.56243  1.0000
  Cu  Cu3       1.0  0.75929  0.07276  0.65953  1.0000
  Cu  Cu4       1.0  0.5127299999999999  0.16753000000000007  0.66999  1.0000
  Cu  Cu5       1.0  0.07359999999999996  0.97207  0.05419  1.0000
  Cu  Cu6       1.0  0.8247  0.99986  0.11039  1.0000
  Cu  Cu7       1.0  0.39218000000000003  0.90529  0.44056  1.0000
  Cu  Cu8       1.0  0.27776999999999996  0.7638900000000002  0.43756  1.0000
  Cu  Cu9       1.0  0.24073999999999998  0.92721  0.34046  1.0000
  Cu  Cu10      1.0  0.4872999999999999  0.8325  0.32998  1.0000
  Cu  Cu11      1.0  0.9262700000000001  0.027860000000000083  0.9458799999999999  1.0000
  Cu  Cu12      1.0  0.17536999999999994  0.0002699999999999608  0.8896900000000001  1.0000
  H   H1        1.0  0.19201000000000001  0.25407  0.3488200000000001  1.0000
  H   H2        1.0  0.14691000000000004  0.11883000000000003  0.4556799999999999  1.0000
  H   H3        1.0  0.33063000000000003  0.048409999999999995  0.541  1.0000
  H   H4        1.0  0.5931300000000002  0.22925000000000004  0.42273000000000005  1.0000
  H   H5        1.0  0.7397700000000001  0.3590200000000002  0.65344  1.0000
  H   H6        1.0  0.0031799999999999875  0.27111  0.48908  1.0000
  H   H7        1.0  0.1779300000000001  0.3655399999999999  0.49785000000000007  1.0000
  H   H8        1.0  0.12310999999999996  0.46413  0.58903  1.0000
  H   H9        1.0  0.2763999999999999  0.7922800000000001  0.71044  1.0000
  H   H10       1.0  0.28156  0.9607599999999998  0.64212  1.0000
  H   H11       1.0  0.05418000000000003  0.07420999999999997  0.61942  1.0000
  H   H12       1.0  0.82777  0.8641100000000002  0.7246  1.0000
  H   H13       1.0  0.40063  0.30865  0.74752  1.0000
  H   H14       1.0  0.23793999999999993  0.09615000000000004  0.70566  1.0000
  H   H15       1.0  0.9986499999999999  0.15803000000000003  0.7560100000000001  1.0000
  H   H16       1.0  0.96319  0.30420000000000025  0.80294  1.0000
  H   H17       1.0  0.5863399999999999  0.68494  0.082  1.0000
  H   H18       1.0  0.60373  0.8581  0.0403  1.0000
  H   H19       1.0  0.38134  0.97965  0.026829999999999996  1.0000
  H   H20       1.0  0.14092999999999992  0.7700700000000003  0.0781  1.0000
  H   H21       1.0  0.6971700000000001  0.19066  0.11398999999999998  1.0000
  H   H22       1.0  0.54494  0.94083  0.1496  1.0000
  H   H23       1.0  0.29917  0.026300000000000004  0.1566  1.0000
  H   H24       1.0  0.25243000000000004  0.20579000000000006  0.13755  1.0000
  H   H25       1.0  0.80802  0.74615  0.65094  1.0000
  H   H26       1.0  0.85308  0.88138  0.54416  1.0000
  H   H27       1.0  0.6695  0.95172  0.4588  1.0000
  H   H28       1.0  0.4067999999999999  0.77102  0.57709  1.0000
  H   H29       1.0  0.26025000000000004  0.6409900000000002  0.3466  1.0000
  H   H30       1.0  0.9967999999999999  0.7290200000000002  0.51092  1.0000
  H   H31       1.0  0.8220099999999998  0.6345600000000002  0.50218  1.0000
  H   H32       1.0  0.87708  0.53583  0.411  1.0000
  H   H33       1.0  0.7235800000000001  0.20773999999999998  0.28956  1.0000
  H   H34       1.0  0.71839  0.03928  0.35784  1.0000
  H   H35       1.0  0.9458100000000003  0.92581  0.38051  1.0000
  H   H36       1.0  0.17227999999999993  0.13589000000000007  0.27538  1.0000
  H   H37       1.0  0.5994299999999999  0.69147  0.25245  1.0000
  H   H38       1.0  0.7621300000000001  0.90393  0.29434  1.0000
  H   H39       1.0  0.0014200000000000271  0.84208  0.24396  1.0000
  H   H40       1.0  0.03688000000000007  0.69588  0.19703  1.0000
  H   H41       1.0  0.4137000000000001  0.31518  0.91805  1.0000
  H   H42       1.0  0.39628000000000035  0.14190999999999998  0.95952  1.0000
  H   H43       1.0  0.6187899999999998  0.020409999999999925  0.9730600000000001  1.0000
  H   H44       1.0  0.85883  0.23027999999999998  0.9218200000000001  1.0000
  H   H45       1.0  0.3024999999999999  0.80955  0.88605  1.0000
  H   H46       1.0  0.4551999999999999  0.059190000000000006  0.85033  1.0000
  H   H47       1.0  0.70088  0.97357  0.8434  1.0000
  H   H48       1.0  0.74733  0.79409  0.86244  1.0000
  C   C1        1.0  0.43718  0.325  0.31467  1.0000
  C   C2        1.0  0.3964899999999999  0.2504500000000001  0.37871  1.0000
  C   C3        1.0  0.26833  0.22015  0.38789  1.0000
  C   C4        1.0  0.24350999999999998  0.14635999999999996  0.44682  1.0000
  C   C5        1.0  0.3458500000000001  0.10609000000000002  0.49452  1.0000
  C   C6        1.0  0.4932099999999999  0.20653000000000007  0.42897  1.0000
  C   C7        1.0  0.8895800000000001  0.47314999999999996  0.68346  1.0000
  C   C8        1.0  0.9273800000000002  0.41852  0.62705  1.0000
  C   C9        1.0  0.83667  0.36256000000000005  0.61921  1.0000
  C   C10       1.0  0.98525  0.31322999999999995  0.5279300000000001  1.0000
  C   C11       1.0  0.08191999999999998  0.3662900000000001  0.53307  1.0000
  C   C12       1.0  0.05238000000000003  0.42036999999999997  0.5831  1.0000
  C   C13       1.0  0.04117000000000017  0.71702  0.76698  1.0000
  C   C14       1.0  0.05144999999999994  0.8161200000000001  0.72279  1.0000
  C   C15       1.0  0.18041  0.84387  0.69911  1.0000
  C   C16       1.0  0.18278999999999995  0.9371400000000002  0.66089  1.0000
  C   C17       1.0  0.05741000000000003  0.0003799999999999855  0.64817  1.0000
  C   C18       1.0  0.92973  0.88349  0.70676  1.0000
  C   C19       1.0  0.17089000000000001  0.40105  0.8088  1.0000
  C   C20       1.0  0.18059999999999996  0.31555000000000005  0.77984  1.0000
  C   C21       1.0  0.30985  0.2768399999999999  0.75001  1.0000
  C   C22       1.0  0.21733999999999998  0.15891000000000008  0.72627  1.0000
  C   C23       1.0  0.08476999999999998  0.19382000000000002  0.75452  1.0000
  C   C24       1.0  0.06551999999999997  0.27374  0.7812800000000001  1.0000
  C   C25       1.0  0.33780000000000004  0.61529  0.10896999999999998  1.0000
  C   C26       1.0  0.36171000000000003  0.71571  0.08243  1.0000
  C   C27       1.0  0.49378999999999995  0.74037  0.07224  1.0000
  C   C28       1.0  0.50268  0.8362700000000001  0.05024  1.0000
  C   C29       1.0  0.3803600000000001  0.90403  0.04223  1.0000
  C   C30       1.0  0.24445000000000003  0.7877100000000001  0.07146  1.0000
  C   C31       1.0  0.45251000000000013  0.3153  0.11857  1.0000
  C   C32       1.0  0.47198000000000007  0.21025  0.12436  1.0000
  C   C33       1.0  0.6068700000000001  0.15655  0.12204  1.0000
  C   C34       1.0  0.52098  0.017380000000000013  0.14184  1.0000
  C   C35       1.0  0.38362  0.06603000000000002  0.14547  1.0000
  C   C36       1.0  0.35804  0.16414  0.13556  1.0000
  C   C37       1.0  0.56323  0.67501  0.68533  1.0000
  C   C38       1.0  0.6034299999999999  0.74982  0.62129  1.0000
  C   C39       1.0  0.7315599999999998  0.7801700000000001  0.61198  1.0000
  C   C40       1.0  0.7564500000000002  0.8539  0.55303  1.0000
  C   C41       1.0  0.65422  0.89404  0.50527  1.0000
  C   C42       1.0  0.5067600000000001  0.7936600000000001  0.57098  1.0000
  C   C43       1.0  0.11040000000000004  0.52681  0.31669  1.0000
  C   C44       1.0  0.07267000000000003  0.5814700000000002  0.37308  1.0000
  C   C45       1.0  0.16337999999999994  0.6374700000000001  0.38087  1.0000
  C   C46       1.0  0.014739999999999998  0.6868400000000001  0.47211000000000003  1.0000
  C   C47       1.0  0.9180600000000001  0.63377  0.46699  1.0000
  C   C48       1.0  0.94767  0.57965  0.417  1.0000
  C   C49       1.0  0.9588200000000001  0.28298000000000006  0.23302  1.0000
  C   C50       1.0  0.9485700000000001  0.1839  0.27725  1.0000
  C   C51       1.0  0.8195799999999998  0.15617  0.3009  1.0000
  C   C52       1.0  0.81718  0.06288  0.33907  1.0000
  C   C53       1.0  0.9425600000000002  0.99965  0.35178  1.0000
  C   C54       1.0  0.0703  0.11653  0.29326  1.0000
  C   C55       1.0  0.8293100000000002  0.5989500000000001  0.19125  1.0000
  C   C56       1.0  0.81955  0.6845200000000001  0.22015000000000004  1.0000
  C   C57       1.0  0.69026  0.7232500000000001  0.24994999999999998  1.0000
  C   C58       1.0  0.78274  0.8411499999999998  0.27375  1.0000
  C   C59       1.0  0.9153  0.80629  0.24546  1.0000
  C   C60       1.0  0.9345800000000001  0.72636  0.2187  1.0000
  C   C61       1.0  0.66161  0.38483  0.8911800000000001  1.0000
  C   C62       1.0  0.6380500000000001  0.28434  0.91768  1.0000
  C   C63       1.0  0.5060799999999999  0.2596099999999999  0.9278800000000001  1.0000
  C   C64       1.0  0.49739000000000005  0.16368000000000002  0.94974  1.0000
  C   C65       1.0  0.6198300000000002  0.09599999999999996  0.95773  1.0000
  C   C66       1.0  0.7554500000000001  0.21242  0.9286199999999999  1.0000
  C   C67       1.0  0.5465599999999999  0.6847700000000001  0.88157  1.0000
  C   C68       1.0  0.52764  0.78982  0.87562  1.0000
  C   C69       1.0  0.39284  0.8436200000000001  0.8779499999999999  1.0000
  C   C70       1.0  0.4790499999999998  0.9826300000000003  0.85817  1.0000
  C   C71       1.0  0.61635  0.9339  0.8545  1.0000
  C   C72       1.0  0.6417499999999999  0.8357900000000003  0.8644100000000001  1.0000
  Br  Br1       1.0  0.8417200000000001  0.11313000000000001  0.50371  1.0000
  Br  Br2       1.0  0.48733  0.31795000000000007  0.57332  1.0000
  Br  Br3       1.0  0.7012800000000001  0.16534999999999997  0.74645  1.0000
  Br  Br4       1.0  0.5286499999999998  0.99395  0.67017  1.0000
  Br  Br5       1.0  0.0014499999999999945  0.053270000000000005  0.15066  1.0000
  Br  Br6       1.0  0.11973999999999993  0.12148  0.9535900000000002  1.0000
  Br  Br7       1.0  0.15825000000000003  0.887  0.49622000000000005  1.0000
  Br  Br8       1.0  0.5127200000000002  0.6820900000000002  0.42669  1.0000
  Br  Br9       1.0  0.29878999999999994  0.83465  0.25351  1.0000
  Br  Br10      1.0  0.4713500000000001  0.006079999999999997  0.32974  1.0000
  Br  Br11      1.0  0.9984600000000001  0.94707  0.8492100000000001  1.0000
  Br  Br12      1.0  0.8802299999999997  0.87867  0.04643  1.0000
  N   N1        1.0  0.46927  0.13565  0.48623  1.0000
  N   N2        1.0  0.8639100000000003  0.31101  0.5703  1.0000
  N   N3        1.0  0.93186  0.9742699999999999  0.67067  1.0000
  N   N4        1.0  0.32814  0.20057  0.72317  1.0000
  N   N5        1.0  0.2523800000000001  0.88035  0.05325  1.0000
  N   N6        1.0  0.6315900000000001  0.06191000000000001  0.12926  1.0000
  N   N7        1.0  0.5308700000000002  0.8643900000000001  0.51361  1.0000
  N   N8        1.0  0.13610999999999995  0.6890500000000003  0.42976000000000003  1.0000
  N   N9        1.0  0.06812999999999998  0.02574  0.32931  1.0000
  N   N10       1.0  0.67194  0.79951  0.27679  1.0000
  N   N11       1.0  0.7477799999999999  0.11973  0.94677  1.0000
  N   N12       1.0  0.36832000000000015  0.93824  0.8707300000000001  1.0000
  O   O1        1.0  0.3580999999999999  0.3550000000000001  0.26428  1.0000
  O   O2        1.0  0.5536500000000001  0.35035  0.31355  1.0000
  O   O3        1.0  0.9524000000000001  0.54025  0.68017  1.0000
  O   O4        1.0  0.7963199999999999  0.44626  0.73302  1.0000
  O   O5        1.0  0.15266999999999992  0.6642600000000002  0.79108  1.0000
  O   O6        1.0  0.92105  0.69531  0.77723  1.0000
  O   O7        1.0  0.2867499999999999  0.4267500000000001  0.80845  1.0000
  O   O8        1.0  0.05265000000000005  0.43917  0.83175  1.0000
  O   O9        1.0  0.43505  0.55371  0.14084  1.0000
  O   O10       1.0  0.22051999999999997  0.59977  0.10097  1.0000
  O   O11       1.0  0.56254  0.34499  0.12287  1.0000
  O   O12       1.0  0.33052  0.3635800000000001  0.11158999999999998  1.0000
  O   O13       1.0  0.64234  0.6453300000000001  0.73571  1.0000
  O   O14       1.0  0.44711999999999996  0.6492000000000001  0.68642  1.0000
  O   O15       1.0  0.04788999999999995  0.4596000000000002  0.31994  1.0000
  O   O16       1.0  0.20332  0.55392  0.26702  1.0000
  O   O17       1.0  0.8472200000000003  0.33574999999999994  0.20905000000000004  1.0000
  O   O18       1.0  0.07895999999999996  0.30467000000000016  0.22259999999999996  1.0000
  O   O19       1.0  0.71344  0.57322  0.19163000000000002  1.0000
  O   O20       1.0  0.9475  0.56086  0.16823  1.0000
  O   O21       1.0  0.5640499999999999  0.44642  0.8596  1.0000
  O   O22       1.0  0.7791300000000001  0.4002499999999999  0.8989200000000002  1.0000
  O   O23       1.0  0.4361300000000001  0.65529  0.87751  1.0000
  O   O24       1.0  0.66843  0.6363300000000004  0.88848  1.0000
