data_image0
_chemical_formula_structural       In6H48C84O26
_chemical_formula_sum              "In6 H48 C84 O26"
_cell_length_a       21.62548
_cell_length_b       21.62496
_cell_length_c       23.16206
_cell_angle_alpha    90.0
_cell_angle_beta     90.0
_cell_angle_gamma    120.02853

_space_group_name_H-M_alt    "P 1"
_space_group_IT_number       1

loop_
  _space_group_symop_operation_xyz
  'x, y, z'

loop_
  _atom_site_type_symbol
  _atom_site_label
  _atom_site_symmetry_multiplicity
  _atom_site_fract_x
  _atom_site_fract_y
  _atom_site_fract_z
  _atom_site_occupancy
  In  In1       1.0  0.27875999999999995  0.5575299999999999  0.25  1.0000
  In  In2       1.0  0.27878999999999987  0.72119  0.25  1.0000
  In  In3       1.0  0.4424399999999999  0.7212099999999999  0.25  1.0000
  In  In4       1.0  0.7212400000000001  0.44247  0.75  1.0000
  In  In5       1.0  0.72121  0.2788  0.75  1.0000
  In  In6       1.0  0.55757  0.27879  0.75  1.0000
  H   H1        1.0  0.03325999999999996  0.41676  0.46825  1.0000
  H   H2        1.0  0.03396999999999995  0.6167699999999999  0.46852  1.0000
  H   H3        1.0  0.12066000000000003  0.65933  0.38893000000000005  1.0000
  H   H4        1.0  0.12011999999999999  0.46076  0.3888  1.0000
  H   H5        1.0  0.38351  0.96673  0.46824000000000005  1.0000
  H   H6        1.0  0.58281  0.9660399999999999  0.46853  1.0000
  H   H7        1.0  0.53867  0.87935  0.38894  1.0000
  H   H8        1.0  0.3406299999999999  0.8798699999999999  0.38879  1.0000
  H   H9        1.0  0.58326  0.61652  0.46825  1.0000
  H   H10       1.0  0.38321  0.41718  0.46852  1.0000
  H   H11       1.0  0.34066  0.46130999999999994  0.38893000000000005  1.0000
  H   H12       1.0  0.53927  0.65939  0.38879  1.0000
  H   H13       1.0  0.38348  0.41674  0.03175  1.0000
  H   H14       1.0  0.58282  0.61679  0.03148  1.0000
  H   H15       1.0  0.53869  0.65935  0.11107  1.0000
  H   H16       1.0  0.3406200000000001  0.46074000000000004  0.11121000000000002  1.0000
  H   H17       1.0  0.58324  0.9667399999999999  0.03175  1.0000
  H   H18       1.0  0.38323999999999997  0.96603  0.03148  1.0000
  H   H19       1.0  0.34067000000000003  0.87934  0.11107  1.0000
  H   H20       1.0  0.53924  0.87988  0.11119999999999998  1.0000
  H   H21       1.0  0.03327000000000003  0.61649  0.03176  1.0000
  H   H22       1.0  0.033960000000000004  0.41719  0.03147  1.0000
  H   H23       1.0  0.12064999999999997  0.46134  0.11106  1.0000
  H   H24       1.0  0.12013  0.65938  0.11121000000000002  1.0000
  H   H25       1.0  0.96675  0.58324  0.53175  1.0000
  H   H26       1.0  0.9660299999999999  0.38322999999999996  0.53148  1.0000
  H   H27       1.0  0.87934  0.34066  0.61107  1.0000
  H   H28       1.0  0.87989  0.53924  0.6112  1.0000
  H   H29       1.0  0.61649  0.03327  0.53176  1.0000
  H   H30       1.0  0.41719  0.03396  0.53148  1.0000
  H   H31       1.0  0.46134  0.12065  0.61106  1.0000
  H   H32       1.0  0.65937  0.12013  0.61121  1.0000
  H   H33       1.0  0.41674  0.38347999999999993  0.53175  1.0000
  H   H34       1.0  0.61679  0.58282  0.53148  1.0000
  H   H35       1.0  0.65935  0.53869  0.61107  1.0000
  H   H36       1.0  0.46073  0.34061  0.61121  1.0000
  H   H37       1.0  0.61652  0.58326  0.96825  1.0000
  H   H38       1.0  0.41718  0.38321  0.96852  1.0000
  H   H39       1.0  0.46131  0.34064999999999995  0.88893  1.0000
  H   H40       1.0  0.65939  0.53926  0.88879  1.0000
  H   H41       1.0  0.41675999999999996  0.03326  0.96825  1.0000
  H   H42       1.0  0.61676  0.03397  0.96852  1.0000
  H   H43       1.0  0.65933  0.12066  0.88893  1.0000
  H   H44       1.0  0.46075999999999995  0.12012  0.8888  1.0000
  H   H45       1.0  0.9667400000000002  0.38351  0.96824  1.0000
  H   H46       1.0  0.96604  0.58281  0.96853  1.0000
  H   H47       1.0  0.87935  0.53866  0.88894  1.0000
  H   H48       1.0  0.8798799999999999  0.34062  0.88879  1.0000
  C   C1        1.0  0.05172999999999999  0.4701699999999999  0.45169  1.0000
  C   C2        1.0  0.052100000000000035  0.58162  0.45183000000000006  1.0000
  C   C3        1.0  0.10116999999999994  0.6062599999999999  0.40672  1.0000
  C   C4        1.0  0.10084999999999997  0.49450999999999995  0.40661  1.0000
  C   C5        1.0  0.02601  0.51297  0.47579  1.0000
  C   C6        1.0  0.12631  0.56303  0.38346  1.0000
  C   C7        1.0  0.17963999999999994  0.58972  0.33534  1.0000
  C   C8        1.0  0.4184399999999999  0.9482599999999999  0.4516800000000001  1.0000
  C   C9        1.0  0.52952  0.94791  0.45184  1.0000
  C   C10       1.0  0.50509  0.89884  0.40672  1.0000
  C   C11       1.0  0.39366  0.89914  0.4066000000000001  1.0000
  C   C12       1.0  0.48697  0.97399  0.47579  1.0000
  C   C13       1.0  0.43669999999999987  0.8736799999999999  0.38346  1.0000
  C   C14       1.0  0.41008  0.82036  0.33533  1.0000
  C   C15       1.0  0.52984  0.58157  0.45169  1.0000
  C   C16       1.0  0.41837  0.47046999999999994  0.45183000000000006  1.0000
  C   C17       1.0  0.39374  0.49489999999999995  0.40672  1.0000
  C   C18       1.0  0.50551  0.60635  0.4066000000000001  1.0000
  C   C19       1.0  0.48703  0.51304  0.47579  1.0000
  C   C20       1.0  0.43697999999999987  0.5632999999999999  0.38346  1.0000
  C   C21       1.0  0.41028  0.58992  0.33534  1.0000
  C   C22       1.0  0.41843  0.47016  0.04832  1.0000
  C   C23       1.0  0.52953  0.58163  0.04817  1.0000
  C   C24       1.0  0.50511  0.60627  0.09328000000000002  1.0000
  C   C25       1.0  0.39365  0.49449999999999994  0.0934  1.0000
  C   C26       1.0  0.48696  0.51297  0.02421  1.0000
  C   C27       1.0  0.43671000000000004  0.56302  0.11654  1.0000
  C   C28       1.0  0.41009  0.58972  0.16466  1.0000
  C   C29       1.0  0.52983  0.94827  0.048310000000000006  1.0000
  C   C30       1.0  0.41838  0.9479  0.04817  1.0000
  C   C31       1.0  0.39374  0.89883  0.09329  1.0000
  C   C32       1.0  0.5054899999999999  0.8991499999999999  0.0934  1.0000
  C   C33       1.0  0.48703  0.97399  0.02421  1.0000
  C   C34       1.0  0.43697999999999987  0.8736799999999999  0.11654  1.0000
  C   C35       1.0  0.41028  0.82036  0.16467  1.0000
  C   C36       1.0  0.05173999999999998  0.58156  0.04832  1.0000
  C   C37       1.0  0.05208999999999996  0.47048  0.04816  1.0000
  C   C38       1.0  0.10115999999999994  0.49491  0.09328000000000002  1.0000
  C   C39       1.0  0.10085999999999999  0.60635  0.0934  1.0000
  C   C40       1.0  0.02601  0.51303  0.02421  1.0000
  C   C41       1.0  0.12630999999999995  0.5632999999999999  0.11654  1.0000
  C   C42       1.0  0.17964  0.58992  0.16466  1.0000
  C   C43       1.0  0.94828  0.52983  0.54831  1.0000
  C   C44       1.0  0.9479  0.41838  0.54817  1.0000
  C   C45       1.0  0.89883  0.39374  0.59329  1.0000
  C   C46       1.0  0.8991599999999998  0.50549  0.5934  1.0000
  C   C47       1.0  0.97399  0.48702999999999996  0.52421  1.0000
  C   C48       1.0  0.87369  0.43697  0.61654  1.0000
  C   C49       1.0  0.82037  0.41028  0.66467  1.0000
  C   C50       1.0  0.5815599999999999  0.05173999999999999  0.54832  1.0000
  C   C51       1.0  0.47048  0.05209  0.54816  1.0000
  C   C52       1.0  0.49490999999999996  0.10116  0.59328  1.0000
  C   C53       1.0  0.60634  0.10086  0.59341  1.0000
  C   C54       1.0  0.51304  0.02601  0.52421  1.0000
  C   C55       1.0  0.5633  0.12632  0.61655  1.0000
  C   C56       1.0  0.58992  0.17964  0.66467  1.0000
  C   C57       1.0  0.47016  0.41843  0.54832  1.0000
  C   C58       1.0  0.58163  0.52953  0.54817  1.0000
  C   C59       1.0  0.60627  0.5051  0.59328  1.0000
  C   C60       1.0  0.49448999999999993  0.39365  0.5934  1.0000
  C   C61       1.0  0.51297  0.48696  0.52421  1.0000
  C   C62       1.0  0.56302  0.43670000000000003  0.61654  1.0000
  C   C63       1.0  0.58972  0.41007999999999994  0.66466  1.0000
  C   C64       1.0  0.58157  0.52984  0.95169  1.0000
  C   C65       1.0  0.47047  0.41837  0.9518400000000001  1.0000
  C   C66       1.0  0.4949  0.39373  0.90672  1.0000
  C   C67       1.0  0.60635  0.5055  0.9066100000000001  1.0000
  C   C68       1.0  0.51304  0.48702999999999996  0.97579  1.0000
  C   C69       1.0  0.56329  0.4369799999999999  0.88346  1.0000
  C   C70       1.0  0.58991  0.41028  0.83534  1.0000
  C   C71       1.0  0.4701699999999999  0.051729999999999984  0.95169  1.0000
  C   C72       1.0  0.58162  0.0521  0.9518299999999998  1.0000
  C   C73       1.0  0.60626  0.10117  0.90672  1.0000
  C   C74       1.0  0.49451  0.10085  0.9066100000000001  1.0000
  C   C75       1.0  0.51297  0.02601  0.97579  1.0000
  C   C76       1.0  0.56303  0.12632  0.88346  1.0000
  C   C77       1.0  0.58972  0.17964  0.83534  1.0000
  C   C78       1.0  0.94827  0.4184399999999999  0.95168  1.0000
  C   C79       1.0  0.94791  0.52952  0.9518400000000001  1.0000
  C   C80       1.0  0.8988399999999999  0.50509  0.90673  1.0000
  C   C81       1.0  0.89915  0.39365  0.9065999999999999  1.0000
  C   C82       1.0  0.97399  0.48696  0.97579  1.0000
  C   C83       1.0  0.87369  0.43670000000000003  0.88346  1.0000
  C   C84       1.0  0.82037  0.41007999999999994  0.83534  1.0000
  O   O1        1.0  0.19986  0.65306  0.31723  1.0000
  O   O2        1.0  0.19987999999999997  0.54665  0.31724  1.0000
  O   O3        1.0  0.45319  0.80016  0.31724  1.0000
  O   O4        1.0  0.3467400000000001  0.8001  0.31723  1.0000
  O   O5        1.0  0.34694  0.54679  0.31724  1.0000
  O   O6        1.0  0.45338  0.65327  0.31724  1.0000
  O   O7        1.0  0.45322  0.65306  0.18276  1.0000
  O   O8        1.0  0.34674  0.54663  0.18276  1.0000
  O   O9        1.0  0.34694  0.80014  0.18277000000000002  1.0000
  O   O10       1.0  0.4533499999999999  0.80011  0.18277000000000002  1.0000
  O   O11       1.0  0.19984  0.54681  0.18276  1.0000
  O   O12       1.0  0.19989999999999997  0.6532599999999998  0.18277000000000002  1.0000
  O   O13       1.0  0.8001399999999999  0.3469399999999999  0.68277  1.0000
  O   O14       1.0  0.80012  0.45334  0.68276  1.0000
  O   O15       1.0  0.5468099999999999  0.19983999999999996  0.68276  1.0000
  O   O16       1.0  0.65326  0.1999  0.68278  1.0000
  O   O17       1.0  0.65306  0.45321  0.68276  1.0000
  O   O18       1.0  0.54663  0.34673  0.68277  1.0000
  O   O19       1.0  0.54678  0.34693  0.81724  1.0000
  O   O20       1.0  0.65326  0.45336999999999994  0.81724  1.0000
  O   O21       1.0  0.65306  0.19986  0.81723  1.0000
  O   O22       1.0  0.54666  0.19989  0.81724  1.0000
  O   O23       1.0  0.8001600000000001  0.4531899999999999  0.81724  1.0000
  O   O24       1.0  0.8000999999999999  0.34674  0.81723  1.0000
  O   O25       1.0  0.33332  0.66666  0.25  1.0000
  O   O26       1.0  0.6666900000000001  0.33334  0.75  1.0000
