data_image0
_chemical_formula_structural       Cu8H40C80N24O32
_chemical_formula_sum              "Cu8 H40 C80 N24 O32"
_cell_length_a       10.29326
_cell_length_b       12.494979999999998
_cell_length_c       18.84287
_cell_angle_alpha    107.47839
_cell_angle_beta     93.62522
_cell_angle_gamma    94.70888

_symmetry_space_group_name_H-M    'P 1'
_symmetry_Int_Tables_number       1

loop_
  _symmetry_equiv_pos_as_xyz
  'x,y,z'

loop_
  _atom_site_type_symbol
  _atom_site_label
  _atom_site_symmetry_multiplicity
  _atom_site_fract_x
  _atom_site_fract_y
  _atom_site_fract_z
  _atom_site_occupancy
  Cu  Cu1       1.0  0.11284000000000001  0.48114999999999997  0.22320999999999996  1.0000
  Cu  Cu2       1.0  0.34996000000000005  0.54688  0.29257  1.0000
  Cu  Cu3       1.0  0.5930800000000002  0.19604  0.39908  1.0000
  Cu  Cu4       1.0  0.88954  0.8351399999999999  0.03571  1.0000
  Cu  Cu5       1.0  0.8871600000000002  0.51885  0.77679  1.0000
  Cu  Cu6       1.0  0.65003  0.45311  0.70743  1.0000
  Cu  Cu7       1.0  0.40692  0.80396  0.60092  1.0000
  Cu  Cu8       1.0  0.11046  0.1648499999999999  0.96429  1.0000
  H   H1        1.0  0.009999999999999998  0.27647999999999995  0.58064  1.0000
  H   H2        1.0  0.52015  0.66479  0.9144999999999999  1.0000
  H   H3        1.0  0.20700000000000002  0.18077  0.60596  1.0000
  H   H4        1.0  0.18571000000000001  0.54344  0.00758  1.0000
  H   H5        1.0  0.12521  0.11867999999999997  0.14003999999999997  1.0000
  H   H6        1.0  0.3186300000000001  0.43743999999999994  0.48969999999999997  1.0000
  H   H7        1.0  0.07584000000000002  0.148  0.32556  1.0000
  H   H8        1.0  0.55834  0.64739  0.1387  1.0000
  H   H9        1.0  0.41727  0.8954899999999999  0.059379999999999995  1.0000
  H   H10       1.0  0.44907  0.23057  0.69423  1.0000
  H   H11       1.0  0.9235100000000002  0.38252  0.38759  1.0000
  H   H12       1.0  0.40843000000000007  0.54843  0.80287  1.0000
  H   H13       1.0  0.54347  0.96257  0.2521  1.0000
  H   H14       1.0  0.17738000000000004  0.527  0.7093899999999999  1.0000
  H   H15       1.0  0.76199  0.84802  0.20543  1.0000
  H   H16       1.0  0.9362000000000001  0.79266  0.27086  1.0000
  H   H17       1.0  0.33949000000000007  0.9066600000000002  0.34738  1.0000
  H   H18       1.0  0.5279  0.24613  0.18924  1.0000
  H   H19       1.0  0.7231000000000001  0.21621999999999997  0.18109  1.0000
  H   H20       1.0  0.9369100000000001  0.10282  0.1306  1.0000
  H   H21       1.0  0.98999  0.72351  0.41936  1.0000
  H   H22       1.0  0.47984000000000004  0.33521  0.0855  1.0000
  H   H23       1.0  0.793  0.81923  0.39404  1.0000
  H   H24       1.0  0.8142900000000001  0.45656  0.99242  1.0000
  H   H25       1.0  0.8747800000000001  0.88131  0.85996  1.0000
  H   H26       1.0  0.6813699999999999  0.56256  0.5103  1.0000
  H   H27       1.0  0.9241600000000002  0.85199  0.67444  1.0000
  H   H28       1.0  0.44165000000000004  0.3526  0.8613  1.0000
  H   H29       1.0  0.58273  0.10450999999999991  0.9406199999999999  1.0000
  H   H30       1.0  0.55092  0.76943  0.30577  1.0000
  H   H31       1.0  0.07649  0.61748  0.61241  1.0000
  H   H32       1.0  0.59156  0.45156  0.19713  1.0000
  H   H33       1.0  0.45653000000000005  0.03742000000000008  0.7479  1.0000
  H   H34       1.0  0.82262  0.47299  0.29061  1.0000
  H   H35       1.0  0.23800000000000002  0.15197999999999995  0.79457  1.0000
  H   H36       1.0  0.0638  0.20733  0.72914  1.0000
  H   H37       1.0  0.66051  0.09333  0.65262  1.0000
  H   H38       1.0  0.47209  0.75386  0.81076  1.0000
  H   H39       1.0  0.27689  0.78378  0.81891  1.0000
  H   H40       1.0  0.06307999999999998  0.89717  0.8694  1.0000
  C   C1        1.0  0.04248999999999999  0.31527  0.53937  1.0000
  C   C2        1.0  0.47621000000000013  0.64454  0.96045  1.0000
  C   C3        1.0  0.34501  0.6021  0.95421  1.0000
  C   C4        1.0  0.17349  0.35603  0.54039  1.0000
  C   C5        1.0  0.28036  0.25282  0.62078  1.0000
  C   C6        1.0  0.16671  0.46448  0.37341  1.0000
  C   C7        1.0  0.55301  0.66108  0.02765  1.0000
  C   C8        1.0  0.28796  0.57703  0.013489999999999999  1.0000
  C   C9        1.0  0.22679  0.10351  0.13593  1.0000
  C   C10       1.0  0.8116300000000001  0.27789  0.47607  1.0000
  C   C11       1.0  0.21611000000000002  0.40773  0.48851  1.0000
  C   C12       1.0  0.9516700000000001  0.32577000000000006  0.48378  1.0000
  C   C13       1.0  0.09349000000000002  0.061380000000000004  0.32041  1.0000
  C   C14       1.0  0.9917800000000001  0.97341  0.29862  1.0000
  C   C15       1.0  0.49780000000000013  0.63565  0.08707  1.0000
  C   C16       1.0  0.39114000000000004  0.9780700000000002  0.09051  1.0000
  C   C17       1.0  0.31321000000000004  0.56045  0.14353  1.0000
  C   C18       1.0  0.33394  0.12684999999999996  0.35803999999999997  1.0000
  C   C19       1.0  0.3991700000000001  0.27767  0.66325  1.0000
  C   C20       1.0  0.9937  0.37626  0.43118  1.0000
  C   C21       1.0  0.12482000000000003  0.41724  0.43343  1.0000
  C   C22       1.0  0.22011  0.03627  0.33693  1.0000
  C   C23       1.0  0.3076300000000001  0.55818  0.81474  1.0000
  C   C24       1.0  0.64681  0.98526  0.26982  1.0000
  C   C25       1.0  0.19361  0.54611  0.76938  1.0000
  C   C26       1.0  0.69257  0.7080599999999999  0.03789  1.0000
  C   C27       1.0  0.1696  0.71821  0.29606  1.0000
  C   C28       1.0  0.48667000000000005  0.0691  0.12284  1.0000
  C   C29       1.0  0.7533600000000003  0.92772  0.24778000000000003  1.0000
  C   C30       1.0  0.14119999999999996  0.8376399999999999  0.30651  1.0000
  C   C31       1.0  0.014579999999999992  0.86151  0.28955  1.0000
  C   C32       1.0  0.24246000000000006  0.92529  0.33192  1.0000
  C   C33       1.0  0.36585000000000006  0.59343  0.08  1.0000
  C   C34       1.0  0.32288  0.19334  0.16746  1.0000
  C   C35       1.0  0.15223000000000003  0.9030400000000001  0.06373  1.0000
  C   C36       1.0  0.2858400000000001  0.30968  0.20248  1.0000
  C   C37       1.0  0.25993  0.99591  0.09858  1.0000
  C   C38       1.0  0.45437000000000005  0.17552  0.16273  1.0000
  C   C39       1.0  0.7284100000000001  0.13136  0.14525  1.0000
  C   C40       1.0  0.8336300000000001  0.07511  0.1201  1.0000
  C   C41       1.0  0.9575100000000001  0.68473  0.46062999999999993  1.0000
  C   C42       1.0  0.52378  0.35545  0.03955  1.0000
  C   C43       1.0  0.6549800000000001  0.3979  0.04579  1.0000
  C   C44       1.0  0.82651  0.64396  0.45960999999999996  1.0000
  C   C45       1.0  0.71963  0.74718  0.37922  1.0000
  C   C46       1.0  0.83328  0.53552  0.62659  1.0000
  C   C47       1.0  0.44699000000000005  0.33891  0.97235  1.0000
  C   C48       1.0  0.7120300000000004  0.42296  0.98651  1.0000
  C   C49       1.0  0.7732100000000001  0.89648  0.86407  1.0000
  C   C50       1.0  0.18836  0.7221  0.52393  1.0000
  C   C51       1.0  0.7838900000000002  0.5922699999999999  0.51149  1.0000
  C   C52       1.0  0.04832000000000001  0.67423  0.51622  1.0000
  C   C53       1.0  0.9065000000000002  0.93862  0.67959  1.0000
  C   C54       1.0  0.008219999999999998  0.026590000000000006  0.70138  1.0000
  C   C55       1.0  0.50219  0.36434999999999995  0.9129299999999999  1.0000
  C   C56       1.0  0.60885  0.021919999999999957  0.90949  1.0000
  C   C57       1.0  0.6867800000000001  0.43955  0.85647  1.0000
  C   C58       1.0  0.66605  0.87315  0.64196  1.0000
  C   C59       1.0  0.6008200000000001  0.7223300000000001  0.33675  1.0000
  C   C60       1.0  0.006299999999999998  0.62374  0.56882  1.0000
  C   C61       1.0  0.87517  0.58275  0.56657  1.0000
  C   C62       1.0  0.77989  0.96373  0.66307  1.0000
  C   C63       1.0  0.69237  0.44182  0.18526  1.0000
  C   C64       1.0  0.35319000000000006  0.014730000000000016  0.73018  1.0000
  C   C65       1.0  0.80639  0.45388  0.23062  1.0000
  C   C66       1.0  0.30743  0.2919300000000001  0.9621100000000001  1.0000
  C   C67       1.0  0.83039  0.2817799999999999  0.7039399999999999  1.0000
  C   C68       1.0  0.51333  0.93089  0.87716  1.0000
  C   C69       1.0  0.24663  0.07227  0.75222  1.0000
  C   C70       1.0  0.85879  0.16236  0.69349  1.0000
  C   C71       1.0  0.98542  0.13849  0.71045  1.0000
  C   C72       1.0  0.75753  0.0747  0.66808  1.0000
  C   C73       1.0  0.6341500000000001  0.40656000000000003  0.9200000000000002  1.0000
  C   C74       1.0  0.67712  0.8066599999999999  0.83254  1.0000
  C   C75       1.0  0.8477700000000001  0.09695000000000005  0.93627  1.0000
  C   C76       1.0  0.7141600000000001  0.6903199999999999  0.79752  1.0000
  C   C77       1.0  0.7400600000000002  0.004080000000000079  0.9014200000000001  1.0000
  C   C78       1.0  0.5456300000000001  0.8244699999999999  0.83727  1.0000
  C   C79       1.0  0.27159  0.86863  0.85475  1.0000
  C   C80       1.0  0.16636  0.92488  0.8799  1.0000
  N   N1        1.0  0.37744000000000016  0.41896  0.6177  1.0000
  N   N2        1.0  0.09221000000000001  0.56168  0.81388  1.0000
  N   N3        1.0  0.27045  0.34202  0.59361  1.0000
  N   N4        1.0  0.78582  0.9693099999999999  0.07606  1.0000
  N   N5        1.0  0.26769  0.58143  0.88533  1.0000
  N   N6        1.0  0.6923600000000002  0.08534  0.32263  1.0000
  N   N7        1.0  0.8586200000000003  0.99744  0.28971  1.0000
  N   N8        1.0  0.13598999999999997  0.5827899999999999  0.8842899999999999  1.0000
  N   N9        1.0  0.8210400000000001  0.09345  0.33517  1.0000
  N   N10       1.0  0.45467  0.3789  0.65977  1.0000
  N   N11       1.0  0.6567700000000002  0.95602  0.07227  1.0000
  N   N12       1.0  0.6215  0.05487  0.11452  1.0000
  N   N13       1.0  0.6225600000000001  0.58104  0.3823  1.0000
  N   N14       1.0  0.9077800000000001  0.43832  0.18612  1.0000
  N   N15       1.0  0.7295500000000001  0.65798  0.40639  1.0000
  N   N16       1.0  0.21418  0.030689999999999985  0.92394  1.0000
  N   N17       1.0  0.73231  0.41856  0.11466999999999998  1.0000
  N   N18       1.0  0.3076300000000001  0.9146500000000001  0.67737  1.0000
  N   N19       1.0  0.14137  0.0025500000000000136  0.7102899999999999  1.0000
  N   N20       1.0  0.86401  0.41721  0.11571  1.0000
  N   N21       1.0  0.17895000000000005  0.9065500000000001  0.66483  1.0000
  N   N22       1.0  0.54532  0.6211  0.34023  1.0000
  N   N23       1.0  0.34322000000000014  0.04398000000000004  0.92773  1.0000
  N   N24       1.0  0.3785  0.94512  0.88548  1.0000
  O   O1        1.0  0.16676000000000002  0.32452  0.1894  1.0000
  O   O2        1.0  0.73342  0.31093  0.43032  1.0000
  O   O3        1.0  0.7405900000000002  0.73504  0.9824199999999998  1.0000
  O   O4        1.0  0.39717000000000013  0.57654  0.19978  1.0000
  O   O5        1.0  0.07615  0.64173  0.26384  1.0000
  O   O6        1.0  0.07830000000000001  0.45576  0.32085  1.0000
  O   O7        1.0  0.28373000000000004  0.7033300000000001  0.31821  1.0000
  O   O8        1.0  0.28507  0.50756  0.37878  1.0000
  O   O9        1.0  0.03802  0.931  0.08619999999999998  1.0000
  O   O10       1.0  0.44152  0.09387  0.3825  1.0000
  O   O11       1.0  0.19449000000000005  0.51932  0.13685  1.0000
  O   O12       1.0  0.7608100000000002  0.72617  0.09918  1.0000
  O   O13       1.0  0.3257900000000001  0.22171000000000002  0.35082  1.0000
  O   O14       1.0  0.37748000000000004  0.3832  0.24002  1.0000
  O   O15       1.0  0.7727100000000001  0.20662  0.50633  1.0000
  O   O16       1.0  0.16905  0.8123  0.01733  1.0000
  O   O17       1.0  0.8332300000000001  0.67547  0.8106  1.0000
  O   O18       1.0  0.26658000000000004  0.68907  0.56968  1.0000
  O   O19       1.0  0.2594  0.26495  0.01759  1.0000
  O   O20       1.0  0.6028200000000002  0.42346  0.80022  1.0000
  O   O21       1.0  0.92385  0.35826  0.73616  1.0000
  O   O22       1.0  0.92169  0.54424  0.67915  1.0000
  O   O23       1.0  0.71626  0.29666  0.68179  1.0000
  O   O24       1.0  0.7149200000000001  0.49243  0.62122  1.0000
  O   O25       1.0  0.96197  0.06900000000000008  0.9138  1.0000
  O   O26       1.0  0.5584800000000001  0.90612  0.6175  1.0000
  O   O27       1.0  0.8055  0.48068  0.86315  1.0000
  O   O28       1.0  0.23919000000000007  0.2738100000000001  0.90082  1.0000
  O   O29       1.0  0.67421  0.77829  0.64918  1.0000
  O   O30       1.0  0.62252  0.61679  0.7599799999999999  1.0000
  O   O31       1.0  0.22728  0.79337  0.49366999999999994  1.0000
  O   O32       1.0  0.83094  0.18768999999999994  0.98267  1.0000
