data_image0
_chemical_formula_structural       Gd4Ni6H48C48O60
_chemical_formula_sum              "Gd4 Ni6 H48 C48 O60"
_cell_length_a       13.89157
_cell_length_b       13.90227
_cell_length_c       15.74574
_cell_angle_alpha    90.05885
_cell_angle_beta     89.99244
_cell_angle_gamma    120.03642

_symmetry_space_group_name_H-M    'P 1'
_symmetry_Int_Tables_number       1

loop_
  _symmetry_equiv_pos_as_xyz
  'x,y,z'

loop_
  _atom_site_type_symbol
  _atom_site_label
  _atom_site_symmetry_multiplicity
  _atom_site_fract_x
  _atom_site_fract_y
  _atom_site_fract_z
  _atom_site_occupancy
  Gd  Gd1       1.0  0.33382  0.66879  0.74832  1.0000
  Gd  Gd2       1.0  0.6668899999999999  0.33301  0.7495200000000002  1.0000
  Gd  Gd3       1.0  0.6672599999999999  0.33329  0.25059  1.0000
  Gd  Gd4       1.0  0.3344  0.66595  0.25175  1.0000
  Ni  Ni1       1.0  0.0013700000000000016  0.50122  0.00019000000000000006  1.0000
  Ni  Ni2       1.0  0.4993899999999999  0.99778  0.9999600000000001  1.0000
  Ni  Ni3       1.0  0.50149  0.50356  0.9997000000000001  1.0000
  Ni  Ni4       1.0  0.50043  0.49901  0.50015  1.0000
  Ni  Ni5       1.0  0.50068  0.00244  0.4988300000000001  1.0000
  Ni  Ni6       1.0  0.9980099999999998  0.49883  0.50118  1.0000
  H   H1        1.0  0.18452000000000002  0.36068000000000006  0.8562800000000003  1.0000
  H   H2        1.0  0.07317999999999997  0.33154  0.7841200000000003  1.0000
  H   H3        1.0  0.17398000000000008  0.8167900000000001  0.8561400000000002  1.0000
  H   H4        1.0  0.25691  0.92846  0.7843100000000002  1.0000
  H   H5        1.0  0.64579  0.82757  0.85437  1.0000
  H   H6        1.0  0.66918  0.74289  0.7805700000000002  1.0000
  H   H7        1.0  0.8141699999999998  0.63982  0.8568100000000002  1.0000
  H   H8        1.0  0.92647  0.67075  0.7852400000000003  1.0000
  H   H9        1.0  0.82561  0.18482  0.8566100000000002  1.0000
  H   H10       1.0  0.7443299999999999  0.07321  0.7842600000000002  1.0000
  H   H11       1.0  0.36021  0.17713  0.8566300000000002  1.0000
  H   H12       1.0  0.33235  0.26034  0.78443  1.0000
  H   H13       1.0  0.82458  0.64681  0.6449300000000002  1.0000
  H   H14       1.0  0.73868  0.66678  0.7200100000000003  1.0000
  H   H15       1.0  0.35381  0.17989  0.6451900000000003  1.0000
  H   H16       1.0  0.33317  0.07347  0.7197700000000002  1.0000
  H   H17       1.0  0.8198200000000001  0.17345  0.6450100000000002  1.0000
  H   H18       1.0  0.92733  0.26034  0.7187600000000002  1.0000
  H   H19       1.0  0.17519  0.35456  0.6448100000000001  1.0000
  H   H20       1.0  0.2604  0.33373  0.7195600000000002  1.0000
  H   H21       1.0  0.6442399999999999  0.8193600000000001  0.6428600000000002  1.0000
  H   H22       1.0  0.67035  0.92968  0.7151700000000002  1.0000
  H   H23       1.0  0.17652999999999994  0.82447  0.6439  1.0000
  H   H24       1.0  0.07079999999999996  0.74003  0.7193300000000002  1.0000
  H   H25       1.0  0.81434  0.63932  0.1431  1.0000
  H   H26       1.0  0.9271  0.67099  0.21449  1.0000
  H   H27       1.0  0.82577  0.18530000000000005  0.14324000000000006  1.0000
  H   H28       1.0  0.74366  0.07264  0.21437000000000006  1.0000
  H   H29       1.0  0.35974  0.17764000000000002  0.14264000000000004  1.0000
  H   H30       1.0  0.33280999999999994  0.26135  0.21483000000000005  1.0000
  H   H31       1.0  0.18349  0.35658  0.14432000000000006  1.0000
  H   H32       1.0  0.07236999999999996  0.32956  0.21626000000000006  1.0000
  H   H33       1.0  0.1756  0.81534  0.14449000000000006  1.0000
  H   H34       1.0  0.2597499999999999  0.92533  0.21763000000000005  1.0000
  H   H35       1.0  0.64402  0.8265800000000001  0.14412000000000005  1.0000
  H   H36       1.0  0.67268  0.74379  0.21591000000000005  1.0000
  H   H37       1.0  0.17416000000000006  0.3532600000000001  0.3559500000000001  1.0000
  H   H38       1.0  0.26025  0.33127000000000006  0.28244000000000014  1.0000
  H   H39       1.0  0.6482899999999999  0.8245700000000002  0.35688  1.0000
  H   H40       1.0  0.67  0.9298700000000001  0.2810200000000001  1.0000
  H   H41       1.0  0.1807100000000001  0.8232  0.35652  1.0000
  H   H42       1.0  0.07210999999999995  0.73821  0.28292  1.0000
  H   H43       1.0  0.82487  0.64862  0.3549000000000001  1.0000
  H   H44       1.0  0.73744  0.66618  0.28016  1.0000
  H   H45       1.0  0.35342  0.18054  0.35389  1.0000
  H   H46       1.0  0.33274  0.07352000000000002  0.27972000000000014  1.0000
  H   H47       1.0  0.82033  0.17387000000000002  0.35593000000000014  1.0000
  H   H48       1.0  0.9272399999999998  0.25954  0.2816900000000001  1.0000
  C   C1        1.0  0.12454000000000008  0.4757900000000001  0.8632600000000002  1.0000
  C   C2        1.0  0.15006  0.39808  0.8127900000000002  1.0000
  C   C3        1.0  0.34905  0.87636  0.8634100000000002  1.0000
  C   C4        1.0  0.2459899999999999  0.85137  0.8127400000000002  1.0000
  C   C5        1.0  0.52717  0.6530900000000001  0.8628100000000002  1.0000
  C   C6        1.0  0.6051200000000001  0.7554000000000001  0.8112800000000002  1.0000
  C   C7        1.0  0.8766  0.5265  0.8637100000000002  1.0000
  C   C8        1.0  0.84984  0.60348  0.8134300000000002  1.0000
  C   C9        1.0  0.6494200000000001  0.12257  0.8634900000000002  1.0000
  C   C10       1.0  0.75345  0.14937  0.8132800000000002  1.0000
  C   C11       1.0  0.47656  0.3525  0.86369  1.0000
  C   C12       1.0  0.39816  0.24906  0.8132500000000003  1.0000
  C   C13       1.0  0.6507  0.5269  0.63589  1.0000
  C   C14       1.0  0.75266  0.60444  0.68799  1.0000
  C   C15       1.0  0.47302  0.12481000000000002  0.6356  1.0000
  C   C16       1.0  0.39582999999999996  0.14961  0.6878500000000002  1.0000
  C   C17       1.0  0.87431  0.34744  0.6354400000000002  1.0000
  C   C18       1.0  0.85038  0.24596000000000004  0.6875700000000002  1.0000
  C   C19       1.0  0.34924  0.47378000000000003  0.6356800000000002  1.0000
  C   C20       1.0  0.24725000000000003  0.3966300000000001  0.6877600000000003  1.0000
  C   C21       1.0  0.5274  0.87806  0.63462  1.0000
  C   C22       1.0  0.60507  0.85272  0.68566  1.0000
  C   C23       1.0  0.12224999999999998  0.65035  0.63664  1.0000
  C   C24       1.0  0.14695000000000005  0.7532  0.6875600000000002  1.0000
  C   C25       1.0  0.87659  0.52606  0.13662  1.0000
  C   C26       1.0  0.85013  0.60345  0.18676000000000006  1.0000
  C   C27       1.0  0.64979  0.12343  0.13635000000000005  1.0000
  C   C28       1.0  0.75364  0.14969  0.18657000000000007  1.0000
  C   C29       1.0  0.47707  0.35273  0.13594  1.0000
  C   C30       1.0  0.39833  0.24951000000000004  0.18614000000000006  1.0000
  C   C31       1.0  0.12496  0.47324  0.13641  1.0000
  C   C32       1.0  0.14957000000000004  0.39507  0.18729000000000007  1.0000
  C   C33       1.0  0.35049  0.87363  0.13686000000000006  1.0000
  C   C34       1.0  0.24753  0.84835  0.18792000000000006  1.0000
  C   C35       1.0  0.52804  0.65168  0.13683000000000006  1.0000
  C   C36       1.0  0.60632  0.7546500000000002  0.18755  1.0000
  C   C37       1.0  0.34861  0.4724  0.36493  1.0000
  C   C38       1.0  0.24649999999999997  0.39446  0.3131600000000001  1.0000
  C   C39       1.0  0.52822  0.87822  0.3634400000000001  1.0000
  C   C40       1.0  0.60674  0.85379  0.3127  1.0000
  C   C41       1.0  0.12365999999999995  0.64882  0.36514000000000013  1.0000
  C   C42       1.0  0.14887999999999993  0.75107  0.3134500000000001  1.0000
  C   C43       1.0  0.65152  0.527  0.3645600000000001  1.0000
  C   C44       1.0  0.7527899999999997  0.60484  0.31218  1.0000
  C   C45       1.0  0.47243000000000007  0.12514  0.36397  1.0000
  C   C46       1.0  0.39546  0.14994  0.3114600000000001  1.0000
  C   C47       1.0  0.87502  0.3481000000000001  0.3647100000000001  1.0000
  C   C48       1.0  0.85065  0.24590000000000004  0.31302000000000013  1.0000
  O   O1        1.0  0.04312000000000002  0.42525  0.9141800000000002  1.0000
  O   O2        1.0  0.18427999999999997  0.57943  0.8528200000000002  1.0000
  O   O3        1.0  0.38105  0.95794  0.9142600000000002  1.0000
  O   O4        1.0  0.39226  0.81597  0.8531700000000002  1.0000
  O   O5        1.0  0.5773199999999999  0.62205  0.9139200000000002  1.0000
  O   O6        1.0  0.42344  0.60951  0.8528400000000003  1.0000
  O   O7        1.0  0.95837  0.5771300000000001  0.9143300000000002  1.0000
  O   O8        1.0  0.81736  0.4227600000000001  0.85314  1.0000
  O   O9        1.0  0.61829  0.04111  0.9142300000000002  1.0000
  O   O10       1.0  0.60485  0.18164000000000005  0.85274  1.0000
  O   O11       1.0  0.4268199999999999  0.38502000000000003  0.9139000000000003  1.0000
  O   O12       1.0  0.58026  0.39552  0.8533400000000002  1.0000
  O   O13       1.0  0.61909  0.57691  0.58512  1.0000
  O   O14       1.0  0.60793  0.42326  0.6450300000000002  1.0000
  O   O15       1.0  0.42306  0.04342  0.58461  1.0000
  O   O16       1.0  0.5767999999999999  0.18535  0.64516  1.0000
  O   O17       1.0  0.95573  0.37873  0.58458  1.0000
  O   O18       1.0  0.81387  0.3907  0.6449400000000002  1.0000
  O   O19       1.0  0.38066  0.42342  0.5850600000000002  1.0000
  O   O20       1.0  0.39206  0.57751  0.6449600000000002  1.0000
  O   O21       1.0  0.57759  0.95918  0.58353  1.0000
  O   O22       1.0  0.42368  0.81883  0.6452  1.0000
  O   O23       1.0  0.03805999999999994  0.61577  0.58813  1.0000
  O   O24       1.0  0.18517  0.60962  0.6447100000000002  1.0000
  O   O25       1.0  0.95825  0.57662  0.08597000000000003  1.0000
  O   O26       1.0  0.8174300000000001  0.42234000000000005  0.14700000000000005  1.0000
  O   O27       1.0  0.61845  0.04161  0.08580000000000003  1.0000
  O   O28       1.0  0.6052799999999999  0.1826  0.14700000000000005  1.0000
  O   O29       1.0  0.42745999999999995  0.38515  0.0856  1.0000
  O   O30       1.0  0.58068  0.39561  0.14669  1.0000
  O   O31       1.0  0.04309000000000002  0.42366  0.08569  1.0000
  O   O32       1.0  0.18579999999999997  0.57677  0.14685  1.0000
  O   O33       1.0  0.38086  0.95461  0.08569  1.0000
  O   O34       1.0  0.39517  0.81464  0.14720000000000005  1.0000
  O   O35       1.0  0.57793  0.62027  0.08576000000000003  1.0000
  O   O36       1.0  0.42434  0.608  0.14709000000000005  1.0000
  O   O37       1.0  0.38123000000000007  0.4227800000000001  0.4150600000000001  1.0000
  O   O38       1.0  0.39086  0.57604  0.3556100000000001  1.0000
  O   O39       1.0  0.57777  0.96196  0.4123500000000001  1.0000
  O   O40       1.0  0.42446  0.81531  0.3551200000000001  1.0000
  O   O41       1.0  0.042150000000000076  0.61841  0.41599000000000014  1.0000
  O   O42       1.0  0.18359  0.60509  0.3553000000000001  1.0000
  O   O43       1.0  0.6196  0.57679  0.41531  1.0000
  O   O44       1.0  0.60912  0.42341000000000006  0.3550600000000001  1.0000
  O   O45       1.0  0.422  0.04359  0.4146900000000001  1.0000
  O   O46       1.0  0.57631  0.18561  0.35500000000000004  1.0000
  O   O47       1.0  0.95659  0.37991  0.41553  1.0000
  O   O48       1.0  0.81456  0.39129  0.35478  1.0000
  O   O49       1.0  0.22896  0.46166  0.7487700000000003  1.0000
  O   O50       1.0  0.23058999999999996  0.7725400000000001  0.74857  1.0000
  O   O51       1.0  0.54086  0.7726  0.7489  1.0000
  O   O52       1.0  0.77164  0.53973  0.7488400000000002  1.0000
  O   O53       1.0  0.76797  0.22804  0.7492500000000002  1.0000
  O   O54       1.0  0.46116  0.23284  0.74904  1.0000
  O   O55       1.0  0.77223  0.5402  0.25149  1.0000
  O   O56       1.0  0.7679800000000001  0.22758000000000006  0.2513200000000001  1.0000
  O   O57       1.0  0.46101  0.23282  0.25033  1.0000
  O   O58       1.0  0.22906999999999997  0.45874  0.25111  1.0000
  O   O59       1.0  0.23060000000000005  0.76804  0.2512  1.0000
  O   O60       1.0  0.54273  0.7699600000000001  0.2516400000000001  1.0000
