data_image0
_chemical_formula_structural       Zn8Si4H64C112O32
_chemical_formula_sum              "Zn8 Si4 H64 C112 O32"
_cell_length_a       13.27704
_cell_length_b       13.35112
_cell_length_c       23.10041
_cell_angle_alpha    89.91133999999998
_cell_angle_beta     90.0
_cell_angle_gamma    90.0

_symmetry_space_group_name_H-M    'P 1'
_symmetry_Int_Tables_number       1

loop_
  _symmetry_equiv_pos_as_xyz
  'x,y,z'

loop_
  _atom_site_type_symbol
  _atom_site_label
  _atom_site_symmetry_multiplicity
  _atom_site_fract_x
  _atom_site_fract_y
  _atom_site_fract_z
  _atom_site_occupancy
  Zn  Zn1       1.0  0.26996  0.75  0.7500000000000001  1.0000
  Zn  Zn2       1.0  0.23020999999999997  0.25  0.7500000000000001  1.0000
  Zn  Zn3       1.0  0.73004  0.25  0.25  1.0000
  Zn  Zn4       1.0  0.76979  0.75  0.25  1.0000
  Zn  Zn5       1.0  0.7498000000000001  0.0016900000000000007  0.29564  1.0000
  Zn  Zn6       1.0  0.7498000000000001  0.4983100000000001  0.20436000000000004  1.0000
  Zn  Zn7       1.0  0.2502  0.99831  0.7043599999999999  1.0000
  Zn  Zn8       1.0  0.2502  0.50169  0.79564  1.0000
  Si  Si1       1.0  0.75048  0.4999200000000001  0.53929  1.0000
  Si  Si2       1.0  0.75048  8.000000000000018e-05  0.96071  1.0000
  Si  Si3       1.0  0.24952  0.50008  0.46071  1.0000
  Si  Si4       1.0  0.24952  0.99992  0.03929  1.0000
  H   H1        1.0  0.61233  0.31487000000000004  0.52637  1.0000
  H   H2        1.0  0.6106600000000001  0.17744000000000001  0.45351  1.0000
  H   H3        1.0  0.86438  0.31035  0.36709  1.0000
  H   H4        1.0  0.87062  0.4444700000000001  0.44051  1.0000
  H   H5        1.0  0.6437300000000001  0.36904000000000003  0.62671  1.0000
  H   H6        1.0  0.50029  0.39921  0.69356  1.0000
  H   H7        1.0  0.46959000000000006  0.6980600000000001  0.62748  1.0000
  H   H8        1.0  0.60973  0.66821  0.55849  1.0000
  H   H9        1.0  0.88851  0.6853600000000001  0.52586  1.0000
  H   H10       1.0  0.88819  0.82391  0.45349000000000006  1.0000
  H   H11       1.0  0.63514  0.68983  0.36727000000000004  1.0000
  H   H12       1.0  0.63057  0.5548500000000001  0.44043  1.0000
  H   H13       1.0  0.85676  0.6309600000000002  0.62638  1.0000
  H   H14       1.0  0.00020999999999999998  0.60069  0.6935399999999999  1.0000
  H   H15       1.0  0.03185  0.30228  0.62774  1.0000
  H   H16       1.0  0.8916  0.33173000000000014  0.55864  1.0000
  H   H17       1.0  0.88851  0.8146400000000003  0.97413  1.0000
  H   H18       1.0  0.88819  0.67609  0.04651  1.0000
  H   H19       1.0  0.63514  0.81018  0.13272  1.0000
  H   H20       1.0  0.63057  0.9451500000000002  0.05957  1.0000
  H   H21       1.0  0.85676  0.8690400000000003  0.8736100000000001  1.0000
  H   H22       1.0  0.00020999999999999998  0.89931  0.80645  1.0000
  H   H23       1.0  0.03185  0.19772000000000006  0.87225  1.0000
  H   H24       1.0  0.8916  0.16827  0.9413500000000001  1.0000
  H   H25       1.0  0.61233  0.18513  0.97363  1.0000
  H   H26       1.0  0.6106600000000001  0.3225600000000001  0.04649  1.0000
  H   H27       1.0  0.86438  0.18965000000000007  0.13291  1.0000
  H   H28       1.0  0.87062  0.05553  0.05949000000000001  1.0000
  H   H29       1.0  0.6437300000000001  0.13096  0.87329  1.0000
  H   H30       1.0  0.50029  0.10079  0.80643  1.0000
  H   H31       1.0  0.46959000000000006  0.8019400000000002  0.87251  1.0000
  H   H32       1.0  0.60973  0.83179  0.94151  1.0000
  H   H33       1.0  0.38767  0.6851300000000002  0.47363  1.0000
  H   H34       1.0  0.38934  0.82257  0.54649  1.0000
  H   H35       1.0  0.13562  0.68965  0.6329  1.0000
  H   H36       1.0  0.12939  0.55553  0.55949  1.0000
  H   H37       1.0  0.35627  0.6309600000000002  0.37329000000000007  1.0000
  H   H38       1.0  0.49971000000000004  0.60079  0.30644  1.0000
  H   H39       1.0  0.53041  0.3019400000000001  0.37252  1.0000
  H   H40       1.0  0.39027  0.33179000000000003  0.44151  1.0000
  H   H41       1.0  0.1115  0.31464  0.47414000000000006  1.0000
  H   H42       1.0  0.11182  0.17609  0.54651  1.0000
  H   H43       1.0  0.36486  0.31018  0.63272  1.0000
  H   H44       1.0  0.36943  0.44515  0.55957  1.0000
  H   H45       1.0  0.14324  0.36904000000000003  0.37361  1.0000
  H   H46       1.0  0.99979  0.3993100000000001  0.30646  1.0000
  H   H47       1.0  0.96815  0.6977200000000002  0.3722500000000001  1.0000
  H   H48       1.0  0.1084  0.66827  0.44135  1.0000
  H   H49       1.0  0.1115  0.18536000000000005  0.025860000000000005  1.0000
  H   H50       1.0  0.11182  0.32391  0.95348  1.0000
  H   H51       1.0  0.36486  0.18982  0.86727  1.0000
  H   H52       1.0  0.36943  0.05485000000000002  0.9404200000000001  1.0000
  H   H53       1.0  0.14324  0.13096  0.12639  1.0000
  H   H54       1.0  0.99979  0.10069000000000003  0.19354000000000002  1.0000
  H   H55       1.0  0.96815  0.80228  0.12774  1.0000
  H   H56       1.0  0.1084  0.83173  0.05864  1.0000
  H   H57       1.0  0.38767  0.8148700000000002  0.02637  1.0000
  H   H58       1.0  0.38934  0.67744  0.9535100000000001  1.0000
  H   H59       1.0  0.13562  0.8103500000000002  0.8670900000000001  1.0000
  H   H60       1.0  0.12939  0.94447  0.94051  1.0000
  H   H61       1.0  0.35627  0.8690400000000003  0.12671  1.0000
  H   H62       1.0  0.49971000000000004  0.89921  0.19356  1.0000
  H   H63       1.0  0.53041  0.19806000000000004  0.12748  1.0000
  H   H64       1.0  0.39027  0.16821000000000005  0.05849  1.0000
  C   C1        1.0  0.74207  0.38942000000000004  0.48929000000000006  1.0000
  C   C2        1.0  0.66909  0.3133300000000001  0.49236  1.0000
  C   C3        1.0  0.6669199999999998  0.23656  0.45139  1.0000
  C   C4        1.0  0.73643  0.23630000000000007  0.40563  1.0000
  C   C5        1.0  0.81035  0.31122000000000005  0.40243  1.0000
  C   C6        1.0  0.81337  0.3862700000000001  0.44403  1.0000
  C   C7        1.0  0.73131  0.15797000000000003  0.36050000000000004  1.0000
  C   C8        1.0  0.63694  0.51617  0.58686  1.0000
  C   C9        1.0  0.60482  0.4408400000000001  0.62559  1.0000
  C   C10       1.0  0.52479  0.45724000000000004  0.66358  1.0000
  C   C11       1.0  0.47586  0.55054  0.66431  1.0000
  C   C12       1.0  0.50748  0.62606  0.62629  1.0000
  C   C13       1.0  0.58635  0.60874  0.58781  1.0000
  C   C14       1.0  0.3919  0.57138  0.7058100000000002  1.0000
  C   C15       1.0  0.7589200000000002  0.6103600000000002  0.4890700000000001  1.0000
  C   C16       1.0  0.8314  0.6869000000000002  0.49205  1.0000
  C   C17       1.0  0.8325  0.76427  0.45131  1.0000
  C   C18       1.0  0.76262  0.76459  0.40575  1.0000
  C   C19       1.0  0.68952  0.6889300000000003  0.40245000000000003  1.0000
  C   C20       1.0  0.68742  0.6134100000000002  0.44392  1.0000
  C   C21       1.0  0.7661899999999999  0.8440400000000002  0.36105  1.0000
  C   C22       1.0  0.86391  0.48379  0.58689  1.0000
  C   C23       1.0  0.89585  0.55923  0.62547  1.0000
  C   C24       1.0  0.9758200000000001  0.5428400000000001  0.66353  1.0000
  C   C25       1.0  0.02486  0.44966  0.66437  1.0000
  C   C26       1.0  0.99361  0.3741000000000001  0.6264  1.0000
  C   C27       1.0  0.9147299999999999  0.3913100000000001  0.58788  1.0000
  C   C28       1.0  0.10872  0.42895  0.7059300000000001  1.0000
  C   C29       1.0  0.7589200000000002  0.8896400000000002  0.01093  1.0000
  C   C30       1.0  0.8314  0.8131100000000001  0.00795  1.0000
  C   C31       1.0  0.8325  0.73573  0.04868  1.0000
  C   C32       1.0  0.76262  0.73541  0.09425000000000001  1.0000
  C   C33       1.0  0.68952  0.81108  0.09755  1.0000
  C   C34       1.0  0.68742  0.8866  0.05608  1.0000
  C   C35       1.0  0.7661899999999999  0.6559600000000001  0.13895  1.0000
  C   C36       1.0  0.86391  0.01621  0.9131100000000001  1.0000
  C   C37       1.0  0.89585  0.94077  0.8745300000000001  1.0000
  C   C38       1.0  0.9758200000000001  0.9571600000000002  0.83647  1.0000
  C   C39       1.0  0.02486  0.05034000000000001  0.83563  1.0000
  C   C40       1.0  0.99361  0.12590000000000004  0.87359  1.0000
  C   C41       1.0  0.9147299999999999  0.10869000000000002  0.91211  1.0000
  C   C42       1.0  0.10872  0.07105  0.79406  1.0000
  C   C43       1.0  0.74207  0.11058000000000003  0.01071  1.0000
  C   C44       1.0  0.66909  0.18667  0.00764  1.0000
  C   C45       1.0  0.6669199999999998  0.26344000000000006  0.04861000000000001  1.0000
  C   C46       1.0  0.73643  0.26371000000000006  0.09437  1.0000
  C   C47       1.0  0.81035  0.18878000000000006  0.09757  1.0000
  C   C48       1.0  0.81337  0.11373000000000003  0.055970000000000006  1.0000
  C   C49       1.0  0.73131  0.3420300000000001  0.13949  1.0000
  C   C50       1.0  0.63694  0.9838300000000001  0.9131300000000001  1.0000
  C   C51       1.0  0.60482  0.05916  0.87441  1.0000
  C   C52       1.0  0.52479  0.04276000000000001  0.83641  1.0000
  C   C53       1.0  0.47586  0.9494700000000003  0.8356800000000001  1.0000
  C   C54       1.0  0.50748  0.87394  0.8737000000000001  1.0000
  C   C55       1.0  0.58635  0.89127  0.91219  1.0000
  C   C56       1.0  0.3919  0.9286200000000002  0.79419  1.0000
  C   C57       1.0  0.25794  0.6105800000000002  0.51071  1.0000
  C   C58       1.0  0.33091  0.68667  0.50764  1.0000
  C   C59       1.0  0.33308  0.7634400000000001  0.5486  1.0000
  C   C60       1.0  0.26357  0.7637100000000001  0.59437  1.0000
  C   C61       1.0  0.18965  0.6887800000000002  0.59757  1.0000
  C   C62       1.0  0.18664  0.61373  0.55597  1.0000
  C   C63       1.0  0.2687  0.84203  0.63949  1.0000
  C   C64       1.0  0.36306  0.4838300000000001  0.41314  1.0000
  C   C65       1.0  0.39518  0.5591700000000001  0.3744100000000001  1.0000
  C   C66       1.0  0.47521  0.54276  0.33642  1.0000
  C   C67       1.0  0.52414  0.44947  0.33568  1.0000
  C   C68       1.0  0.49253  0.3739400000000001  0.3737  1.0000
  C   C69       1.0  0.41366  0.39127000000000006  0.41219000000000006  1.0000
  C   C70       1.0  0.60811  0.4286200000000001  0.29419  1.0000
  C   C71       1.0  0.24108  0.38964  0.51093  1.0000
  C   C72       1.0  0.16861  0.31311  0.50794  1.0000
  C   C73       1.0  0.16751  0.23573  0.54868  1.0000
  C   C74       1.0  0.23739  0.23541000000000006  0.59425  1.0000
  C   C75       1.0  0.31049  0.31108000000000013  0.59755  1.0000
  C   C76       1.0  0.31259  0.38659  0.55607  1.0000
  C   C77       1.0  0.23382  0.15596000000000002  0.63895  1.0000
  C   C78       1.0  0.13609  0.51622  0.41311  1.0000
  C   C79       1.0  0.10415  0.4407700000000001  0.37453000000000003  1.0000
  C   C80       1.0  0.02418  0.45716  0.33647  1.0000
  C   C81       1.0  0.97514  0.55035  0.33563  1.0000
  C   C82       1.0  0.00639  0.6259  0.37359  1.0000
  C   C83       1.0  0.08528  0.6087000000000002  0.41211000000000003  1.0000
  C   C84       1.0  0.89128  0.5710500000000001  0.29406  1.0000
  C   C85       1.0  0.24108  0.11036000000000003  0.98907  1.0000
  C   C86       1.0  0.16861  0.18690000000000007  0.99205  1.0000
  C   C87       1.0  0.16751  0.26427000000000006  0.9513100000000001  1.0000
  C   C88       1.0  0.23739  0.26459  0.90574  1.0000
  C   C89       1.0  0.31049  0.18892  0.9024500000000001  1.0000
  C   C90       1.0  0.31259  0.11341  0.94392  1.0000
  C   C91       1.0  0.23382  0.3440400000000001  0.86105  1.0000
  C   C92       1.0  0.13609  0.9837900000000003  0.08689  1.0000
  C   C93       1.0  0.10415  0.059230000000000005  0.12547  1.0000
  C   C94       1.0  0.02418  0.04284000000000002  0.16353  1.0000
  C   C95       1.0  0.97514  0.9496600000000002  0.16437  1.0000
  C   C96       1.0  0.00639  0.8741  0.12641  1.0000
  C   C97       1.0  0.08528  0.89131  0.08788000000000001  1.0000
  C   C98       1.0  0.89128  0.9289500000000002  0.20594  1.0000
  C   C99       1.0  0.25794  0.8894200000000002  0.9892800000000002  1.0000
  C   C100      1.0  0.33091  0.81334  0.99235  1.0000
  C   C101      1.0  0.33308  0.7365600000000002  0.95139  1.0000
  C   C102      1.0  0.26357  0.7363000000000002  0.90563  1.0000
  C   C103      1.0  0.18965  0.8112200000000003  0.9024300000000001  1.0000
  C   C104      1.0  0.18664  0.88627  0.9440300000000001  1.0000
  C   C105      1.0  0.2687  0.65797  0.8605000000000002  1.0000
  C   C106      1.0  0.36306  0.016170000000000004  0.08685999999999999  1.0000
  C   C107      1.0  0.39518  0.9408400000000002  0.12559  1.0000
  C   C108      1.0  0.47521  0.95724  0.16358  1.0000
  C   C109      1.0  0.52414  0.050540000000000015  0.16431  1.0000
  C   C110      1.0  0.49253  0.12606  0.1263  1.0000
  C   C111      1.0  0.41366  0.10874  0.08781  1.0000
  C   C112      1.0  0.60811  0.07138  0.20581  1.0000
  O   O1        1.0  0.78833  0.16727000000000006  0.31377  1.0000
  O   O2        1.0  0.6770500000000002  0.08139000000000003  0.36600000000000005  1.0000
  O   O3        1.0  0.35423  0.65979  0.7035200000000001  1.0000
  O   O4        1.0  0.36469  0.50069  0.7393500000000001  1.0000
  O   O5        1.0  0.7121500000000001  0.83324  0.31348  1.0000
  O   O6        1.0  0.81658  0.92297  0.36821  1.0000
  O   O7        1.0  0.14585  0.3404200000000001  0.70402  1.0000
  O   O8        1.0  0.13595  0.49977000000000005  0.73927  1.0000
  O   O9        1.0  0.7121500000000001  0.66677  0.18652  1.0000
  O   O10       1.0  0.81658  0.57703  0.13179  1.0000
  O   O11       1.0  0.14585  0.15958000000000003  0.79597  1.0000
  O   O12       1.0  0.13595  0.00023000000000000012  0.76073  1.0000
  O   O13       1.0  0.78833  0.33273  0.18622  1.0000
  O   O14       1.0  0.6770500000000002  0.4186100000000001  0.134  1.0000
  O   O15       1.0  0.35423  0.84021  0.79648  1.0000
  O   O16       1.0  0.36469  0.9993100000000001  0.76065  1.0000
  O   O17       1.0  0.21166999999999997  0.8327300000000002  0.68622  1.0000
  O   O18       1.0  0.32295  0.91861  0.634  1.0000
  O   O19       1.0  0.64577  0.34021000000000007  0.29648  1.0000
  O   O20       1.0  0.63531  0.4993100000000001  0.26065  1.0000
  O   O21       1.0  0.28785  0.16676  0.68652  1.0000
  O   O22       1.0  0.18342  0.07703  0.63179  1.0000
  O   O23       1.0  0.85415  0.65958  0.29597  1.0000
  O   O24       1.0  0.86405  0.5002300000000001  0.26073  1.0000
  O   O25       1.0  0.28785  0.33324000000000004  0.81348  1.0000
  O   O26       1.0  0.18342  0.42297  0.86821  1.0000
  O   O27       1.0  0.85415  0.84043  0.20403  1.0000
  O   O28       1.0  0.86405  0.9997700000000002  0.23927  1.0000
  O   O29       1.0  0.21166999999999997  0.6672700000000003  0.8137700000000001  1.0000
  O   O30       1.0  0.32295  0.58139  0.866  1.0000
  O   O31       1.0  0.64577  0.15979000000000004  0.20352  1.0000
  O   O32       1.0  0.63531  0.0006900000000000001  0.23935  1.0000
