data_image0
_chemical_formula_structural       Zn10H64C112O36
_chemical_formula_sum              "Zn10 H64 C112 O36"
_cell_length_a       13.15152
_cell_length_b       18.61901
_cell_length_c       20.78024
_cell_angle_alpha    83.11891
_cell_angle_beta     71.61004
_cell_angle_gamma    68.20607

_space_group_name_H-M_alt    "P 1"
_space_group_IT_number       1

loop_
  _space_group_symop_operation_xyz
  'x, y, z'

loop_
  _atom_site_type_symbol
  _atom_site_label
  _atom_site_symmetry_multiplicity
  _atom_site_fract_x
  _atom_site_fract_y
  _atom_site_fract_z
  _atom_site_occupancy
  Zn  Zn1       1.0  0.05601000000000006  0.09519000000000002  0.79698  1.0000
  Zn  Zn2       1.0  0.26868000000000003  0.09443000000000003  0.68969  1.0000
  Zn  Zn3       1.0  0.14532999999999996  0.4041300000000001  0.79679  1.0000
  Zn  Zn4       1.0  0.03973999999999993  0.4057800000000001  0.68971  1.0000
  Zn  Zn5       1.0  0.9440000000000001  0.90481  0.20303  1.0000
  Zn  Zn6       1.0  0.7313299999999999  0.90557  0.31031  1.0000
  Zn  Zn7       1.0  0.8546799999999999  0.59587  0.20321  1.0000
  Zn  Zn8       1.0  0.96027  0.59422  0.3103  1.0000
  Zn  Zn9       1.0  0.8934799999999999  0.7500300000000002  0.21666999999999997  1.0000
  Zn  Zn10      1.0  0.10653000000000004  0.24997  0.78333  1.0000
  H   H1        1.0  0.20989000000000005  0.00034999999999999994  0.95538  1.0000
  H   H2        1.0  0.3295100000000001  0.93197  0.0322  1.0000
  H   H3        1.0  0.6285500000000002  0.86202  0.85847  1.0000
  H   H4        1.0  0.5087  0.93448  0.78276  1.0000
  H   H5        1.0  0.4882699999999999  0.9431700000000001  0.06722  1.0000
  H   H6        1.0  0.61237  0.8722000000000002  0.1405  1.0000
  H   H7        1.0  0.7611900000000001  0.67429  0.00917  1.0000
  H   H8        1.0  0.6439499999999997  0.7466700000000002  0.9331  1.0000
  H   H9        1.0  0.9950799999999999  0.91486  0.71059  1.0000
  H   H10       1.0  0.9736999999999999  0.8318100000000003  0.6336800000000001  1.0000
  H   H11       1.0  0.19024999999999995  0.9135600000000003  0.4628  1.0000
  H   H12       1.0  0.21495000000000003  0.9935100000000001  0.5407  1.0000
  H   H13       1.0  0.07670999999999983  0.7208800000000002  0.56677  1.0000
  H   H14       1.0  0.05463000000000004  0.63912  0.48943  1.0000
  H   H15       1.0  0.040010000000000025  0.81906  0.33844  1.0000
  H   H16       1.0  0.05958000000000007  0.90255  0.41599  1.0000
  H   H17       1.0  0.8336200000000001  0.49951000000000007  0.95571  1.0000
  H   H18       1.0  0.6376900000000002  0.56832  0.03182  1.0000
  H   H19       1.0  0.5123499999999998  0.63803  0.85768  1.0000
  H   H20       1.0  0.7074400000000001  0.5651  0.78248  1.0000
  H   H21       1.0  0.4448200000000002  0.55669  0.06669  1.0000
  H   H22       1.0  0.24863999999999992  0.6279800000000002  0.14029  1.0000
  H   H23       1.0  0.23087999999999992  0.8263200000000003  0.0084  1.0000
  H   H24       1.0  0.42294  0.75372  0.93205  1.0000
  H   H25       1.0  0.29311999999999994  0.58486  0.71076  1.0000
  H   H26       1.0  0.3908499999999999  0.6683700000000001  0.63375  1.0000
  H   H27       1.0  0.34677999999999976  0.5861400000000002  0.46268  1.0000
  H   H28       1.0  0.24381000000000003  0.5062  0.54069  1.0000
  H   H29       1.0  0.35706999999999994  0.77861  0.56666  1.0000
  H   H30       1.0  0.45772  0.8602  0.48949  1.0000
  H   H31       1.0  0.62273  0.68089  0.33918  1.0000
  H   H32       1.0  0.52449  0.5973700000000002  0.41634000000000004  1.0000
  H   H33       1.0  0.7901200000000003  0.99965  0.04462  1.0000
  H   H34       1.0  0.6705  0.06803000000000002  0.9678000000000001  1.0000
  H   H35       1.0  0.37146  0.13798  0.14153  1.0000
  H   H36       1.0  0.49131  0.06552000000000002  0.21723999999999996  1.0000
  H   H37       1.0  0.5117400000000002  0.05683  0.93278  1.0000
  H   H38       1.0  0.38764  0.1278  0.8595000000000002  1.0000
  H   H39       1.0  0.23881999999999987  0.3257100000000001  0.9908300000000001  1.0000
  H   H40       1.0  0.3560600000000001  0.25333  0.0669  1.0000
  H   H41       1.0  0.004930000000000022  0.08514  0.28941  1.0000
  H   H42       1.0  0.026300000000000004  0.16819000000000006  0.36632  1.0000
  H   H43       1.0  0.8097499999999999  0.08644  0.5372  1.0000
  H   H44       1.0  0.7850500000000002  0.00649  0.4593  1.0000
  H   H45       1.0  0.9233000000000003  0.27912  0.43323  1.0000
  H   H46       1.0  0.9453799999999999  0.36088  0.51057  1.0000
  H   H47       1.0  0.96  0.18094000000000005  0.6615700000000001  1.0000
  H   H48       1.0  0.9404299999999999  0.09745  0.5840100000000001  1.0000
  H   H49       1.0  0.16639000000000004  0.50049  0.04429  1.0000
  H   H50       1.0  0.36232  0.43168  0.9681900000000001  1.0000
  H   H51       1.0  0.48766000000000004  0.36197  0.14232  1.0000
  H   H52       1.0  0.29256999999999994  0.43491000000000013  0.21753  1.0000
  H   H53       1.0  0.5551900000000001  0.44332  0.93331  1.0000
  H   H54       1.0  0.7513699999999999  0.37202000000000013  0.85971  1.0000
  H   H55       1.0  0.7691300000000001  0.17368000000000006  0.99161  1.0000
  H   H56       1.0  0.57707  0.24628  0.06795  1.0000
  H   H57       1.0  0.70689  0.41514  0.28924  1.0000
  H   H58       1.0  0.60916  0.33163  0.36625  1.0000
  H   H59       1.0  0.6532299999999998  0.4138600000000001  0.53732  1.0000
  H   H60       1.0  0.7562000000000001  0.49380000000000007  0.45932  1.0000
  H   H61       1.0  0.6429400000000002  0.22139000000000006  0.43333999999999995  1.0000
  H   H62       1.0  0.5422900000000003  0.1398  0.51052  1.0000
  H   H63       1.0  0.37728  0.31911  0.66083  1.0000
  H   H64       1.0  0.47552  0.4026300000000001  0.58366  1.0000
  C   C1        1.0  0.28104999999999997  0.01251  0.8187  1.0000
  C   C2        1.0  0.35214999999999996  0.97082  0.86471  1.0000
  C   C3        1.0  0.3017300000000002  0.97045  0.93511  1.0000
  C   C4        1.0  0.36885999999999997  0.93268  0.97765  1.0000
  C   C5        1.0  0.4871599999999999  0.8921100000000002  0.95048  1.0000
  C   C6        1.0  0.5368500000000004  0.8921400000000003  0.87963  1.0000
  C   C7        1.0  0.4705699999999999  0.93224  0.8373000000000002  1.0000
  C   C8        1.0  0.5578599999999999  0.8499000000000002  0.99506  1.0000
  C   C9        1.0  0.54787  0.8843200000000002  0.054639999999999994  1.0000
  C   C10       1.0  0.61716  0.84502  0.09558  1.0000
  C   C11       1.0  0.6936299999999999  0.76889  0.0793  1.0000
  C   C12       1.0  0.70252  0.73344  0.02086  1.0000
  C   C13       1.0  0.63692  0.7741700000000002  0.97844  1.0000
  C   C14       1.0  0.76711  0.72669  0.12361  1.0000
  C   C15       1.0  0.12437999999999996  0.00691  0.67573  1.0000
  C   C16       1.0  0.10680000000000006  0.95883  0.63027  1.0000
  C   C17       1.0  0.03832999999999998  0.9133  0.65642  1.0000
  C   C18       1.0  0.026990000000000198  0.86689  0.6133  1.0000
  C   C19       1.0  0.08076999999999998  0.86658  0.54275  1.0000
  C   C20       1.0  0.147  0.91405  0.51692  1.0000
  C   C21       1.0  0.16141000000000003  0.95849  0.56015  1.0000
  C   C22       1.0  0.06896999999999992  0.8177200000000002  0.49696  1.0000
  C   C23       1.0  0.06674000000000004  0.74304  0.51736  1.0000
  C   C24       1.0  0.05607999999999995  0.69673  0.47398  1.0000
  C   C25       1.0  0.04680999999999999  0.72419  0.40927  1.0000
  C   C26       1.0  0.049100000000000116  0.79847  0.38833  1.0000
  C   C27       1.0  0.060440000000000174  0.84448  0.43165000000000003  1.0000
  C   C28       1.0  0.03314999999999989  0.6758400000000002  0.36289  1.0000
  C   C29       1.0  0.89852  0.48667000000000005  0.81867  1.0000
  C   C30       1.0  0.78192  0.5285300000000002  0.86464  1.0000
  C   C31       1.0  0.7623200000000001  0.52929  0.93502  1.0000
  C   C32       1.0  0.6530000000000004  0.5674300000000002  0.97726  1.0000
  C   C33       1.0  0.5619699999999999  0.60803  0.9498399999999999  1.0000
  C   C34       1.0  0.5828  0.6079000000000002  0.87904  1.0000
  C   C35       1.0  0.6910499999999999  0.5674600000000002  0.8369900000000001  1.0000
  C   C36       1.0  0.4471699999999998  0.6503000000000002  0.99431  1.0000
  C   C37       1.0  0.3980600000000001  0.61567  0.05405  1.0000
  C   C38       1.0  0.28852  0.65507  0.09511  1.0000
  C   C39       1.0  0.22846  0.73137  0.07881  1.0000
  C   C40       1.0  0.27749  0.7670100000000001  0.02015  1.0000
  C   C41       1.0  0.38490999999999964  0.7261700000000002  0.97758  1.0000
  C   C42       1.0  0.11131000000000003  0.7729  0.12365  1.0000
  C   C43       1.0  0.19862999999999997  0.49288000000000004  0.67584  1.0000
  C   C44       1.0  0.26199000000000017  0.54092  0.63033  1.0000
  C   C45       1.0  0.30407000000000006  0.58649  0.65653  1.0000
  C   C46       1.0  0.35845999999999995  0.6330200000000002  0.61335  1.0000
  C   C47       1.0  0.3757600000000002  0.63326  0.54273  1.0000
  C   C48       1.0  0.33560999999999996  0.5857200000000001  0.51686  1.0000
  C   C49       1.0  0.2777300000000001  0.54129  0.56015  1.0000
  C   C50       1.0  0.43389000000000005  0.68207  0.49704  1.0000
  C   C51       1.0  0.41638  0.75655  0.51738  1.0000
  C   C52       1.0  0.47102999999999995  0.80278  0.47413  1.0000
  C   C53       1.0  0.5451299999999999  0.7753200000000002  0.40967  1.0000
  C   C54       1.0  0.56336  0.7012500000000002  0.38887  1.0000
  C   C55       1.0  0.5081000000000001  0.65532  0.43199  1.0000
  C   C56       1.0  0.60602  0.8232200000000001  0.36316  1.0000
  C   C57       1.0  0.71896  0.9874900000000001  0.1813  1.0000
  C   C58       1.0  0.6478600000000002  0.029180000000000005  0.13529  1.0000
  C   C59       1.0  0.6982800000000002  0.029550000000000003  0.06489  1.0000
  C   C60       1.0  0.6311500000000001  0.06732  0.02236  1.0000
  C   C61       1.0  0.51285  0.10789000000000003  0.04952  1.0000
  C   C62       1.0  0.46315  0.10786  0.12037  1.0000
  C   C63       1.0  0.5294400000000001  0.06776000000000003  0.16271000000000002  1.0000
  C   C64       1.0  0.44215  0.1501  0.00494  1.0000
  C   C65       1.0  0.4521400000000001  0.11568000000000005  0.9453600000000001  1.0000
  C   C66       1.0  0.38285000000000013  0.15498  0.90443  1.0000
  C   C67       1.0  0.3063799999999999  0.23112000000000008  0.9207  1.0000
  C   C68       1.0  0.29749000000000003  0.26656000000000013  0.97914  1.0000
  C   C69       1.0  0.36309000000000013  0.22583000000000003  0.02156  1.0000
  C   C70       1.0  0.2328899999999999  0.2733100000000001  0.8763900000000001  1.0000
  C   C71       1.0  0.8756300000000001  0.9930900000000001  0.32427  1.0000
  C   C72       1.0  0.89321  0.04117  0.36974000000000007  1.0000
  C   C73       1.0  0.96168  0.08670000000000003  0.34358  1.0000
  C   C74       1.0  0.9730199999999999  0.13311  0.3867  1.0000
  C   C75       1.0  0.9192400000000001  0.13342000000000007  0.45725000000000005  1.0000
  C   C76       1.0  0.8530100000000003  0.08595  0.48308000000000006  1.0000
  C   C77       1.0  0.8386  0.04151  0.43985  1.0000
  C   C78       1.0  0.93104  0.18228  0.50304  1.0000
  C   C79       1.0  0.93327  0.25696  0.48264000000000007  1.0000
  C   C80       1.0  0.9439300000000002  0.30327  0.52602  1.0000
  C   C81       1.0  0.9532000000000004  0.27581  0.59073  1.0000
  C   C82       1.0  0.95091  0.20153  0.61167  1.0000
  C   C83       1.0  0.93957  0.15552  0.56835  1.0000
  C   C84       1.0  0.9668600000000002  0.32416  0.63712  1.0000
  C   C85       1.0  0.10148999999999994  0.51333  0.18133  1.0000
  C   C86       1.0  0.21809  0.47147000000000006  0.13537000000000002  1.0000
  C   C87       1.0  0.23769000000000007  0.4707100000000001  0.06498  1.0000
  C   C88       1.0  0.34701000000000004  0.43258  0.02275  1.0000
  C   C89       1.0  0.43804  0.39197  0.05016  1.0000
  C   C90       1.0  0.41721  0.3921000000000001  0.12096000000000001  1.0000
  C   C91       1.0  0.30896  0.4325400000000001  0.16301  1.0000
  C   C92       1.0  0.55284  0.34970000000000007  0.00569  1.0000
  C   C93       1.0  0.6019499999999998  0.3843300000000001  0.9459500000000001  1.0000
  C   C94       1.0  0.71149  0.34493  0.90489  1.0000
  C   C95       1.0  0.77155  0.26863  0.92119  1.0000
  C   C96       1.0  0.72252  0.23299000000000003  0.97985  1.0000
  C   C97       1.0  0.6151  0.2738300000000001  0.02242  1.0000
  C   C98       1.0  0.8887000000000006  0.2271  0.8763499999999999  1.0000
  C   C99       1.0  0.8013800000000004  0.50712  0.32417  1.0000
  C   C100      1.0  0.7380200000000002  0.4590800000000001  0.36967  1.0000
  C   C101      1.0  0.69594  0.4135100000000001  0.34347  1.0000
  C   C102      1.0  0.6415500000000001  0.3669800000000001  0.38665  1.0000
  C   C103      1.0  0.62425  0.3667400000000001  0.45728  1.0000
  C   C104      1.0  0.6644  0.4142800000000001  0.48314000000000007  1.0000
  C   C105      1.0  0.7222800000000003  0.45871  0.43985  1.0000
  C   C106      1.0  0.5661199999999998  0.31793  0.50297  1.0000
  C   C107      1.0  0.58363  0.24345  0.48262999999999995  1.0000
  C   C108      1.0  0.5289800000000001  0.19722000000000006  0.52588  1.0000
  C   C109      1.0  0.45487999999999995  0.22468000000000005  0.59033  1.0000
  C   C110      1.0  0.43665  0.29875  0.6111400000000001  1.0000
  C   C111      1.0  0.49191  0.34468  0.56801  1.0000
  C   C112      1.0  0.39399  0.17678  0.63684  1.0000
  O   O1        1.0  0.17223999999999992  0.03265  0.84424  1.0000
  O   O2        1.0  0.33598000000000006  0.02358  0.75807  1.0000
  O   O3        1.0  0.04917000000000007  0.025210000000000007  0.7339  1.0000
  O   O4        1.0  0.21354  0.024810000000000006  0.65188  1.0000
  O   O5        1.0  0.8081400000000002  0.76686  0.14608  1.0000
  O   O6        1.0  0.78321  0.6543600000000003  0.13368  1.0000
  O   O7        1.0  0.9908400000000005  0.6224  0.38954  1.0000
  O   O8        1.0  0.060359999999999914  0.6873500000000002  0.29975  1.0000
  O   O9        1.0  0.8595899999999999  0.6649500000000003  0.26335  1.0000
  O   O10       1.0  0.9817900000000003  0.46552  0.8444300000000001  1.0000
  O   O11       1.0  0.9042199999999996  0.47658000000000006  0.75783  1.0000
  O   O12       1.0  0.2168400000000002  0.47339000000000003  0.73374  1.0000
  O   O13       1.0  0.13178000000000012  0.47635  0.65227  1.0000
  O   O14       1.0  0.0491699999999998  0.7318000000000002  0.14669  1.0000
  O   O15       1.0  0.08428000000000001  0.84527  0.13368  1.0000
  O   O16       1.0  0.6214800000000004  0.87683  0.38952  1.0000
  O   O17       1.0  0.64249  0.81116  0.30018000000000006  1.0000
  O   O18       1.0  0.8787700000000004  0.8357900000000003  0.26303  1.0000
  O   O19       1.0  0.8277700000000002  0.9673500000000002  0.15576  1.0000
  O   O20       1.0  0.6640299999999999  0.9764200000000001  0.24193999999999996  1.0000
  O   O21       1.0  0.95084  0.9747900000000002  0.2661  1.0000
  O   O22       1.0  0.7864700000000001  0.97519  0.34813  1.0000
  O   O23       1.0  0.19186999999999999  0.23314  0.8539200000000001  1.0000
  O   O24       1.0  0.21679999999999996  0.34564000000000006  0.86632  1.0000
  O   O25       1.0  0.009169999999999982  0.3776  0.61046  1.0000
  O   O26       1.0  0.9396500000000001  0.31265  0.70026  1.0000
  O   O27       1.0  0.14041999999999993  0.3350500000000001  0.73665  1.0000
  O   O28       1.0  0.01822000000000001  0.53448  0.15557  1.0000
  O   O29       1.0  0.09578999999999999  0.52342  0.24217000000000002  1.0000
  O   O30       1.0  0.78317  0.52661  0.26626000000000005  1.0000
  O   O31       1.0  0.8682299999999998  0.52365  0.34773  1.0000
  O   O32       1.0  0.9508300000000003  0.26820000000000005  0.8533199999999999  1.0000
  O   O33       1.0  0.91572  0.15473  0.86632  1.0000
  O   O34       1.0  0.37853000000000003  0.12317000000000002  0.61048  1.0000
  O   O35       1.0  0.35752  0.18884  0.69982  1.0000
  O   O36       1.0  0.12124000000000001  0.16421  0.73697  1.0000
