data_image0
_chemical_formula_structural       U4Cu4H48C96N16O32
_chemical_formula_sum              "U4 Cu4 H48 C96 N16 O32"
_cell_length_a       15.81715
_cell_length_b       15.811069999999999
_cell_length_c       15.84067
_cell_angle_alpha    103.53384999999999
_cell_angle_beta     103.51796
_cell_angle_gamma    112.1871

_symmetry_space_group_name_H-M    'P 1'
_symmetry_Int_Tables_number       1

loop_
  _symmetry_equiv_pos_as_xyz
  'x,y,z'

loop_
  _atom_site_type_symbol
  _atom_site_label
  _atom_site_symmetry_multiplicity
  _atom_site_fract_x
  _atom_site_fract_y
  _atom_site_fract_z
  _atom_site_occupancy
  U   U1        1.0  0.6272299999999997  0.0963  0.4268  1.0000
  U   U2        1.0  0.9054599999999998  0.37483999999999995  0.07415999999999998  1.0000
  U   U3        1.0  0.3729299999999998  0.9038899999999996  0.57352  1.0000
  U   U4        1.0  0.1004699999999999  0.6310899999999998  0.9277099999999999  1.0000
  Cu  Cu1       1.0  0.76672  0.70828  0.51309  1.0000
  Cu  Cu2       1.0  0.2917099999999999  0.23307000000000005  0.98678  1.0000
  Cu  Cu3       1.0  0.2331499999999999  0.29201  0.4869599999999999  1.0000
  Cu  Cu4       1.0  0.7083399999999997  0.76709  0.013079999999999996  1.0000
  H   H1        1.0  0.37594999999999995  0.6800899999999998  0.3799099999999999  1.0000
  H   H2        1.0  0.40102  0.53207  0.35775  1.0000
  H   H3        1.0  0.6895999999999998  0.85408  0.4964999999999999  1.0000
  H   H4        1.0  0.4326699999999999  0.41371  0.3416  1.0000
  H   H5        1.0  0.7103499999999998  0.7373999999999998  0.32576  1.0000
  H   H6        1.0  0.8739200000000001  0.6831  0.68405  1.0000
  H   H7        1.0  0.1531899999999999  0.7265399999999999  0.6622999999999999  1.0000
  H   H8        1.0  0.78199  0.51026  0.4856499999999999  1.0000
  H   H9        1.0  0.94308  0.75376  0.22748  1.0000
  H   H10       1.0  0.09930999999999993  0.7519099999999999  0.51536  1.0000
  H   H11       1.0  0.48446  0.28536  0.34742  1.0000
  H   H12       1.0  0.028679999999999945  0.7392399999999999  0.37422  1.0000
  H   H13       1.0  0.3199399999999999  0.62415  0.12020999999999997  1.0000
  H   H14       1.0  0.46798  0.59906  0.14243  1.0000
  H   H15       1.0  0.14608  0.31038  0.00349  1.0000
  H   H16       1.0  0.5862499999999998  0.56737  0.15845  1.0000
  H   H17       1.0  0.26266  0.28974  0.17428  1.0000
  H   H18       1.0  0.31677  0.12552000000000005  0.81561  1.0000
  H   H19       1.0  0.27336999999999995  0.84626  0.8377599999999997  1.0000
  H   H20       1.0  0.48973  0.21787999999999993  0.014279999999999996  1.0000
  H   H21       1.0  0.24618  0.05678  0.27245  1.0000
  H   H22       1.0  0.24784999999999982  0.9004699999999998  0.9846799999999998  1.0000
  H   H23       1.0  0.71448  0.51546  0.15255  1.0000
  H   H24       1.0  0.26081999999999994  0.97123  0.1258  1.0000
  H   H25       1.0  0.6239099999999995  0.3199  0.6199  1.0000
  H   H26       1.0  0.59886  0.46794  0.64346  1.0000
  H   H27       1.0  0.31022  0.14583  0.50348  1.0000
  H   H28       1.0  0.56732  0.58618  0.65752  1.0000
  H   H29       1.0  0.2897399999999999  0.26268999999999987  0.6742999999999998  1.0000
  H   H30       1.0  0.12547999999999992  0.3168199999999999  0.3155199999999999  1.0000
  H   H31       1.0  0.8465099999999997  0.27334  0.33788  1.0000
  H   H32       1.0  0.21792  0.48978  0.5143  1.0000
  H   H33       1.0  0.056849999999999894  0.24608999999999984  0.7723299999999997  1.0000
  H   H34       1.0  0.9008599999999997  0.24827999999999995  0.48491  1.0000
  H   H35       1.0  0.5154899999999998  0.7146099999999999  0.6526399999999999  1.0000
  H   H36       1.0  0.9712999999999997  0.26062999999999986  0.6256399999999998  1.0000
  H   H37       1.0  0.68005  0.37588  0.88003  1.0000
  H   H38       1.0  0.5320299999999998  0.401  0.85663  1.0000
  H   H39       1.0  0.8540099999999999  0.6897399999999998  0.99627  1.0000
  H   H40       1.0  0.41397  0.43255  0.84223  1.0000
  H   H41       1.0  0.7373  0.71019  0.82563  1.0000
  H   H42       1.0  0.6833  0.8745  0.18447999999999995  1.0000
  H   H43       1.0  0.72665  0.15374  0.16213  1.0000
  H   H44       1.0  0.5106099999999999  0.7823499999999999  0.9858299999999999  1.0000
  H   H45       1.0  0.75391  0.9432699999999998  0.7276599999999998  1.0000
  H   H46       1.0  0.7520299999999998  0.09951  0.01535  1.0000
  H   H47       1.0  0.28575  0.48467  0.84741  1.0000
  H   H48       1.0  0.7392799999999998  0.028829999999999963  0.87433  1.0000
  C   C1        1.0  0.44945999999999986  0.68686  0.40021  1.0000
  C   C2        1.0  0.4634399999999999  0.60442  0.38783  1.0000
  C   C3        1.0  0.62414  0.7842  0.4644399999999999  1.0000
  C   C4        1.0  0.50994  0.4340499999999998  0.37249999999999994  1.0000
  C   C5        1.0  0.016790000000000003  0.70052  0.68512  1.0000
  C   C6        1.0  0.52155  0.87149  0.45506  1.0000
  C   C7        1.0  0.91608  0.73682  0.43096  1.0000
  C   C8        1.0  0.7812499999999999  0.7395800000000001  0.33545  1.0000
  C   C9        1.0  0.53128  0.78099  0.43916  1.0000
  C   C10       1.0  0.9258599999999999  0.69796  0.64873  1.0000
  C   C11       1.0  0.6378099999999998  0.38785  0.41800999999999994  1.0000
  C   C12       1.0  0.08154999999999993  0.72287  0.63663  1.0000
  C   C13       1.0  0.70461  0.48733  0.45301  1.0000
  C   C14       1.0  0.91172  0.74786  0.28105  1.0000
  C   C15       1.0  0.5587599999999998  0.61352  0.41658  1.0000
  C   C16       1.0  0.050569999999999886  0.73618  0.55375  1.0000
  C   C17       1.0  0.53844  0.36184  0.37529  1.0000
  C   C18       1.0  0.9568999999999995  0.72857  0.51864  1.0000
  C   C19       1.0  0.5813299999999998  0.5324499999999998  0.41198  1.0000
  C   C20       1.0  0.6727099999999999  0.3135299999999999  0.4263099999999999  1.0000
  C   C21       1.0  0.043319999999999866  0.6789899999999999  0.7696499999999998  1.0000
  C   C22       1.0  0.9593399999999997  0.7415499999999998  0.3628899999999999  1.0000
  C   C23       1.0  0.7608599999999998  0.74945  0.17954  1.0000
  C   C24       1.0  0.8198499999999996  0.7456799999999998  0.26541  1.0000
  C   C25       1.0  0.3133199999999999  0.55065  0.10001  1.0000
  C   C26       1.0  0.3957099999999999  0.53659  0.11215  1.0000
  C   C27       1.0  0.21598  0.37583  0.03558  1.0000
  C   C28       1.0  0.5658599999999998  0.49004  0.12763  1.0000
  C   C29       1.0  0.2994299999999999  0.98253  0.8146499999999998  1.0000
  C   C30       1.0  0.12886  0.47866  0.04475  1.0000
  C   C31       1.0  0.26323999999999986  0.08386999999999997  0.06899  1.0000
  C   C32       1.0  0.26045  0.21878999999999998  0.16459  1.0000
  C   C33       1.0  0.21937999999999996  0.46875  0.060689999999999994  1.0000
  C   C34       1.0  0.3019999999999999  0.07353999999999998  0.85095  1.0000
  C   C35       1.0  0.61208  0.36208  0.08229  1.0000
  C   C36       1.0  0.2771400000000001  0.91797  0.86339  1.0000
  C   C37       1.0  0.51263  0.29527999999999993  0.046939999999999996  1.0000
  C   C38       1.0  0.25206  0.08818999999999999  0.2189  1.0000
  C   C39       1.0  0.38647  0.44123  0.08351  1.0000
  C   C40       1.0  0.26377999999999985  0.9491399999999995  0.94621  1.0000
  C   C41       1.0  0.6380499999999998  0.46144  0.12471  1.0000
  C   C42       1.0  0.27144  0.04291000000000003  0.98129  1.0000
  C   C43       1.0  0.46759  0.4186099999999999  0.08803  1.0000
  C   C44       1.0  0.6862399999999997  0.32684  0.07357  1.0000
  C   C45       1.0  0.3203999999999999  0.9556099999999998  0.7298699999999998  1.0000
  C   C46       1.0  0.2584799999999999  0.040579999999999984  0.13709  1.0000
  C   C47       1.0  0.25035  0.23907  0.32043  1.0000
  C   C48       1.0  0.2542799999999999  0.18013  0.23457  1.0000
  C   C49       1.0  0.55041  0.31314  0.59984  1.0000
  C   C50       1.0  0.5364199999999998  0.39555999999999986  0.6125599999999998  1.0000
  C   C51       1.0  0.37569999999999987  0.2157  0.53513  1.0000
  C   C52       1.0  0.49000999999999967  0.5658799999999998  0.6270499999999998  1.0000
  C   C53       1.0  0.98267  0.29946  0.31474  1.0000
  C   C54       1.0  0.47832  0.12844999999999995  0.54474  1.0000
  C   C55       1.0  0.08398999999999998  0.2632  0.56895  1.0000
  C   C56       1.0  0.21879999999999994  0.26042  0.66449  1.0000
  C   C57       1.0  0.46856999999999993  0.21891  0.56046  1.0000
  C   C58       1.0  0.07362  0.30187  0.35091  1.0000
  C   C59       1.0  0.36209  0.61214  0.582  1.0000
  C   C60       1.0  0.9181699999999998  0.2770299999999999  0.3634099999999999  1.0000
  C   C61       1.0  0.29528  0.51265  0.54693  1.0000
  C   C62       1.0  0.08825000000000001  0.252  0.71879  1.0000
  C   C63       1.0  0.44106999999999996  0.38648  0.5834  1.0000
  C   C64       1.0  0.9494699999999999  0.264  0.44639  1.0000
  C   C65       1.0  0.46153  0.63811  0.62454  1.0000
  C   C66       1.0  0.04314  0.27158  0.48132  1.0000
  C   C67       1.0  0.4185799999999999  0.46741999999999984  0.5876799999999999  1.0000
  C   C68       1.0  0.32717  0.68641  0.57378  1.0000
  C   C69       1.0  0.9556799999999998  0.3205699999999999  0.22993999999999995  1.0000
  C   C70       1.0  0.040639999999999885  0.25832999999999984  0.6369399999999997  1.0000
  C   C71       1.0  0.23916000000000004  0.25067  0.82045  1.0000
  C   C72       1.0  0.18008999999999994  0.25421  0.73445  1.0000
  C   C73       1.0  0.6867599999999998  0.44945000000000007  0.89995  1.0000
  C   C74       1.0  0.60433  0.4635099999999999  0.88742  1.0000
  C   C75       1.0  0.7840999999999998  0.6242999999999999  0.9644999999999999  1.0000
  C   C76       1.0  0.4343999999999999  0.50993  0.87266  1.0000
  C   C77       1.0  0.7007099999999998  0.017469999999999986  0.18541999999999997  1.0000
  C   C78       1.0  0.87175  0.5222499999999998  0.9547999999999998  1.0000
  C   C79       1.0  0.7367799999999997  0.9161199999999999  0.93104  1.0000
  C   C80       1.0  0.7395699999999997  0.78118  0.83546  1.0000
  C   C81       1.0  0.7807099999999998  0.53148  0.93899  1.0000
  C   C82       1.0  0.6979899999999997  0.9263999999999998  0.14906  1.0000
  C   C83       1.0  0.3882299999999998  0.6379199999999999  0.9177099999999998  1.0000
  C   C84       1.0  0.72282  0.08196  0.13662  1.0000
  C   C85       1.0  0.4875599999999998  0.70493  0.95304  1.0000
  C   C86       1.0  0.7479799999999999  0.9118399999999995  0.7811899999999999  1.0000
  C   C87       1.0  0.61366  0.55894  0.91653  1.0000
  C   C88       1.0  0.7361899999999998  0.05081  0.05378  1.0000
  C   C89       1.0  0.3622499999999999  0.53846  0.87527  1.0000
  C   C90       1.0  0.72837  0.95699  0.01866  1.0000
  C   C91       1.0  0.53266  0.58153  0.91223  1.0000
  C   C92       1.0  0.31318  0.67128  0.92671  1.0000
  C   C93       1.0  0.67936  0.044239999999999995  0.27011  1.0000
  C   C94       1.0  0.74156  0.95944  0.86299  1.0000
  C   C95       1.0  0.7494  0.76084  0.6795699999999999  1.0000
  C   C96       1.0  0.7456899999999997  0.8198799999999997  0.7654899999999998  1.0000
  N   N1        1.0  0.8958999999999998  0.7093399999999999  0.5679299999999999  1.0000
  N   N2        1.0  0.8278999999999996  0.7375399999999998  0.41595  1.0000
  N   N3        1.0  0.67799  0.55766  0.45206  1.0000
  N   N4        1.0  0.63747  0.70469  0.45452  1.0000
  N   N5        1.0  0.2908  0.10376999999999995  0.93185  1.0000
  N   N6        1.0  0.26249999999999996  0.17209  0.08405  1.0000
  N   N7        1.0  0.44232  0.32199  0.04781  1.0000
  N   N8        1.0  0.29545999999999983  0.36245999999999995  0.04554  1.0000
  N   N9        1.0  0.10388999999999998  0.29061999999999993  0.43178  1.0000
  N   N10       1.0  0.17224999999999993  0.2626899999999999  0.5840599999999999  1.0000
  N   N11       1.0  0.32178  0.44228  0.5482  1.0000
  N   N12       1.0  0.3623599999999999  0.29514  0.54445  1.0000
  N   N13       1.0  0.7093699999999998  0.8962499999999999  0.06824  1.0000
  N   N14       1.0  0.7373799999999998  0.82781  0.91594  1.0000
  N   N15       1.0  0.55783  0.67826  0.95177  1.0000
  N   N16       1.0  0.7046899999999997  0.6376499999999998  0.95536  1.0000
  O   O1        1.0  0.44025999999999976  0.8696099999999998  0.46129  1.0000
  O   O2        1.0  0.59327  0.95083  0.4631299999999999  1.0000
  O   O3        1.0  0.9842899999999996  0.6578499999999999  0.8143499999999998  1.0000
  O   O4        1.0  0.12595999999999988  0.6768599999999998  0.79806  1.0000
  O   O5        1.0  0.60195  0.22528  0.40574  1.0000
  O   O6        1.0  0.7616299999999998  0.33575  0.4548499999999999  1.0000
  O   O7        1.0  0.8095799999999997  0.78632  0.13108  1.0000
  O   O8        1.0  0.6702  0.71783  0.16033  1.0000
  O   O9        1.0  0.13098  0.56004  0.03893  1.0000
  O   O10       1.0  0.04948999999999997  0.40639  0.03587  1.0000
  O   O11       1.0  0.34074  0.01482999999999997  0.6849699999999999  1.0000
  O   O12       1.0  0.3236599999999998  0.87364  0.70188  1.0000
  O   O13       1.0  0.77437  0.39692  0.09337  1.0000
  O   O14       1.0  0.66361  0.23786  0.045369999999999994  1.0000
  O   O15       1.0  0.21366999999999997  0.19030999999999998  0.36894  1.0000
  O   O16       1.0  0.28194999999999987  0.32977  0.33974  1.0000
  O   O17       1.0  0.5597599999999998  0.13034  0.53873  1.0000
  O   O18       1.0  0.40654999999999997  0.049069999999999954  0.53652  1.0000
  O   O19       1.0  0.01488999999999999  0.34082  0.18507  1.0000
  O   O20       1.0  0.8741299999999996  0.32457999999999987  0.20241  1.0000
  O   O21       1.0  0.3979099999999999  0.7746999999999998  0.5943  1.0000
  O   O22       1.0  0.23828999999999995  0.66428  0.54522  1.0000
  O   O23       1.0  0.19065999999999997  0.21454999999999996  0.86934  1.0000
  O   O24       1.0  0.3297199999999998  0.28190999999999994  0.8392699999999997  1.0000
  O   O25       1.0  0.8694499999999996  0.4410800000000001  0.96197  1.0000
  O   O26       1.0  0.9509499999999997  0.59341  0.96257  1.0000
  O   O27       1.0  0.65895  0.98495  0.31486  1.0000
  O   O28       1.0  0.6763099999999997  0.12627999999999998  0.29814999999999997  1.0000
  O   O29       1.0  0.22591999999999995  0.59925  0.9070499999999998  1.0000
  O   O30       1.0  0.33291999999999977  0.7595999999999998  0.95548  1.0000
  O   O31       1.0  0.78555  0.80942  0.6307  1.0000
  O   O32       1.0  0.71825  0.67027  0.6606899999999999  1.0000
