data_image0
_chemical_formula_structural       Li4H68C96N24O24
_chemical_formula_sum              "Li4 H68 C96 N24 O24"
_cell_length_a       4.51262
_cell_length_b       16.288670000000003
_cell_length_c       37.03058
_cell_angle_alpha    90.04998000000002
_cell_angle_beta     90.05134
_cell_angle_gamma    87.44338000000002

_space_group_name_H-M_alt    "P 1"
_space_group_IT_number       1

loop_
  _space_group_symop_operation_xyz
  'x, y, z'

loop_
  _atom_site_type_symbol
  _atom_site_label
  _atom_site_symmetry_multiplicity
  _atom_site_fract_x
  _atom_site_fract_y
  _atom_site_fract_z
  _atom_site_occupancy
  Li  Li1       1.0  0.20867999999999998  0.49645000000000006  0.52404  1.0000
  Li  Li2       1.0  0.7923199999999999  0.00359  0.02416  1.0000
  Li  Li3       1.0  0.79133  0.50354  0.47596000000000005  1.0000
  Li  Li4       1.0  0.20767999999999992  0.99641  0.9758399999999999  1.0000
  H   H1        1.0  0.19864999999999997  0.29908  0.68585  1.0000
  H   H2        1.0  0.40165999999999996  0.28233  0.57533  1.0000
  H   H3        1.0  0.5439299999999999  0.22481  0.63533  1.0000
  H   H4        1.0  0.27757  0.38377  0.63967  1.0000
  H   H5        1.0  0.1271  0.443  0.5813  1.0000
  H   H6        1.0  0.2814699999999999  0.08888  0.67419  1.0000
  H   H7        1.0  0.20440999999999998  0.78732  0.75392  1.0000
  H   H8        1.0  0.95155  0.94003  0.79871  1.0000
  H   H9        1.0  0.3276199999999999  0.028790000000000007  0.77051  1.0000
  H   H10       1.0  0.8885  0.00896  0.66795  1.0000
  H   H11       1.0  0.53495  0.9145900000000002  0.69559  1.0000
  H   H12       1.0  0.13594999999999996  0.21031  0.79265  1.0000
  H   H13       1.0  0.60912  0.13116  0.98308  1.0000
  H   H14       1.0  0.9793299999999999  0.19513  0.9137900000000001  1.0000
  H   H15       1.0  0.15688999999999995  0.22966  0.85224  1.0000
  H   H16       1.0  0.46249999999999997  0.09072  0.80627  1.0000
  H   H17       1.0  0.2859  0.05776000000000001  0.8681099999999999  1.0000
  H   H18       1.0  0.80226  0.20055  0.1858  1.0000
  H   H19       1.0  0.5989499999999999  0.21824000000000005  0.07539  1.0000
  H   H20       1.0  0.45683  0.2754600000000001  0.13541  1.0000
  H   H21       1.0  0.7240199999999999  0.11624  0.1394  1.0000
  H   H22       1.0  0.8745399999999998  0.05722  0.08105  1.0000
  H   H23       1.0  0.71255  0.41238000000000014  0.17423  1.0000
  H   H24       1.0  0.7970299999999997  0.71233  0.25396  1.0000
  H   H25       1.0  0.051349999999999986  0.55976  0.29887  1.0000
  H   H26       1.0  0.67264  0.47137  0.27075  1.0000
  H   H27       1.0  0.10485999999999998  0.49191000000000007  0.16791  1.0000
  H   H28       1.0  0.46108  0.58594  0.19548  1.0000
  H   H29       1.0  0.8644799999999999  0.28979  0.29276  1.0000
  H   H30       1.0  0.39196999999999993  0.36898  0.48298  1.0000
  H   H31       1.0  0.02502999999999998  0.3042700000000001  0.41371  1.0000
  H   H32       1.0  0.84692  0.2696  0.35211  1.0000
  H   H33       1.0  0.5397400000000001  0.409  0.30628  1.0000
  H   H34       1.0  0.7182599999999999  0.44145  0.36815  1.0000
  H   H35       1.0  0.80136  0.7009100000000003  0.31415  1.0000
  H   H36       1.0  0.59835  0.7176700000000003  0.42467  1.0000
  H   H37       1.0  0.45607  0.7751800000000002  0.36467  1.0000
  H   H38       1.0  0.72244  0.61623  0.36033  1.0000
  H   H39       1.0  0.8729099999999996  0.557  0.4187  1.0000
  H   H40       1.0  0.71854  0.91111  0.32581  1.0000
  H   H41       1.0  0.79559  0.21267  0.24607999999999997  1.0000
  H   H42       1.0  0.04845  0.05996000000000001  0.20129  1.0000
  H   H43       1.0  0.67239  0.9712100000000002  0.22949  1.0000
  H   H44       1.0  0.11151  0.9910300000000001  0.33205  1.0000
  H   H45       1.0  0.4650599999999999  0.08541  0.30441  1.0000
  H   H46       1.0  0.8640599999999997  0.7896900000000002  0.20735  1.0000
  H   H47       1.0  0.3908799999999999  0.8688300000000002  0.01692  1.0000
  H   H48       1.0  0.020680000000000004  0.80487  0.08621  1.0000
  H   H49       1.0  0.8431199999999999  0.77034  0.14776  1.0000
  H   H50       1.0  0.5375  0.9092800000000002  0.19373  1.0000
  H   H51       1.0  0.7141099999999999  0.9422300000000002  0.13189  1.0000
  H   H52       1.0  0.19775000000000004  0.79945  0.8142  1.0000
  H   H53       1.0  0.40106  0.78175  0.92461  1.0000
  H   H54       1.0  0.54318  0.72454  0.86459  1.0000
  H   H55       1.0  0.2759899999999999  0.88375  0.8606  1.0000
  H   H56       1.0  0.12547  0.94277  0.9189499999999999  1.0000
  H   H57       1.0  0.28746  0.58762  0.82577  1.0000
  H   H58       1.0  0.2029799999999999  0.28766  0.74604  1.0000
  H   H59       1.0  0.94866  0.44024000000000013  0.70113  1.0000
  H   H60       1.0  0.32737  0.52863  0.72925  1.0000
  H   H61       1.0  0.8951499999999999  0.50808  0.83209  1.0000
  H   H62       1.0  0.53893  0.4140500000000001  0.80452  1.0000
  H   H63       1.0  0.13551999999999997  0.71021  0.70724  1.0000
  H   H64       1.0  0.60803  0.63101  0.51702  1.0000
  H   H65       1.0  0.9749799999999998  0.69572  0.58629  1.0000
  H   H66       1.0  0.15309  0.7304  0.64789  1.0000
  H   H67       1.0  0.46027  0.591  0.69372  1.0000
  H   H68       1.0  0.28175  0.55854  0.63185  1.0000
  C   C1        1.0  0.87555  0.22127  0.6985  1.0000
  C   C2        1.0  0.52102  0.13314  0.71442  1.0000
  C   C3        1.0  0.8214899999999998  0.18043  0.75746  1.0000
  C   C4        1.0  0.66041  0.40509  0.5393  1.0000
  C   C5        1.0  0.7481399999999999  0.36936  0.57469  1.0000
  C   C6        1.0  0.5851099999999999  0.3066000000000001  0.59027  1.0000
  C   C7        1.0  0.6800599999999999  0.2695500000000001  0.62261  1.0000
  C   C8        1.0  0.9310099999999998  0.29512  0.64028  1.0000
  C   C9        1.0  0.0962  0.35806  0.6248  1.0000
  C   C10       1.0  0.99764  0.3949300000000001  0.59274  1.0000
  C   C11       1.0  0.5086099999999999  0.86736  0.76478  1.0000
  C   C12       1.0  0.7256000000000001  0.92044  0.74872  1.0000
  C   C13       1.0  0.94577  0.9538100000000003  0.77  1.0000
  C   C14       1.0  0.15117  0.0041  0.75473  1.0000
  C   C15       1.0  0.12583  0.026970000000000008  0.71795  1.0000
  C   C16       1.0  0.90401  0.9934200000000001  0.69647  1.0000
  C   C17       1.0  0.70986  0.93999  0.7117  1.0000
  C   C18       1.0  0.50879  0.11337000000000003  0.93184  1.0000
  C   C19       1.0  0.60915  0.13073  0.89489  1.0000
  C   C20       1.0  0.8642099999999999  0.17421000000000006  0.89002  1.0000
  C   C21       1.0  0.9793699999999999  0.18760000000000004  0.85571  1.0000
  C   C22       1.0  0.8249499999999997  0.15923  0.82507  1.0000
  C   C23       1.0  0.5755299999999999  0.11361  0.8297  1.0000
  C   C24       1.0  0.4608499999999999  0.10047000000000003  0.86436  1.0000
  C   C25       1.0  0.12322  0.27893  0.19849  1.0000
  C   C26       1.0  0.47673  0.36735  0.21448  1.0000
  C   C27       1.0  0.17732999999999993  0.3199400000000001  0.25746  1.0000
  C   C28       1.0  0.3412  0.09542000000000003  0.03928  1.0000
  C   C29       1.0  0.25312  0.13102  0.07464  1.0000
  C   C30       1.0  0.4159299999999998  0.19380000000000006  0.09029  1.0000
  C   C31       1.0  0.32068  0.23075000000000007  0.12264  1.0000
  C   C32       1.0  0.06989999999999999  0.20500000000000004  0.14023  1.0000
  C   C33       1.0  0.9050099999999998  0.14210000000000006  0.12461999999999998  1.0000
  C   C34       1.0  0.003799999999999995  0.10528000000000003  0.09257  1.0000
  C   C35       1.0  0.49199  0.63255  0.26479  1.0000
  C   C36       1.0  0.27373  0.57975  0.24874999999999997  1.0000
  C   C37       1.0  0.05491000000000001  0.54622  0.27013  1.0000
  C   C38       1.0  0.84819  0.49617  0.25491  1.0000
  C   C39       1.0  0.87093  0.47373  0.21804000000000004  1.0000
  C   C40       1.0  0.09133000000000001  0.50741  0.19645  1.0000
  C   C41       1.0  0.28689999999999993  0.5605600000000002  0.21167  1.0000
  C   C42       1.0  0.49346999999999996  0.3864200000000001  0.4318  1.0000
  C   C43       1.0  0.39446  0.36870000000000014  0.39482  1.0000
  C   C44       1.0  0.13968  0.32511  0.38994  1.0000
  C   C45       1.0  0.024289999999999985  0.3117000000000001  0.35564  1.0000
  C   C46       1.0  0.17758  0.34044  0.32505  1.0000
  C   C47       1.0  0.42750999999999995  0.3859  0.32968  1.0000
  C   C48       1.0  0.54295  0.39885  0.36435  1.0000
  C   C49       1.0  0.12445999999999996  0.7787200000000002  0.3015  1.0000
  C   C50       1.0  0.47898999999999997  0.86686  0.28558  1.0000
  C   C51       1.0  0.17851999999999993  0.8195600000000002  0.24254  1.0000
  C   C52       1.0  0.33959  0.5949  0.46071  1.0000
  C   C53       1.0  0.25187  0.63063  0.42531  1.0000
  C   C54       1.0  0.4148999999999999  0.6933900000000002  0.40973  1.0000
  C   C55       1.0  0.31994  0.7304500000000003  0.37739  1.0000
  C   C56       1.0  0.069  0.70487  0.35972  1.0000
  C   C57       1.0  0.9037999999999999  0.64194  0.3752  1.0000
  C   C58       1.0  0.0023599999999999966  0.60506  0.40726  1.0000
  C   C59       1.0  0.4913999999999999  0.13263  0.23520999999999997  1.0000
  C   C60       1.0  0.27441  0.07956  0.25128  1.0000
  C   C61       1.0  0.05424  0.04618  0.23000000000000004  1.0000
  C   C62       1.0  0.84883  0.9958900000000002  0.24527  1.0000
  C   C63       1.0  0.8741799999999996  0.9730200000000002  0.28205  1.0000
  C   C64       1.0  0.096  0.00657  0.30353  1.0000
  C   C65       1.0  0.29015  0.06000000000000001  0.2883  1.0000
  C   C66       1.0  0.49124  0.8866200000000002  0.06816  1.0000
  C   C67       1.0  0.39085999999999993  0.86926  0.10511  1.0000
  C   C68       1.0  0.13579999999999998  0.8257900000000002  0.10998  1.0000
  C   C69       1.0  0.020639999999999933  0.8123900000000002  0.14429  1.0000
  C   C70       1.0  0.17506  0.84076  0.17493  1.0000
  C   C71       1.0  0.42447999999999997  0.88639  0.1703  1.0000
  C   C72       1.0  0.53916  0.89952  0.13564  1.0000
  C   C73       1.0  0.87679  0.72106  0.80151  1.0000
  C   C74       1.0  0.52328  0.63264  0.78552  1.0000
  C   C75       1.0  0.82268  0.6800600000000002  0.74254  1.0000
  C   C76       1.0  0.65881  0.90457  0.96072  1.0000
  C   C77       1.0  0.74689  0.86897  0.92536  1.0000
  C   C78       1.0  0.5840799999999999  0.8061900000000002  0.9097100000000001  1.0000
  C   C79       1.0  0.6793299999999997  0.7692400000000003  0.87736  1.0000
  C   C80       1.0  0.9301099999999999  0.7950000000000003  0.85977  1.0000
  C   C81       1.0  0.09500999999999994  0.8578900000000003  0.8753800000000002  1.0000
  C   C82       1.0  0.99621  0.89471  0.90743  1.0000
  C   C83       1.0  0.50802  0.36744  0.73521  1.0000
  C   C84       1.0  0.72628  0.42024  0.75125  1.0000
  C   C85       1.0  0.9451  0.45378  0.72987  1.0000
  C   C86       1.0  0.15181999999999998  0.50382  0.74509  1.0000
  C   C87       1.0  0.12908  0.52626  0.78196  1.0000
  C   C88       1.0  0.90867  0.4925800000000001  0.80355  1.0000
  C   C89       1.0  0.71311  0.4394300000000001  0.78833  1.0000
  C   C90       1.0  0.5065099999999998  0.6135700000000002  0.5682  1.0000
  C   C91       1.0  0.6055499999999999  0.6312900000000002  0.60518  1.0000
  C   C92       1.0  0.86033  0.6748800000000003  0.61006  1.0000
  C   C93       1.0  0.97572  0.6883000000000002  0.64436  1.0000
  C   C94       1.0  0.82243  0.65956  0.67495  1.0000
  C   C95       1.0  0.5725  0.6141  0.67032  1.0000
  C   C96       1.0  0.45705999999999997  0.60114  0.63565  1.0000
  N   N1        1.0  0.6547799999999998  0.17423  0.68774  1.0000
  N   N2        1.0  0.58305  0.13692  0.75003  1.0000
  N   N3        1.0  0.97077  0.22567000000000006  0.73345  1.0000
  N   N4        1.0  0.027069999999999997  0.26631  0.67459  1.0000
  N   N5        1.0  0.31486  0.07990000000000003  0.70113  1.0000
  N   N6        1.0  0.94189  0.18061  0.79152  1.0000
  N   N7        1.0  0.34364  0.32601  0.18779  1.0000
  N   N8        1.0  0.41548999999999997  0.36353000000000013  0.25009  1.0000
  N   N9        1.0  0.02733  0.27482  0.23340999999999998  1.0000
  N   N10       1.0  0.97323  0.23347000000000007  0.17455  1.0000
  N   N11       1.0  0.68116  0.42094  0.20121  1.0000
  N   N12       1.0  0.05821999999999998  0.3195900000000001  0.29155  1.0000
  N   N13       1.0  0.34523  0.82576  0.31226  1.0000
  N   N14       1.0  0.41696000000000005  0.86307  0.24997  1.0000
  N   N15       1.0  0.029230000000000016  0.77432  0.26655  1.0000
  N   N16       1.0  0.9729299999999999  0.73369  0.32541  1.0000
  N   N17       1.0  0.6851499999999999  0.92009  0.29887  1.0000
  N   N18       1.0  0.058119999999999956  0.8193800000000001  0.20848  1.0000
  N   N19       1.0  0.65637  0.67398  0.81221  1.0000
  N   N20       1.0  0.5845199999999998  0.63646  0.74991  1.0000
  N   N21       1.0  0.9726799999999999  0.72518  0.76659  1.0000
  N   N22       1.0  0.02678000000000001  0.76652  0.82545  1.0000
  N   N23       1.0  0.31884999999999986  0.57905  0.79879  1.0000
  N   N24       1.0  0.9417899999999999  0.6804  0.70845  1.0000
  O   O1        1.0  0.8134800000000001  0.46153  0.52531  1.0000
  O   O2        1.0  0.42499999999999993  0.3794  0.52434  1.0000
  O   O3        1.0  0.3589  0.82372  0.74107  1.0000
  O   O4        1.0  0.47233  0.86244  0.79815  1.0000
  O   O5        1.0  0.29030999999999996  0.07105000000000003  0.9379100000000001  1.0000
  O   O6        1.0  0.67388  0.14595  0.9572  1.0000
  O   O7        1.0  0.18711  0.03938  0.02509  1.0000
  O   O8        1.0  0.57758  0.12088  0.02457  1.0000
  O   O9        1.0  0.64157  0.67609  0.24111  1.0000
  O   O10       1.0  0.52852  0.63757  0.29817  1.0000
  O   O11       1.0  0.7114299999999999  0.42896  0.43797  1.0000
  O   O12       1.0  0.32766000000000006  0.35402  0.45707  1.0000
  O   O13       1.0  0.18652  0.53846  0.47469000000000006  1.0000
  O   O14       1.0  0.57501  0.62059  0.47565999999999997  1.0000
  O   O15       1.0  0.6411  0.17627000000000007  0.25893  1.0000
  O   O16       1.0  0.52768  0.13755000000000006  0.20185  1.0000
  O   O17       1.0  0.7096799999999998  0.92894  0.062090000000000006  1.0000
  O   O18       1.0  0.3261299999999999  0.8540400000000002  0.04279  1.0000
  O   O19       1.0  0.8129  0.9606100000000002  0.97491  1.0000
  O   O20       1.0  0.42242  0.87911  0.9754300000000001  1.0000
  O   O21       1.0  0.35844  0.32391  0.75889  1.0000
  O   O22       1.0  0.47149  0.36243  0.70183  1.0000
  O   O23       1.0  0.2886  0.57104  0.56203  1.0000
  O   O24       1.0  0.67235  0.64598  0.54293  1.0000
