data_image0
_chemical_formula_structural       Cd3H62C72S2N16O14
_chemical_formula_sum              "Cd3 H62 C72 S2 N16 O14"
_cell_length_a       10.24966
_cell_length_b       13.12555
_cell_length_c       17.49714
_cell_angle_alpha    79.66540999999998
_cell_angle_beta     85.73245
_cell_angle_gamma    77.8519

_space_group_name_H-M_alt    "P 1"
_space_group_IT_number       1

loop_
  _space_group_symop_operation_xyz
  'x, y, z'

loop_
  _atom_site_type_symbol
  _atom_site_label
  _atom_site_symmetry_multiplicity
  _atom_site_fract_x
  _atom_site_fract_y
  _atom_site_fract_z
  _atom_site_occupancy
  Cd  Cd1       1.0  0.9548299999999998  0.9037600000000001  0.79735  1.0000
  Cd  Cd2       1.0  0.045169999999999995  0.09625  0.20265  1.0000
  Cd  Cd3       1.0  0.5  0.5  0.5  1.0000
  H   H1        1.0  0.59696  0.19431000000000004  0.6953299999999999  1.0000
  H   H2        1.0  0.4668800000000001  0.90742  0.7993499999999998  1.0000
  H   H3        1.0  0.17894  0.18293  0.7071499999999997  1.0000
  H   H4        1.0  0.22322999999999996  0.73663  0.72795  1.0000
  H   H5        1.0  0.19403000000000004  0.56258  0.66354  1.0000
  H   H6        1.0  0.8153400000000002  0.72089  0.73914  1.0000
  H   H7        1.0  0.8249199999999999  0.5841099999999999  0.64411  1.0000
  H   H8        1.0  0.9839299999999999  0.5171499999999999  0.6158399999999999  1.0000
  H   H9        1.0  0.07652999999999995  0.46049  0.79436  1.0000
  H   H10       1.0  0.05962999999999999  0.3013500000000001  0.8901399999999998  1.0000
  H   H11       1.0  0.731  0.25531  0.76985  1.0000
  H   H12       1.0  0.74325  0.4187  0.6755499999999998  1.0000
  H   H13       1.0  0.90319  0.09988000000000001  0.85616  1.0000
  H   H14       1.0  0.78354  0.16845000000000007  0.9166399999999998  1.0000
  H   H15       1.0  0.16549000000000003  0.09522000000000004  0.8919199999999998  1.0000
  H   H16       1.0  0.26086  0.06935000000000001  0.04142  1.0000
  H   H17       1.0  0.8418  0.16495  0.05216999999999999  1.0000
  H   H18       1.0  0.4030500000000001  0.8057  0.3046699999999999  1.0000
  H   H19       1.0  0.53313  0.09258  0.20065  1.0000
  H   H20       1.0  0.82107  0.81707  0.29285  1.0000
  H   H21       1.0  0.77677  0.26338  0.27205  1.0000
  H   H22       1.0  0.80597  0.43742  0.3364599999999999  1.0000
  H   H23       1.0  0.18467  0.27911  0.26085  1.0000
  H   H24       1.0  0.17508999999999997  0.41589  0.35588  1.0000
  H   H25       1.0  0.016070000000000008  0.48286000000000007  0.3841499999999999  1.0000
  H   H26       1.0  0.92347  0.53952  0.20564  1.0000
  H   H27       1.0  0.9403699999999999  0.69866  0.10985999999999997  1.0000
  H   H28       1.0  0.26899999999999996  0.74469  0.23015  1.0000
  H   H29       1.0  0.25676  0.5813100000000001  0.3244499999999999  1.0000
  H   H30       1.0  0.09681000000000002  0.90013  0.14383  1.0000
  H   H31       1.0  0.21647  0.8315600000000001  0.08335999999999998  1.0000
  H   H32       1.0  0.83452  0.90479  0.10807999999999997  1.0000
  H   H33       1.0  0.7391500000000002  0.93065  0.9585799999999999  1.0000
  H   H34       1.0  0.15820999999999996  0.83505  0.94783  1.0000
  H   H35       1.0  0.8470499999999999  0.51165  0.47635  1.0000
  H   H36       1.0  0.04544  0.34330000000000005  0.5443899999999998  1.0000
  H   H37       1.0  0.6747199999999999  0.24690000000000006  0.5599199999999998  1.0000
  H   H38       1.0  0.03586000000000001  0.16882  0.62423  1.0000
  H   H39       1.0  0.8800299999999999  0.13470000000000001  0.6506899999999998  1.0000
  H   H40       1.0  0.03579000000000003  0.9533300000000001  0.6413999999999997  1.0000
  H   H41       1.0  0.91737  0.1869  0.43969  1.0000
  H   H42       1.0  0.6490300000000001  0.7069999999999999  0.50886  1.0000
  H   H43       1.0  0.51831  0.71633  0.74372  1.0000
  H   H44       1.0  0.45812  0.53827  0.69726  1.0000
  H   H45       1.0  0.74926  0.82946  0.60722  1.0000
  H   H46       1.0  0.62292  0.8633100000000002  0.6779999999999998  1.0000
  H   H47       1.0  0.37108999999999975  0.90126  0.60257  1.0000
  H   H48       1.0  0.74793  0.9633700000000001  0.49993999999999994  1.0000
  H   H49       1.0  0.15294999999999997  0.48835999999999996  0.52365  1.0000
  H   H50       1.0  0.95456  0.65671  0.4556099999999999  1.0000
  H   H51       1.0  0.32529  0.7531000000000001  0.4400799999999999  1.0000
  H   H52       1.0  0.96415  0.8311899999999999  0.37577  1.0000
  H   H53       1.0  0.11998000000000003  0.8653  0.3493099999999999  1.0000
  H   H54       1.0  0.9642100000000001  0.046669999999999996  0.3586  1.0000
  H   H55       1.0  0.08263999999999999  0.8131  0.56031  1.0000
  H   H56       1.0  0.35097  0.293  0.49112999999999996  1.0000
  H   H57       1.0  0.48168999999999995  0.28368000000000004  0.25628  1.0000
  H   H58       1.0  0.54189  0.46174  0.30274  1.0000
  H   H59       1.0  0.25075  0.17054  0.39278  1.0000
  H   H60       1.0  0.37708  0.13669  0.3219999999999999  1.0000
  H   H61       1.0  0.62891  0.09874999999999998  0.39743  1.0000
  H   H62       1.0  0.25208  0.03664000000000003  0.5000599999999998  1.0000
  C   C1        1.0  0.38458999999999993  0.20006000000000004  0.69742  1.0000
  C   C2        1.0  0.51691  0.15135000000000004  0.7128399999999998  1.0000
  C   C3        1.0  0.547  0.04570000000000002  0.7502  1.0000
  C   C4        1.0  0.6883499999999999  0.99259  0.76744  1.0000
  C   C5        1.0  0.44421999999999995  0.98943  0.77064  1.0000
  C   C6        1.0  0.31166  0.03790999999999999  0.75458  1.0000
  C   C7        1.0  0.20360999999999996  0.97472  0.7740399999999997  1.0000
  C   C8        1.0  0.28185  0.14425000000000004  0.7188  1.0000
  C   C9        1.0  0.13461999999999996  0.7081999999999999  0.71909  1.0000
  C   C10       1.0  0.12137999999999999  0.62364  0.68611  1.0000
  C   C11       1.0  0.92174  0.70387  0.7260699999999999  1.0000
  C   C12       1.0  0.92357  0.544  0.6655799999999997  1.0000
  C   C13       1.0  0.91171  0.45030000000000014  0.7280699999999998  1.0000
  C   C14       1.0  0.9992800000000001  0.41696000000000005  0.78911  1.0000
  C   C15       1.0  0.99028  0.32605  0.84313  1.0000
  C   C16       1.0  0.89496  0.2666700000000001  0.8361799999999998  1.0000
  C   C17       1.0  0.80579  0.30108  0.77543  1.0000
  C   C18       1.0  0.8134399999999998  0.39242999999999995  0.72221  1.0000
  C   C19       1.0  0.88459  0.16453000000000004  0.8901099999999998  1.0000
  C   C20       1.0  0.11468999999999993  0.10480000000000005  0.9473599999999999  1.0000
  C   C21       1.0  0.16003999999999996  0.09261  0.021059999999999992  1.0000
  C   C22       1.0  0.9431399999999999  0.14323  0.029369999999999997  1.0000
  C   C23       1.0  0.6154199999999999  0.79994  0.30258  1.0000
  C   C24       1.0  0.4831  0.84866  0.2871599999999999  1.0000
  C   C25       1.0  0.45300999999999997  0.9543100000000001  0.24979999999999997  1.0000
  C   C26       1.0  0.31165  0.007410000000000003  0.23256  1.0000
  C   C27       1.0  0.55578  0.010570000000000008  0.22935999999999995  1.0000
  C   C28       1.0  0.6883399999999998  0.9621  0.24541999999999997  1.0000
  C   C29       1.0  0.79639  0.025279999999999997  0.22595  1.0000
  C   C30       1.0  0.7181599999999998  0.85575  0.2812  1.0000
  C   C31       1.0  0.86538  0.2917999999999999  0.28091  1.0000
  C   C32       1.0  0.8786200000000003  0.37637  0.31388999999999995  1.0000
  C   C33       1.0  0.07826999999999998  0.29614000000000007  0.27393  1.0000
  C   C34       1.0  0.07643000000000001  0.45600000000000007  0.3344199999999999  1.0000
  C   C35       1.0  0.0883  0.5497  0.27193  1.0000
  C   C36       1.0  0.0007299999999999951  0.58304  0.21089  1.0000
  C   C37       1.0  0.00972  0.67395  0.15686999999999995  1.0000
  C   C38       1.0  0.10504  0.73334  0.16381999999999994  1.0000
  C   C39       1.0  0.19421  0.69893  0.22457  1.0000
  C   C40       1.0  0.18657  0.6075699999999999  0.27778  1.0000
  C   C41       1.0  0.11541999999999993  0.8354800000000001  0.10989  1.0000
  C   C42       1.0  0.88531  0.8952  0.052639999999999985  1.0000
  C   C43       1.0  0.83997  0.90739  0.9789399999999999  1.0000
  C   C44       1.0  0.05686000000000005  0.85677  0.9706299999999999  1.0000
  C   C45       1.0  0.84193  0.43163  0.50361  1.0000
  C   C46       1.0  0.94032  0.34997  0.53551  1.0000
  C   C47       1.0  0.7470399999999999  0.29727999999999993  0.5453  1.0000
  C   C48       1.0  0.94311  0.16087000000000004  0.6004799999999998  1.0000
  C   C49       1.0  0.97207  0.07950000000000002  0.5469899999999999  1.0000
  C   C50       1.0  0.018880000000000036  0.97352  0.57934  1.0000
  C   C51       1.0  0.95371  0.10537  0.46681999999999996  1.0000
  C   C52       1.0  0.60542  0.68402  0.56609  1.0000
  C   C53       1.0  0.5363799999999999  0.6865  0.68925  1.0000
  C   C54       1.0  0.5069799999999999  0.5997200000000001  0.66545  1.0000
  C   C55       1.0  0.6411999999999999  0.84053  0.62017  1.0000
  C   C56       1.0  0.56749  0.92356  0.55835  1.0000
  C   C57       1.0  0.42775  0.9445100000000001  0.55775  1.0000
  C   C58       1.0  0.6392  0.97939  0.50016  1.0000
  C   C59       1.0  0.15808000000000005  0.56838  0.49639  1.0000
  C   C60       1.0  0.05969000000000005  0.6500399999999998  0.46448  1.0000
  C   C61       1.0  0.25297  0.70273  0.4547  1.0000
  C   C62       1.0  0.05689  0.83914  0.3995199999999999  1.0000
  C   C63       1.0  0.027940000000000013  0.9205099999999999  0.4530099999999999  1.0000
  C   C64       1.0  0.9811299999999998  0.02648  0.42066  1.0000
  C   C65       1.0  0.04629000000000003  0.8946399999999999  0.53318  1.0000
  C   C66       1.0  0.39459  0.31599  0.43391  1.0000
  C   C67       1.0  0.46363  0.31350999999999996  0.31075  1.0000
  C   C68       1.0  0.49302999999999997  0.40028  0.33455  1.0000
  C   C69       1.0  0.3588100000000001  0.15947000000000003  0.37983  1.0000
  C   C70       1.0  0.4325100000000001  0.07645000000000005  0.4416499999999999  1.0000
  C   C71       1.0  0.57226  0.05548999999999999  0.44225  1.0000
  C   C72       1.0  0.36081  0.02061000000000001  0.49984  1.0000
  S   S1        1.0  0.3441599999999998  0.33461  0.64868  1.0000
  S   S2        1.0  0.65585  0.6654  0.35132  1.0000
  N   N1        1.0  0.009230000000000009  0.7577100000000001  0.7434299999999998  1.0000
  N   N2        1.0  0.9861299999999998  0.6223900000000001  0.69055  1.0000
  N   N3        1.0  0.97701  0.13682000000000005  0.9536399999999999  1.0000
  N   N4        1.0  0.05183999999999998  0.1165  0.07166  1.0000
  N   N5        1.0  0.99078  0.24230000000000002  0.2565699999999999  1.0000
  N   N6        1.0  0.01388  0.37761  0.30945  1.0000
  N   N7        1.0  0.02299999999999999  0.86319  0.04636  1.0000
  N   N8        1.0  0.94816  0.8835  0.92834  1.0000
  N   N9        1.0  0.7215999999999998  0.39790000000000003  0.50992  1.0000
  N   N10       1.0  0.8782999999999999  0.26564  0.56231  1.0000
  N   N11       1.0  0.55035  0.59939  0.5885299999999999  1.0000
  N   N12       1.0  0.59956  0.7387600000000002  0.6258599999999997  1.0000
  N   N13       1.0  0.27840999999999994  0.6021  0.49008  1.0000
  N   N14       1.0  0.12170999999999998  0.73437  0.43768999999999997  1.0000
  N   N15       1.0  0.44966000000000006  0.4006199999999999  0.4114599999999999  1.0000
  N   N16       1.0  0.40045  0.26124  0.37414  1.0000
  O   O1        1.0  0.4664499999999999  0.34877000000000014  0.5986899999999998  1.0000
  O   O2        1.0  0.3184  0.40285  0.70863  1.0000
  O   O3        1.0  0.22732  0.33886000000000005  0.60225  1.0000
  O   O4        1.0  0.7789  0.04844000000000002  0.75385  1.0000
  O   O5        1.0  0.7138500000000001  0.8939900000000001  0.7949499999999998  1.0000
  O   O6        1.0  0.23242000000000004  0.8793899999999999  0.80664  1.0000
  O   O7        1.0  0.08450000000000002  0.02442999999999998  0.75508  1.0000
  O   O8        1.0  0.53356  0.65124  0.4013099999999999  1.0000
  O   O9        1.0  0.6816100000000002  0.5971599999999999  0.29136  1.0000
  O   O10       1.0  0.7726899999999999  0.66115  0.39775  1.0000
  O   O11       1.0  0.22110000000000002  0.95156  0.24613999999999997  1.0000
  O   O12       1.0  0.2861599999999999  0.10601999999999999  0.20505  1.0000
  O   O13       1.0  0.7675799999999999  0.12060999999999998  0.19336  1.0000
  O   O14       1.0  0.9155100000000002  0.97558  0.24490999999999996  1.0000
