data_image0
_chemical_formula_structural       Zn8H56C108O36
_chemical_formula_sum              "Zn8 H56 C108 O36"
_cell_length_a       7.19419
_cell_length_b       22.91581
_cell_length_c       28.37923
_cell_angle_alpha    90.0
_cell_angle_beta     90.0
_cell_angle_gamma    98.14941999999999

_symmetry_space_group_name_H-M    'P 1'
_symmetry_Int_Tables_number       1

loop_
  _symmetry_equiv_pos_as_xyz
  'x,y,z'

loop_
  _atom_site_type_symbol
  _atom_site_label
  _atom_site_symmetry_multiplicity
  _atom_site_fract_x
  _atom_site_fract_y
  _atom_site_fract_z
  _atom_site_occupancy
  Zn  Zn1       1.0  0.83781  0.81882  0.95088  1.0000
  Zn  Zn2       1.0  0.4381199999999999  0.76737  0.9462400000000002  1.0000
  Zn  Zn3       1.0  0.16218999999999992  0.68118  0.45088  1.0000
  Zn  Zn4       1.0  0.5618799999999998  0.7326399999999998  0.44624  1.0000
  Zn  Zn5       1.0  0.16218999999999997  0.18117999999999998  0.04912  1.0000
  Zn  Zn6       1.0  0.5618799999999998  0.23263999999999999  0.05376  1.0000
  Zn  Zn7       1.0  0.83781  0.31882  0.54912  1.0000
  Zn  Zn8       1.0  0.4381199999999999  0.26736  0.55376  1.0000
  H   H1        1.0  0.12665999999999988  0.6890699999999998  0.8324  1.0000
  H   H2        1.0  0.54582  0.65076  0.79215  1.0000
  H   H3        1.0  0.45114  0.69368  0.86607  1.0000
  H   H4        1.0  0.14087999999999998  0.6985099999999999  0.7463000000000002  1.0000
  H   H5        1.0  0.9775299999999998  0.5684099999999999  0.63922  1.0000
  H   H6        1.0  0.6491  0.5702499999999999  0.76572  1.0000
  H   H7        1.0  0.43752  0.66281  0.7229300000000001  1.0000
  H   H8        1.0  0.72692  0.69496  0.67712  1.0000
  H   H9        1.0  0.10847999999999994  0.65841  0.59604  1.0000
  H   H10       1.0  0.8369  0.46933999999999987  0.64162  1.0000
  H   H11       1.0  0.16966999999999988  0.4800299999999999  0.68238  1.0000
  H   H12       1.0  0.42067999999999983  0.5541799999999999  0.71399  1.0000
  H   H13       1.0  0.71232  0.71752  0.55457  1.0000
  H   H14       1.0  0.2691899999999999  0.36784  0.60603  1.0000
  H   H15       1.0  0.87333  0.8109399999999999  0.3324  1.0000
  H   H16       1.0  0.45417999999999975  0.8492399999999998  0.29215000000000013  1.0000
  H   H17       1.0  0.54885  0.80632  0.36607000000000006  1.0000
  H   H18       1.0  0.8591199999999999  0.8014999999999999  0.24630000000000005  1.0000
  H   H19       1.0  0.022469999999999955  0.9315999999999999  0.13922  1.0000
  H   H20       1.0  0.35089  0.92976  0.26572  1.0000
  H   H21       1.0  0.5624699999999999  0.8371899999999998  0.22293  1.0000
  H   H22       1.0  0.27306999999999987  0.80504  0.17712000000000006  1.0000
  H   H23       1.0  0.8915099999999999  0.84159  0.09603  1.0000
  H   H24       1.0  0.16309999999999997  0.030659999999999993  0.14162  1.0000
  H   H25       1.0  0.8303299999999999  0.019979999999999998  0.18238  1.0000
  H   H26       1.0  0.5793199999999998  0.9458299999999998  0.21399  1.0000
  H   H27       1.0  0.28768  0.78248  0.05457000000000001  1.0000
  H   H28       1.0  0.7308  0.13217  0.10603000000000003  1.0000
  H   H29       1.0  0.87333  0.31094  0.1676  1.0000
  H   H30       1.0  0.4541799999999998  0.3492399999999999  0.20785000000000003  1.0000
  H   H31       1.0  0.54885  0.30632  0.13393  1.0000
  H   H32       1.0  0.85912  0.3015  0.2537  1.0000
  H   H33       1.0  0.022469999999999987  0.4316  0.36078  1.0000
  H   H34       1.0  0.35089  0.42976  0.23428000000000002  1.0000
  H   H35       1.0  0.56247  0.3371899999999999  0.27707  1.0000
  H   H36       1.0  0.27307  0.30504  0.32288  1.0000
  H   H37       1.0  0.8915099999999999  0.34158999999999995  0.4039700000000001  1.0000
  H   H38       1.0  0.16309999999999997  0.53066  0.3583800000000001  1.0000
  H   H39       1.0  0.83032  0.51998  0.31762  1.0000
  H   H40       1.0  0.5793199999999998  0.44582999999999995  0.28601  1.0000
  H   H41       1.0  0.28768  0.28247999999999995  0.44543  1.0000
  H   H42       1.0  0.7307999999999999  0.6321699999999999  0.39397000000000004  1.0000
  H   H43       1.0  0.12665999999999994  0.18906999999999993  0.6676  1.0000
  H   H44       1.0  0.54582  0.15076  0.70785  1.0000
  H   H45       1.0  0.45114  0.19368  0.6339300000000002  1.0000
  H   H46       1.0  0.14088  0.19849999999999995  0.7537  1.0000
  H   H47       1.0  0.9775299999999998  0.06841  0.8607800000000002  1.0000
  H   H48       1.0  0.64911  0.07024999999999999  0.7342900000000002  1.0000
  H   H49       1.0  0.43753  0.16281  0.77707  1.0000
  H   H50       1.0  0.72693  0.19495999999999997  0.8228800000000002  1.0000
  H   H51       1.0  0.10847999999999997  0.15840999999999997  0.90397  1.0000
  H   H52       1.0  0.8369  0.96935  0.85838  1.0000
  H   H53       1.0  0.16966999999999982  0.9800299999999997  0.81762  1.0000
  H   H54       1.0  0.4206799999999999  0.05418  0.78601  1.0000
  H   H55       1.0  0.71232  0.21752  0.9454300000000002  1.0000
  H   H56       1.0  0.2691899999999998  0.8678399999999998  0.8939700000000003  1.0000
  C   C1        1.0  0.08160000000000006  0.74247  0.9128  1.0000
  C   C2        1.0  0.92806  0.7169999999999997  0.88084  1.0000
  C   C3        1.0  0.97825  0.6902599999999999  0.83884  1.0000
  C   C4        1.0  0.8435999999999999  0.6654699999999999  0.8064000000000002  1.0000
  C   C5        1.0  0.65346  0.66807  0.81742  1.0000
  C   C6        1.0  0.59942  0.69296  0.8587500000000002  1.0000
  C   C7        1.0  0.73526  0.71794  0.89131  1.0000
  C   C8        1.0  0.8897199999999995  0.63764  0.76153  1.0000
  C   C9        1.0  0.04771  0.65968  0.73442  1.0000
  C   C10       1.0  0.08185000000000002  0.63421  0.69076  1.0000
  C   C11       1.0  0.9535199999999998  0.58696  0.67365  1.0000
  C   C12       1.0  0.7935  0.56442  0.69977  1.0000
  C   C13       1.0  0.76729  0.58925  0.7441100000000002  1.0000
  C   C14       1.0  0.2506299999999999  0.65684  0.6629100000000001  1.0000
  C   C15       1.0  0.42799999999999977  0.66901  0.68505  1.0000
  C   C16       1.0  0.59078  0.68703  0.65982  1.0000
  C   C17       1.0  0.583  0.6945599999999998  0.61079  1.0000
  C   C18       1.0  0.40588999999999986  0.68399  0.5876700000000001  1.0000
  C   C19       1.0  0.24295999999999995  0.6650699999999999  0.61435  1.0000
  C   C20       1.0  0.38894999999999985  0.69197  0.53653  1.0000
  C   C21       1.0  0.6497299999999998  0.51785  0.6806000000000002  1.0000
  C   C22       1.0  0.6918499999999997  0.4732099999999999  0.65067  1.0000
  C   C23       1.0  0.5500699999999998  0.4307399999999999  0.63189  1.0000
  C   C24       1.0  0.35849  0.43371999999999994  0.64342  1.0000
  C   C25       1.0  0.31624999999999986  0.47816999999999993  0.6738700000000001  1.0000
  C   C26       1.0  0.4581599999999999  0.51914  0.6916800000000002  1.0000
  C   C27       1.0  0.59918  0.3837  0.60096  1.0000
  C   C28       1.0  0.9183899999999998  0.75753  0.41280000000000006  1.0000
  C   C29       1.0  0.07192999999999995  0.7829999999999999  0.3808400000000001  1.0000
  C   C30       1.0  0.02173999999999995  0.80974  0.3388400000000001  1.0000
  C   C31       1.0  0.15639999999999987  0.8345299999999998  0.3064  1.0000
  C   C32       1.0  0.34653  0.83194  0.31742  1.0000
  C   C33       1.0  0.4005699999999999  0.8070499999999999  0.35875  1.0000
  C   C34       1.0  0.2647299999999999  0.7820699999999998  0.3913100000000001  1.0000
  C   C35       1.0  0.11028000000000002  0.86237  0.26152  1.0000
  C   C36       1.0  0.9522899999999999  0.8403299999999999  0.23441000000000006  1.0000
  C   C37       1.0  0.91814  0.8657999999999999  0.19076  1.0000
  C   C38       1.0  0.04647999999999991  0.9130399999999997  0.17365000000000005  1.0000
  C   C39       1.0  0.2064899999999999  0.9355899999999999  0.19977  1.0000
  C   C40       1.0  0.23269999999999996  0.9107499999999998  0.24411000000000002  1.0000
  C   C41       1.0  0.74936  0.8431699999999999  0.16291  1.0000
  C   C42       1.0  0.572  0.8309999999999998  0.18505  1.0000
  C   C43       1.0  0.40921999999999986  0.8129699999999997  0.15982  1.0000
  C   C44       1.0  0.41698999999999997  0.8054499999999998  0.11078  1.0000
  C   C45       1.0  0.5941099999999999  0.81602  0.08767  1.0000
  C   C46       1.0  0.75703  0.83493  0.11435000000000001  1.0000
  C   C47       1.0  0.61105  0.80803  0.03653  1.0000
  C   C48       1.0  0.35027  0.98216  0.18060000000000004  1.0000
  C   C49       1.0  0.30815  0.026789999999999994  0.15067  1.0000
  C   C50       1.0  0.4499299999999999  0.06926  0.13189  1.0000
  C   C51       1.0  0.6415099999999998  0.06628  0.14342  1.0000
  C   C52       1.0  0.68374  0.021829999999999995  0.17387  1.0000
  C   C53       1.0  0.5418299999999998  0.9808599999999997  0.19168000000000002  1.0000
  C   C54       1.0  0.4008199999999999  0.1163  0.10096  1.0000
  C   C55       1.0  0.9183999999999998  0.25753  0.0872  1.0000
  C   C56       1.0  0.07193999999999996  0.2829999999999999  0.11916  1.0000
  C   C57       1.0  0.021739999999999964  0.30973999999999996  0.16116  1.0000
  C   C58       1.0  0.1564  0.33453  0.19361  1.0000
  C   C59       1.0  0.34654  0.33194  0.18258  1.0000
  C   C60       1.0  0.4005699999999999  0.3070399999999999  0.14125  1.0000
  C   C61       1.0  0.26472999999999997  0.28206999999999993  0.1087  1.0000
  C   C62       1.0  0.11027999999999993  0.3623699999999999  0.23848000000000003  1.0000
  C   C63       1.0  0.95229  0.34033  0.26559  1.0000
  C   C64       1.0  0.91814  0.36579  0.30924  1.0000
  C   C65       1.0  0.04647999999999997  0.41304  0.32635  1.0000
  C   C66       1.0  0.20648999999999992  0.43558999999999987  0.30023  1.0000
  C   C67       1.0  0.2327  0.41075  0.25589  1.0000
  C   C68       1.0  0.7493699999999999  0.3431699999999999  0.33709  1.0000
  C   C69       1.0  0.572  0.33099999999999996  0.31495  1.0000
  C   C70       1.0  0.40921999999999986  0.31297  0.34018000000000004  1.0000
  C   C71       1.0  0.41698999999999997  0.30543999999999993  0.3892200000000001  1.0000
  C   C72       1.0  0.5941099999999999  0.31601999999999997  0.41233  1.0000
  C   C73       1.0  0.7570299999999999  0.33492999999999995  0.3856500000000001  1.0000
  C   C74       1.0  0.61105  0.30803  0.46347  1.0000
  C   C75       1.0  0.35027  0.48216  0.31940000000000013  1.0000
  C   C76       1.0  0.30815  0.52679  0.3493300000000001  1.0000
  C   C77       1.0  0.4499299999999999  0.56926  0.36811  1.0000
  C   C78       1.0  0.6415099999999998  0.56628  0.35658  1.0000
  C   C79       1.0  0.68374  0.52184  0.32614000000000004  1.0000
  C   C80       1.0  0.5418399999999999  0.4808599999999999  0.30832  1.0000
  C   C81       1.0  0.4008199999999999  0.6162999999999998  0.3990400000000001  1.0000
  C   C82       1.0  0.08159999999999996  0.24246999999999996  0.5872  1.0000
  C   C83       1.0  0.92806  0.21699999999999994  0.6191600000000003  1.0000
  C   C84       1.0  0.97825  0.19026  0.66116  1.0000
  C   C85       1.0  0.8436  0.16546999999999998  0.69361  1.0000
  C   C86       1.0  0.65346  0.16806999999999997  0.68258  1.0000
  C   C87       1.0  0.59943  0.19295999999999994  0.64125  1.0000
  C   C88       1.0  0.7352599999999996  0.21794  0.6087  1.0000
  C   C89       1.0  0.8897199999999997  0.13763  0.73848  1.0000
  C   C90       1.0  0.04770999999999999  0.15968  0.76559  1.0000
  C   C91       1.0  0.08184999999999999  0.13420999999999997  0.8092400000000002  1.0000
  C   C92       1.0  0.9535199999999998  0.08696  0.82635  1.0000
  C   C93       1.0  0.7935099999999998  0.06441  0.8002300000000002  1.0000
  C   C94       1.0  0.76729  0.08925  0.75589  1.0000
  C   C95       1.0  0.25063  0.15684  0.83709  1.0000
  C   C96       1.0  0.4279999999999999  0.16900999999999994  0.81495  1.0000
  C   C97       1.0  0.59078  0.18703  0.84018  1.0000
  C   C98       1.0  0.5830099999999998  0.19456  0.88922  1.0000
  C   C99       1.0  0.40588999999999986  0.18398999999999996  0.91234  1.0000
  C   C100      1.0  0.24295999999999995  0.16507  0.8856500000000003  1.0000
  C   C101      1.0  0.3889499999999999  0.19196999999999995  0.96347  1.0000
  C   C102      1.0  0.6497299999999998  0.017839999999999998  0.8194  1.0000
  C   C103      1.0  0.6918499999999996  0.9732199999999998  0.84933  1.0000
  C   C104      1.0  0.55006  0.9307399999999998  0.86811  1.0000
  C   C105      1.0  0.35849  0.93372  0.85659  1.0000
  C   C106      1.0  0.31624999999999986  0.97817  0.82614  1.0000
  C   C107      1.0  0.4581599999999999  0.01914  0.80833  1.0000
  C   C108      1.0  0.5991699999999996  0.8837099999999999  0.89904  1.0000
  O   O1        1.0  0.68417  0.74072  0.9326500000000002  1.0000
  O   O2        1.0  0.07278000000000003  0.78689  0.94035  1.0000
  O   O3        1.0  0.23479999999999993  0.7197999999999998  0.91193  1.0000
  O   O4        1.0  0.7473299999999998  0.7110699999999998  0.58793  1.0000
  O   O5        1.0  0.5378699999999997  0.7169099999999998  0.51427  1.0000
  O   O6        1.0  0.23146  0.67416  0.51681  1.0000
  O   O7        1.0  0.77115  0.38127  0.59059  1.0000
  O   O8        1.0  0.4607799999999999  0.34607  0.58553  1.0000
  O   O9        1.0  0.2123399999999999  0.3961899999999999  0.6263800000000003  1.0000
  O   O10       1.0  0.31583  0.75929  0.43265  1.0000
  O   O11       1.0  0.9272199999999998  0.7131199999999999  0.44035000000000013  1.0000
  O   O12       1.0  0.7651899999999999  0.7802099999999997  0.41193  1.0000
  O   O13       1.0  0.2526699999999999  0.7889399999999998  0.08793  1.0000
  O   O14       1.0  0.46211999999999986  0.7831  0.01427  1.0000
  O   O15       1.0  0.76853  0.82584  0.01681  1.0000
  O   O16       1.0  0.22885000000000003  0.11874  0.09059  1.0000
  O   O17       1.0  0.53921  0.15393  0.08553  1.0000
  O   O18       1.0  0.7876599999999999  0.10380999999999999  0.12638  1.0000
  O   O19       1.0  0.31583  0.25928999999999996  0.06735  1.0000
  O   O20       1.0  0.9272199999999998  0.21312  0.059650000000000016  1.0000
  O   O21       1.0  0.76519  0.2802  0.08807  1.0000
  O   O22       1.0  0.25267  0.28894  0.41208  1.0000
  O   O23       1.0  0.46212999999999993  0.2831  0.48573  1.0000
  O   O24       1.0  0.76853  0.32583999999999996  0.48319  1.0000
  O   O25       1.0  0.22883999999999993  0.6187399999999998  0.4094100000000001  1.0000
  O   O26       1.0  0.53921  0.65393  0.41447  1.0000
  O   O27       1.0  0.7876599999999998  0.6038099999999998  0.37362  1.0000
  O   O28       1.0  0.68417  0.24070999999999998  0.56735  1.0000
  O   O29       1.0  0.07277999999999997  0.2868899999999999  0.55965  1.0000
  O   O30       1.0  0.23479999999999998  0.21979999999999997  0.58807  1.0000
  O   O31       1.0  0.7473299999999999  0.21105999999999997  0.9120800000000001  1.0000
  O   O32       1.0  0.53787  0.21689999999999995  0.9857300000000002  1.0000
  O   O33       1.0  0.23146999999999995  0.17415999999999998  0.98319  1.0000
  O   O34       1.0  0.7711499999999999  0.8812699999999999  0.90941  1.0000
  O   O35       1.0  0.4607799999999999  0.84608  0.9144700000000002  1.0000
  O   O36       1.0  0.21233999999999992  0.8961899999999999  0.87362  1.0000
