data_image0
_chemical_formula_structural       Cu12H72C88N32
_chemical_formula_sum              "Cu12 H72 C88 N32"
_cell_length_a       12.47421
_cell_length_b       16.36197
_cell_length_c       17.47559
_cell_angle_alpha    112.97659
_cell_angle_beta     89.97114000000002
_cell_angle_gamma    89.98879

_space_group_name_H-M_alt    "P 1"
_space_group_IT_number       1

loop_
  _space_group_symop_operation_xyz
  'x, y, z'

loop_
  _atom_site_type_symbol
  _atom_site_label
  _atom_site_symmetry_multiplicity
  _atom_site_fract_x
  _atom_site_fract_y
  _atom_site_fract_z
  _atom_site_occupancy
  Cu  Cu1       1.0  0.8243700000000002  0.47615  0.54879  1.0000
  Cu  Cu2       1.0  0.8967000000000002  0.38859  0.63191  1.0000
  Cu  Cu3       1.0  0.8930200000000001  0.92136  0.55703  1.0000
  Cu  Cu4       1.0  0.32383  0.5238200000000001  0.9511200000000002  1.0000
  Cu  Cu5       1.0  0.3968  0.61155  0.86814  1.0000
  Cu  Cu6       1.0  0.39317  0.07875000000000003  0.943  1.0000
  Cu  Cu7       1.0  0.17563000000000004  0.52385  0.45121  1.0000
  Cu  Cu8       1.0  0.10331  0.6114100000000001  0.36809  1.0000
  Cu  Cu9       1.0  0.10698  0.07863999999999997  0.44297  1.0000
  Cu  Cu10      1.0  0.6761700000000002  0.47618000000000016  0.048880000000000014  1.0000
  Cu  Cu11      1.0  0.6032  0.38845  0.13186  1.0000
  Cu  Cu12      1.0  0.60684  0.92125  0.057  1.0000
  H   H1        1.0  0.85401  0.7367900000000001  0.4514  1.0000
  H   H2        1.0  0.87231  0.5930600000000003  0.4660100000000001  1.0000
  H   H3        1.0  0.96  0.74087  0.7233500000000003  1.0000
  H   H4        1.0  0.9390300000000003  0.8778900000000001  0.6986800000000002  1.0000
  H   H5        1.0  0.04725  0.61876  0.69395  1.0000
  H   H6        1.0  0.22482000000000002  0.36420000000000013  0.8045500000000002  1.0000
  H   H7        1.0  0.11078000000000003  0.35797  0.68471  1.0000
  H   H8        1.0  0.02245  0.63028  0.82802  1.0000
  H   H9        1.0  0.13695  0.6248000000000002  0.9421100000000002  1.0000
  H   H10       1.0  0.64491  0.5096600000000002  0.3092  1.0000
  H   H11       1.0  0.71443  0.50092  0.4386200000000001  1.0000
  H   H12       1.0  0.8106800000000001  0.23052000000000006  0.29038000000000014  1.0000
  H   H13       1.0  0.73813  0.25089  0.16919  1.0000
  H   H14       1.0  0.8169100000000001  0.22456000000000012  0.4050700000000001  1.0000
  H   H15       1.0  0.0035200000000000006  0.09079999999999996  0.63639  1.0000
  H   H16       1.0  0.99254  0.23784  0.62804  1.0000
  H   H17       1.0  0.7434  0.13131  0.44322  1.0000
  H   H18       1.0  0.76084  0.9907099999999999  0.4602900000000001  1.0000
  H   H19       1.0  0.3541100000000001  0.2633500000000001  0.048630000000000013  1.0000
  H   H20       1.0  0.37254  0.40708  0.034  1.0000
  H   H21       1.0  0.46025000000000005  0.25911999999999996  0.77659  1.0000
  H   H22       1.0  0.43913  0.12215999999999999  0.8013  1.0000
  H   H23       1.0  0.5473  0.38149000000000005  0.8062000000000002  1.0000
  H   H24       1.0  0.72511  0.63565  0.6954  1.0000
  H   H25       1.0  0.61085  0.64197  0.8152800000000002  1.0000
  H   H26       1.0  0.52273  0.36966  0.672  1.0000
  H   H27       1.0  0.63737  0.3751  0.55792  1.0000
  H   H28       1.0  0.14488  0.49032999999999993  0.19087000000000007  1.0000
  H   H29       1.0  0.21395  0.4991  0.06132  1.0000
  H   H30       1.0  0.31028  0.76946  0.20948000000000006  1.0000
  H   H31       1.0  0.23800000000000004  0.74904  0.33075  1.0000
  H   H32       1.0  0.31621  0.7754600000000003  0.09478  1.0000
  H   H33       1.0  0.50301  0.90936  0.86351  1.0000
  H   H34       1.0  0.49219  0.76229  0.8718  1.0000
  H   H35       1.0  0.24291000000000001  0.86886  0.056880000000000014  1.0000
  H   H36       1.0  0.26032  0.009460000000000007  0.039860000000000013  1.0000
  H   H37       1.0  0.14599  0.26321  0.5486  1.0000
  H   H38       1.0  0.12769  0.4069300000000001  0.5339900000000002  1.0000
  H   H39       1.0  0.040000000000000015  0.25912  0.27665  1.0000
  H   H40       1.0  0.06098  0.12211  0.30132  1.0000
  H   H41       1.0  0.95276  0.3812400000000001  0.30605  1.0000
  H   H42       1.0  0.7751800000000001  0.6358  0.19545  1.0000
  H   H43       1.0  0.88922  0.6420200000000003  0.31529  1.0000
  H   H44       1.0  0.97755  0.3697100000000001  0.17198000000000005  1.0000
  H   H45       1.0  0.86305  0.3752  0.05789000000000001  1.0000
  H   H46       1.0  0.35509  0.49034000000000005  0.6908000000000002  1.0000
  H   H47       1.0  0.28558  0.4990800000000001  0.56138  1.0000
  H   H48       1.0  0.18932  0.76948  0.70962  1.0000
  H   H49       1.0  0.26187  0.7491100000000003  0.83081  1.0000
  H   H50       1.0  0.18309  0.7754400000000001  0.5949300000000002  1.0000
  H   H51       1.0  0.99648  0.9092  0.36361  1.0000
  H   H52       1.0  0.0074600000000000005  0.76216  0.37196  1.0000
  H   H53       1.0  0.25661  0.8686900000000002  0.55678  1.0000
  H   H54       1.0  0.23916  0.009290000000000086  0.5397100000000002  1.0000
  H   H55       1.0  0.64589  0.73664  0.95137  1.0000
  H   H56       1.0  0.62747  0.59292  0.966  1.0000
  H   H57       1.0  0.53975  0.74087  0.22341000000000005  1.0000
  H   H58       1.0  0.56087  0.87784  0.1987  1.0000
  H   H59       1.0  0.4527000000000001  0.6185000000000002  0.19380000000000006  1.0000
  H   H60       1.0  0.2749  0.36434  0.3046  1.0000
  H   H61       1.0  0.38915  0.35803  0.18472  1.0000
  H   H62       1.0  0.47728  0.63034  0.328  1.0000
  H   H63       1.0  0.36263  0.6249  0.44208  1.0000
  H   H64       1.0  0.8551200000000002  0.5096700000000001  0.8091300000000002  1.0000
  H   H65       1.0  0.78605  0.5009  0.9386800000000002  1.0000
  H   H66       1.0  0.68972  0.23053000000000015  0.7905200000000002  1.0000
  H   H67       1.0  0.762  0.2509500000000001  0.6692500000000002  1.0000
  H   H68       1.0  0.68379  0.22454000000000005  0.90522  1.0000
  H   H69       1.0  0.49699  0.09064  0.13649  1.0000
  H   H70       1.0  0.50781  0.2377  0.1282  1.0000
  H   H71       1.0  0.75709  0.1311400000000001  0.9431200000000002  1.0000
  H   H72       1.0  0.7396800000000002  0.99053  0.9601400000000002  1.0000
  C   C1        1.0  0.87651  0.73471  0.51064  1.0000
  C   C2        1.0  0.88573  0.6549  0.5193900000000002  1.0000
  C   C3        1.0  0.91827  0.6525000000000004  0.5960900000000002  1.0000
  C   C4        1.0  0.93768  0.73652  0.66176  1.0000
  C   C5        1.0  0.9255700000000002  0.81367  0.64856  1.0000
  C   C6        1.0  0.99074  0.56514  0.66221  1.0000
  C   C7        1.0  0.17824  0.42162000000000016  0.8073300000000002  1.0000
  C   C8        1.0  0.11524000000000001  0.41822  0.74099  1.0000
  C   C9        1.0  0.05903  0.4946  0.74447  1.0000
  C   C10       1.0  0.06719  0.57031  0.81956  1.0000
  C   C11       1.0  0.13028000000000003  0.5674200000000001  0.8835500000000002  1.0000
  C   C12       1.0  0.6818600000000001  0.44887000000000005  0.30758000000000013  1.0000
  C   C13       1.0  0.72145  0.4441400000000001  0.3794400000000001  1.0000
  C   C14       1.0  0.76826  0.3649300000000001  0.3786400000000001  1.0000
  C   C15       1.0  0.77332  0.29359  0.2991800000000001  1.0000
  C   C16       1.0  0.7325900000000001  0.30473  0.23014  1.0000
  C   C17       1.0  0.82699  0.28651000000000004  0.4592400000000001  1.0000
  C   C18       1.0  0.94733  0.10212999999999996  0.5941  1.0000
  C   C19       1.0  0.94118  0.18399000000000004  0.5887600000000002  1.0000
  C   C20       1.0  0.86807  0.2  0.53429  1.0000
  C   C21       1.0  0.80389  0.12543000000000004  0.48555  1.0000
  C   C22       1.0  0.8123000000000001  0.04627000000000001  0.49546  1.0000
  C   C23       1.0  0.37681000000000003  0.26542  0.9894100000000002  1.0000
  C   C24       1.0  0.3859800000000001  0.3452  0.98063  1.0000
  C   C25       1.0  0.41841000000000006  0.34759  0.90389  1.0000
  C   C26       1.0  0.43799  0.26356  0.83822  1.0000
  C   C27       1.0  0.42591000000000007  0.18642000000000009  0.8514500000000003  1.0000
  C   C28       1.0  0.49057  0.43503000000000003  0.8377700000000002  1.0000
  C   C29       1.0  0.67835  0.5783200000000001  0.69259  1.0000
  C   C30       1.0  0.61525  0.5817600000000002  0.7589400000000002  1.0000
  C   C31       1.0  0.55894  0.50544  0.75543  1.0000
  C   C32       1.0  0.5673  0.42968  0.6804  1.0000
  C   C33       1.0  0.63049  0.4325500000000001  0.6164000000000002  1.0000
  C   C34       1.0  0.18173  0.55111  0.19241000000000005  1.0000
  C   C35       1.0  0.22112000000000007  0.55587  0.12048  1.0000
  C   C36       1.0  0.26787  0.63507  0.12123000000000003  1.0000
  C   C37       1.0  0.27301  0.70639  0.20070000000000005  1.0000
  C   C38       1.0  0.23245000000000002  0.69522  0.2698100000000001  1.0000
  C   C39       1.0  0.32647  0.7135200000000002  0.04062  1.0000
  C   C40       1.0  0.4469600000000001  0.89803  0.9059200000000001  1.0000
  C   C41       1.0  0.44083000000000006  0.81615  0.9111900000000003  1.0000
  C   C42       1.0  0.36771  0.80013  0.9657000000000002  1.0000
  C   C43       1.0  0.30345  0.8747100000000001  0.01453  1.0000
  C   C44       1.0  0.31188  0.95392  0.00468  1.0000
  C   C45       1.0  0.12349000000000003  0.2652900000000001  0.48936000000000013  1.0000
  C   C46       1.0  0.11427000000000001  0.3451000000000001  0.4806100000000001  1.0000
  C   C47       1.0  0.08174  0.3475  0.40391  1.0000
  C   C48       1.0  0.06232  0.26348  0.33824  1.0000
  C   C49       1.0  0.07443  0.18632000000000004  0.35144  1.0000
  C   C50       1.0  0.00926  0.43486  0.3377900000000001  1.0000
  C   C51       1.0  0.82176  0.57838  0.19267000000000006  1.0000
  C   C52       1.0  0.88476  0.58177  0.25901  1.0000
  C   C53       1.0  0.9409700000000001  0.50539  0.25553  1.0000
  C   C54       1.0  0.9328100000000003  0.4296900000000001  0.18044000000000004  1.0000
  C   C55       1.0  0.86972  0.43258  0.11645  1.0000
  C   C56       1.0  0.31814  0.55113  0.6924200000000003  1.0000
  C   C57       1.0  0.27855  0.55586  0.62056  1.0000
  C   C58       1.0  0.23175000000000007  0.6350700000000001  0.6213600000000002  1.0000
  C   C59       1.0  0.22668  0.70641  0.7008200000000002  1.0000
  C   C60       1.0  0.26741  0.69527  0.76986  1.0000
  C   C61       1.0  0.17301  0.7134900000000001  0.5407600000000002  1.0000
  C   C62       1.0  0.05267  0.89787  0.4059  1.0000
  C   C63       1.0  0.058820000000000004  0.8160099999999999  0.41124  1.0000
  C   C64       1.0  0.13193  0.7999900000000001  0.4657100000000001  1.0000
  C   C65       1.0  0.19611000000000003  0.8745699999999998  0.51445  1.0000
  C   C66       1.0  0.1877  0.95373  0.50454  1.0000
  C   C67       1.0  0.62319  0.73458  0.010590000000000004  1.0000
  C   C68       1.0  0.61402  0.65479  0.01937  1.0000
  C   C69       1.0  0.58159  0.6524100000000003  0.09611  1.0000
  C   C70       1.0  0.5620200000000001  0.73644  0.16178  1.0000
  C   C71       1.0  0.57409  0.81358  0.14855  1.0000
  C   C72       1.0  0.50943  0.56497  0.16223  1.0000
  C   C73       1.0  0.32165  0.42167  0.30741  1.0000
  C   C74       1.0  0.38475  0.4182400000000001  0.24106  1.0000
  C   C75       1.0  0.44106  0.49456000000000006  0.24457000000000007  1.0000
  C   C76       1.0  0.4327  0.57032  0.3196  1.0000
  C   C77       1.0  0.36951  0.56745  0.3836  1.0000
  C   C78       1.0  0.8182700000000003  0.44888  0.80759  1.0000
  C   C79       1.0  0.77888  0.44413000000000014  0.8795200000000002  1.0000
  C   C80       1.0  0.7321400000000001  0.36492  0.87877  1.0000
  C   C81       1.0  0.72699  0.29361  0.7993  1.0000
  C   C82       1.0  0.76756  0.3047800000000002  0.7301900000000002  1.0000
  C   C83       1.0  0.67353  0.28648  0.95938  1.0000
  C   C84       1.0  0.55304  0.10197  0.09408000000000002  1.0000
  C   C85       1.0  0.55917  0.18385000000000004  0.08881000000000003  1.0000
  C   C86       1.0  0.63229  0.19987  0.0343  1.0000
  C   C87       1.0  0.69655  0.12529000000000015  0.9854700000000002  1.0000
  C   C88       1.0  0.6881200000000001  0.04608000000000003  0.99532  1.0000
  N   N1        1.0  0.89555  0.81543  0.57381  1.0000
  N   N2        1.0  0.9252700000000003  0.57231  0.6045200000000002  1.0000
  N   N3        1.0  0.99505  0.49158999999999997  0.67817  1.0000
  N   N4        1.0  0.18771  0.49515000000000003  0.87875  1.0000
  N   N5        1.0  0.68484  0.38005000000000005  0.23186000000000007  1.0000
  N   N6        1.0  0.8037900000000001  0.36386000000000013  0.4530700000000001  1.0000
  N   N7        1.0  0.8631800000000002  0.2823300000000001  0.52986  1.0000
  N   N8        1.0  0.88168  0.03186000000000009  0.5498200000000002  1.0000
  N   N9        1.0  0.39596  0.18469000000000005  0.9262400000000002  1.0000
  N   N10       1.0  0.42503000000000013  0.42778000000000005  0.8954200000000002  1.0000
  N   N11       1.0  0.49481  0.5085100000000002  0.82171  1.0000
  N   N12       1.0  0.68784  0.50481  0.62113  1.0000
  N   N13       1.0  0.18483  0.61989  0.2681600000000001  1.0000
  N   N14       1.0  0.30329  0.6361600000000001  0.04677  1.0000
  N   N15       1.0  0.3629200000000001  0.71776  0.97007  1.0000
  N   N16       1.0  0.38133000000000006  0.9683400000000001  0.95033  1.0000
  N   N17       1.0  0.10445  0.18457  0.42619  1.0000
  N   N18       1.0  0.07473  0.42769  0.3954800000000001  1.0000
  N   N19       1.0  0.004950000000000001  0.50841  0.32183  1.0000
  N   N20       1.0  0.81229  0.50485  0.12125  1.0000
  N   N21       1.0  0.31516  0.61995  0.76814  1.0000
  N   N22       1.0  0.19621  0.63614  0.54693  1.0000
  N   N23       1.0  0.13682  0.71767  0.47014  1.0000
  N   N24       1.0  0.11832000000000002  0.9681400000000002  0.45018000000000014  1.0000
  N   N25       1.0  0.60404  0.81531  0.07376  1.0000
  N   N26       1.0  0.57497  0.57222  0.10458000000000003  1.0000
  N   N27       1.0  0.50519  0.4914899999999999  0.17829  1.0000
  N   N28       1.0  0.31216  0.4951800000000002  0.3788700000000001  1.0000
  N   N29       1.0  0.81517  0.3801100000000001  0.7318400000000003  1.0000
  N   N30       1.0  0.69672  0.36384  0.95323  1.0000
  N   N31       1.0  0.63708  0.28223  0.02993  1.0000
  N   N32       1.0  0.61867  0.03166  0.04967  1.0000
