data_image0
_chemical_formula_structural       Zn6H48C102O24F36
_chemical_formula_sum              "Zn6 H48 C102 O24 F36"
_cell_length_a       7.73306
_cell_length_b       21.3511
_cell_length_c       21.339179999999995
_cell_angle_alpha    119.9978
_cell_angle_beta     89.99508
_cell_angle_gamma    89.98926

_symmetry_space_group_name_H-M    'P 1'
_symmetry_Int_Tables_number       1

loop_
  _symmetry_equiv_pos_as_xyz
  'x,y,z'

loop_
  _atom_site_type_symbol
  _atom_site_label
  _atom_site_symmetry_multiplicity
  _atom_site_fract_x
  _atom_site_fract_y
  _atom_site_fract_z
  _atom_site_occupancy
  Zn  Zn1       1.0  0.8533899999999998  0.36565999999999993  0.73149  1.0000
  Zn  Zn2       1.0  0.5200399999999997  0.96793  0.0319  1.0000
  Zn  Zn3       1.0  0.5201899999999998  0.36593999999999993  0.63411  1.0000
  Zn  Zn4       1.0  0.18669  0.06421  0.03211  1.0000
  Zn  Zn5       1.0  0.1868  0.26827999999999996  0.63404  1.0000
  Zn  Zn6       1.0  0.85327  0.9678099999999997  0.9357  1.0000
  H   H1        1.0  0.0611  0.6000299999999998  0.92112  1.0000
  H   H2        1.0  0.5067  0.30137  0.80824  1.0000
  H   H3        1.0  0.17319  0.8271099999999999  0.96901  1.0000
  H   H4        1.0  0.98487  0.26083999999999996  0.08167  1.0000
  H   H5        1.0  0.5309399999999997  0.14176999999999992  0.96884  1.0000
  H   H6        1.0  0.054289999999999984  0.4161  0.92731  1.0000
  H   H7        1.0  0.71822  0.8214  0.08176  1.0000
  H   H8        1.0  0.19839  0.5062  0.80845  1.0000
  H   H9        1.0  0.30828  0.7327099999999999  0.9878300000000001  1.0000
  H   H10       1.0  0.6423299999999997  0.3203099999999999  0.92144  1.0000
  H   H11       1.0  0.18798  0.43664  0.04028  1.0000
  H   H12       1.0  0.3942699999999999  0.2547099999999998  0.9881499999999999  1.0000
  H   H13       1.0  0.65044  0.5122  0.92852  1.0000
  H   H14       1.0  0.51479  0.60412  0.04103  1.0000
  H   H15       1.0  0.8509299999999997  0.3734  0.10185  1.0000
  H   H16       1.0  0.8513599999999998  0.72871  0.1021  1.0000
  H   H17       1.0  0.72763  0.32121  0.39996  1.0000
  H   H18       1.0  0.17361  0.50716  0.69864  1.0000
  H   H19       1.0  0.8399399999999998  0.14192  0.1729  1.0000
  H   H20       1.0  0.6516899999999998  0.8206399999999998  0.73844  1.0000
  H   H21       1.0  0.19762  0.8267199999999999  0.85767  1.0000
  H   H22       1.0  0.72098  0.51133  0.58392  1.0000
  H   H23       1.0  0.38497  0.26029  0.17855  1.0000
  H   H24       1.0  0.8650199999999998  0.3022599999999999  0.49375  1.0000
  H   H25       1.0  0.97499  0.25509  0.2672  1.0000
  H   H26       1.0  0.3092499999999999  0.60107  0.67928  1.0000
  H   H27       1.0  0.85468  0.60346  0.56305  1.0000
  H   H28       1.0  0.061499999999999985  0.73301  0.74461  1.0000
  H   H29       1.0  0.3171  0.41623  0.4877  1.0000
  H   H30       1.0  0.18145999999999995  0.43673  0.39569  1.0000
  H   H31       1.0  0.51765  0.72827  0.62577  1.0000
  H   H32       1.0  0.5180399999999997  0.37331  0.27114  1.0000
  H   H33       1.0  0.3944999999999999  0.07883999999999998  0.67887  1.0000
  H   H34       1.0  0.8402999999999998  0.19156  0.49292  1.0000
  H   H35       1.0  0.50638  0.030989999999999955  0.85819  1.0000
  H   H36       1.0  0.31819999999999987  0.9182899999999999  0.17919  1.0000
  H   H37       1.0  0.86415  0.031149999999999997  0.1729  1.0000
  H   H38       1.0  0.38771  0.07276  0.48884  1.0000
  H   H39       1.0  0.05166  0.9183  0.73972  1.0000
  H   H40       1.0  0.53175  0.19149  0.69776  1.0000
  H   H41       1.0  0.64158  0.01221  0.74495  1.0000
  H   H42       1.0  0.9757399999999998  0.07835999999999996  0.39878  1.0000
  H   H43       1.0  0.52127  0.95978  0.3965  1.0000
  H   H44       1.0  0.7274399999999998  0.011729999999999999  0.26654  1.0000
  H   H45       1.0  0.9839299999999997  0.07150999999999998  0.58373  1.0000
  H   H46       1.0  0.84834  0.95904  0.56314  1.0000
  H   H47       1.0  0.18413  0.89804  0.27155  1.0000
  H   H48       1.0  0.18482999999999994  0.8979399999999998  0.62663  1.0000
  C   C1        1.0  0.18558  0.34452  0.79262  1.0000
  C   C2        1.0  0.8546999999999998  0.12608  0.01095  1.0000
  C   C3        1.0  0.5213899999999998  0.44838  0.79304  1.0000
  C   C4        1.0  0.8515099999999998  0.88533  0.01127  1.0000
  C   C5        1.0  0.43513  0.50396  0.86083  1.0000
  C   C6        1.0  0.76851  0.19370999999999997  0.02293  1.0000
  C   C7        1.0  0.27045999999999987  0.3565499999999999  0.86041  1.0000
  C   C8        1.0  0.93572  0.82943  0.02319  1.0000
  C   C9        1.0  0.19033  0.5811899999999999  0.92328  1.0000
  C   C10       1.0  0.4370999999999999  0.33005999999999996  0.85922  1.0000
  C   C11       1.0  0.10284999999999997  0.8044399999999999  0.9971599999999999  1.0000
  C   C12       1.0  0.85585  0.25975  0.06097  1.0000
  C   C13       1.0  0.60087  0.19265000000000002  0.99724  1.0000
  C   C14       1.0  0.1828  0.39504  0.92642  1.0000
  C   C15       1.0  0.8470899999999998  0.8014600000000001  0.06103000000000001  1.0000
  C   C16       1.0  0.26786  0.52875  0.85949  1.0000
  C   C17       1.0  0.61206  0.32287  0.04617  1.0000
  C   C18       1.0  0.17884  0.75174  0.00838  1.0000
  C   C19       1.0  0.51346  0.3413799999999999  0.92313  1.0000
  C   C20       1.0  0.08963999999999997  0.72301  0.04574  1.0000
  C   C21       1.0  0.25946  0.40637999999999996  0.9902700000000001  1.0000
  C   C22       1.0  0.5186899999999998  0.3920999999999999  0.05857  1.0000
  C   C23       1.0  0.52371  0.25654  0.00883  1.0000
  C   C24       1.0  0.1834  0.66696  0.05893  1.0000
  C   C25       1.0  0.52159  0.53184  0.92715  1.0000
  C   C26       1.0  0.4437199999999999  0.58418  0.99089  1.0000
  C   C27       1.0  0.77876  0.32353999999999994  0.07232  1.0000
  C   C28       1.0  0.6456099999999999  0.45655  0.08027  1.0000
  C   C29       1.0  0.9233599999999997  0.74882  0.07226  1.0000
  C   C30       1.0  0.3908599999999999  0.4144599999999999  0.12319000000000001  1.0000
  C   C31       1.0  0.27767  0.6100699999999999  0.9898599999999999  1.0000
  C   C32       1.0  0.4252199999999999  0.37936000000000014  0.9894100000000001  1.0000
  C   C33       1.0  0.30986  0.71045  0.12337  1.0000
  C   C34       1.0  0.05663  0.62462  0.08122  1.0000
  C   C35       1.0  0.8523699999999997  0.44823  0.6555  1.0000
  C   C36       1.0  0.52155  0.88456  0.8735100000000001  1.0000
  C   C37       1.0  0.18793999999999994  0.34466  0.55156  1.0000
  C   C38       1.0  0.5182299999999997  0.12595  0.11469  1.0000
  C   C39       1.0  0.10169  0.35686  0.49598  1.0000
  C   C40       1.0  0.43553  0.8289  0.80575  1.0000
  C   C41       1.0  0.9372399999999997  0.5039999999999999  0.64345  1.0000
  C   C42       1.0  0.60244  0.19373  0.17059  1.0000
  C   C43       1.0  0.8568799999999998  0.34213999999999994  0.41879  1.0000
  C   C44       1.0  0.10393999999999998  0.52932  0.66984  1.0000
  C   C45       1.0  0.7695599999999998  0.19270999999999996  0.19555  1.0000
  C   C46       1.0  0.52281  0.80097  0.73961  1.0000
  C   C47       1.0  0.26786  0.80426  0.8068  1.0000
  C   C48       1.0  0.8495799999999998  0.53145  0.60491  1.0000
  C   C49       1.0  0.51383  0.25952  0.1985  1.0000
  C   C50       1.0  0.93442  0.33076  0.47121  1.0000
  C   C51       1.0  0.2791799999999999  0.7230499999999999  0.67648  1.0000
  C   C52       1.0  0.8455499999999998  0.25662  0.24819  1.0000
  C   C53       1.0  0.18029  0.58177  0.65831  1.0000
  C   C54       1.0  0.7563599999999998  0.32271  0.2769  1.0000
  C   C55       1.0  0.92626  0.5838399999999999  0.59339  1.0000
  C   C56       1.0  0.18571  0.66637  0.60729  1.0000
  C   C57       1.0  0.19086  0.75195  0.74285  1.0000
  C   C58       1.0  0.8500399999999998  0.3919499999999999  0.33297  1.0000
  C   C59       1.0  0.18822  0.39524999999999993  0.46808000000000005  1.0000
  C   C60       1.0  0.11037999999999998  0.4066299999999999  0.41572  1.0000
  C   C61       1.0  0.44572  0.74856  0.67575  1.0000
  C   C62       1.0  0.31227  0.62317  0.54256  1.0000
  C   C63       1.0  0.5900999999999997  0.32339999999999997  0.25108  1.0000
  C   C64       1.0  0.05768  0.70873  0.58531  1.0000
  C   C65       1.0  0.94428  0.37978999999999996  0.38988  1.0000
  C   C66       1.0  0.09219  0.60997  0.6202  1.0000
  C   C67       1.0  0.97652  0.41289  0.28949  1.0000
  C   C68       1.0  0.7233  0.45659  0.37536  1.0000
  C   C69       1.0  0.51904  0.20734999999999995  0.55183  1.0000
  C   C70       1.0  0.18812  0.9890699999999998  0.11514  1.0000
  C   C71       1.0  0.8546699999999998  0.20690999999999998  0.65531  1.0000
  C   C72       1.0  0.18501  0.9886899999999998  0.8740799999999999  1.0000
  C   C73       1.0  0.76847  0.13915000000000002  0.64311  1.0000
  C   C74       1.0  0.10185999999999998  0.9770499999999998  0.17078  1.0000
  C   C75       1.0  0.60393  0.13955999999999996  0.49607999999999997  1.0000
  C   C76       1.0  0.26916  0.97681  0.80627  1.0000
  C   C77       1.0  0.52373  0.07669999999999999  0.65788  1.0000
  C   C78       1.0  0.77057  0.14067  0.47073999999999994  1.0000
  C   C79       1.0  0.43619  0.0028400000000000187  0.80734  1.0000
  C   C80       1.0  0.18915999999999994  0.9389799999999999  0.19878  1.0000
  C   C81       1.0  0.9341299999999998  0.0027200000000000076  0.19537  1.0000
  C   C82       1.0  0.51622  0.07361999999999998  0.46865  1.0000
  C   C83       1.0  0.18052  0.9389799999999999  0.74046  1.0000
  C   C84       1.0  0.6012  0.14047  0.66924  1.0000
  C   C85       1.0  0.94532  0.9537699999999999  0.27669  1.0000
  C   C86       1.0  0.51221  0.9916499999999999  0.74342  1.0000
  C   C87       1.0  0.84683  0.07673999999999999  0.41818  1.0000
  C   C88       1.0  0.4230699999999999  0.9542899999999999  0.67731  1.0000
  C   C89       1.0  0.5927699999999999  0.009740000000000033  0.41615  1.0000
  C   C90       1.0  0.85196  0.94138  0.33354  1.0000
  C   C91       1.0  0.8569399999999998  0.99111  0.24769000000000002  1.0000
  C   C92       1.0  0.51685  0.9411099999999999  0.60805  1.0000
  C   C93       1.0  0.8550099999999998  0.07285999999999994  0.6047  1.0000
  C   C94       1.0  0.77719  0.009140000000000021  0.5933  1.0000
  C   C95       1.0  0.11201999999999997  0.9276  0.25123  1.0000
  C   C96       1.0  0.97894  0.9197199999999999  0.37629  1.0000
  C   C97       1.0  0.25681999999999994  0.92776  0.67658  1.0000
  C   C98       1.0  0.72417  0.8768  0.2913  1.0000
  C   C99       1.0  0.6110999999999999  0.010140000000000014  0.62018  1.0000
  C   C100      1.0  0.7585099999999998  0.010539999999999952  0.38994  1.0000
  C   C101      1.0  0.64327  0.8766499999999999  0.5871  1.0000
  C   C102      1.0  0.39005999999999996  0.91883  0.54342  1.0000
  O   O1        1.0  0.70557  0.90915  0.04139  1.0000
  O   O2        1.0  0.03983  0.3749  0.79925  1.0000
  O   O3        1.0  0.7741099999999997  0.06653  0.97121  1.0000
  O   O4        1.0  0.66733  0.42480000000000007  0.79979  1.0000
  O   O5        1.0  0.44125  0.42868  0.73338  1.0000
  O   O6        1.0  0.93335  0.9050199999999999  0.97166  1.0000
  O   O7        1.0  0.2665  0.30473  0.73313  1.0000
  O   O8        1.0  0.00064  0.13278  0.04124  1.0000
  O   O9        1.0  0.37232  0.13235  0.09093  1.0000
  O   O10       1.0  0.70664  0.42450999999999994  0.62509  1.0000
  O   O11       1.0  0.4406799999999999  0.9044899999999998  0.93309  1.0000
  O   O12       1.0  0.33387  0.37498  0.57512  1.0000
  O   O13       1.0  0.10785  0.30472  0.57127  1.0000
  O   O14       1.0  0.59997  0.06663  0.09493  1.0000
  O   O15       1.0  0.9332099999999998  0.42846  0.69525  1.0000
  O   O16       1.0  0.6675999999999997  0.90817  0.86697  1.0000
  O   O17       1.0  0.03927  0.9584699999999996  0.8677199999999999  1.0000
  O   O18       1.0  0.37328  0.2006799999999999  0.57555  1.0000
  O   O19       1.0  0.10730999999999997  0.028759999999999997  0.09531  1.0000
  O   O20       1.0  0.0006099999999999999  0.20016999999999993  0.62498  1.0000
  O   O21       1.0  0.7744799999999997  0.26654  0.69526  1.0000
  O   O22       1.0  0.26667  0.028370000000000006  0.9334  1.0000
  O   O23       1.0  0.59986  0.26682  0.57154  1.0000
  O   O24       1.0  0.33416  0.9588799999999998  0.09153  1.0000
  F   F1        1.0  0.9887599999999998  0.66655  0.14868  1.0000
  F   F2        1.0  0.44365  0.7368499999999999  0.10172  1.0000
  F   F3        1.0  0.37759  0.66941  0.14956  1.0000
  F   F4        1.0  0.25787  0.36568  0.10202  1.0000
  F   F5        1.0  0.92383  0.59691  0.03242  1.0000
  F   F6        1.0  0.7177399999999998  0.47987  0.14644  1.0000
  F   F7        1.0  0.32263  0.48182000000000014  0.14868  1.0000
  F   F8        1.0  0.77677  0.4377099999999999  0.03139  1.0000
  F   F9        1.0  0.13383  0.5680299999999999  0.08221  1.0000
  F   F10       1.0  0.56621  0.5144  0.08261  1.0000
  F   F11       1.0  0.23296  0.76804  0.18042  1.0000
  F   F12       1.0  0.46732  0.41545  0.18088  1.0000
  F   F13       1.0  0.65552  0.48217  0.33347  1.0000
  F   F14       1.0  0.11034  0.36484999999999995  0.26309  1.0000
  F   F15       1.0  0.044249999999999984  0.48009  0.33059  1.0000
  F   F16       1.0  0.9247099999999998  0.7363199999999999  0.63421  1.0000
  F   F17       1.0  0.59048  0.43549  0.40307  1.0000
  F   F18       1.0  0.38471  0.6642899999999999  0.51738  1.0000
  F   F19       1.0  0.9894599999999998  0.66687  0.51795  1.0000
  F   F20       1.0  0.44331  0.59367  0.56214  1.0000
  F   F21       1.0  0.8005099999999998  0.51414  0.43199  1.0000
  F   F22       1.0  0.2322  0.56756  0.48528  1.0000
  F   F23       1.0  0.89964  0.41238  0.23191  1.0000
  F   F24       1.0  0.13415  0.7654299999999999  0.58444  1.0000
  F   F25       1.0  0.32238  0.8513999999999999  0.51792  1.0000
  F   F26       1.0  0.7770599999999998  0.89826  0.63514  1.0000
  F   F27       1.0  0.7110399999999998  0.85047  0.51985  1.0000
  F   F28       1.0  0.59116  0.898  0.26369  1.0000
  F   F29       1.0  0.25718  0.9675999999999998  0.5645  1.0000
  F   F30       1.0  0.051079999999999987  0.8535699999999999  0.33344  1.0000
  F   F31       1.0  0.65598  0.85126  0.33315  1.0000
  F   F32       1.0  0.11004  0.9685899999999997  0.40632  1.0000
  F   F33       1.0  0.4672  0.91783  0.48581  1.0000
  F   F34       1.0  0.89954  0.9173899999999999  0.43182  1.0000
  F   F35       1.0  0.56632  0.81964  0.58765  1.0000
  F   F36       1.0  0.80065  0.81914  0.23458  1.0000
