data_image0
_chemical_formula_structural       Cu6H56C80N16O16
_chemical_formula_sum              "Cu6 H56 C80 N16 O16"
_cell_length_a       11.92895
_cell_length_b       24.20896
_cell_length_c       24.2092
_cell_angle_alpha    83.37354
_cell_angle_beta     75.67608
_cell_angle_gamma    75.67594

_space_group_name_H-M_alt    "P 1"
_space_group_IT_number       1

loop_
  _space_group_symop_operation_xyz
  'x, y, z'

loop_
  _atom_site_type_symbol
  _atom_site_label
  _atom_site_symmetry_multiplicity
  _atom_site_fract_x
  _atom_site_fract_y
  _atom_site_fract_z
  _atom_site_occupancy
  Cu  Cu1       1.0  0.5  0.0  0.0  1.0000
  Cu  Cu2       1.0  0.9999999999999999  0.5  0.5  1.0000
  Cu  Cu3       1.0  0.58418  0.02212999999999999  0.47793000000000013  1.0000
  Cu  Cu4       1.0  0.5841700000000001  0.47793  0.022130000000000007  1.0000
  Cu  Cu5       1.0  0.41582  0.9778599999999998  0.52207  1.0000
  Cu  Cu6       1.0  0.4158199999999998  0.52207  0.9778700000000002  1.0000
  H   H1        1.0  0.45777000000000007  0.031109999999999995  0.87529  1.0000
  H   H2        1.0  0.7023  0.05015  0.62696  1.0000
  H   H3        1.0  0.46957  0.96227  0.79889  1.0000
  H   H4        1.0  0.42522  0.9630899999999999  0.70244  1.0000
  H   H5        1.0  0.7431600000000002  0.05342  0.7234800000000001  1.0000
  H   H6        1.0  0.8254199999999997  0.98451  0.79982  1.0000
  H   H7        1.0  0.7924999999999999  0.98981  0.91685  1.0000
  H   H8        1.0  0.8621399999999999  0.4698  0.6247200000000002  1.0000
  H   H9        1.0  0.8767000000000003  0.44982  0.8728  1.0000
  H   H10       1.0  0.7288199999999997  0.53858  0.7009600000000002  1.0000
  H   H11       1.0  0.58813  0.53699  0.7972700000000001  1.0000
  H   H12       1.0  0.01806999999999997  0.44716999999999996  0.7763900000000001  1.0000
  H   H13       1.0  0.10876000000000004  0.51541  0.69985  1.0000
  H   H14       1.0  0.19861999999999988  0.50963  0.58279  1.0000
  H   H15       1.0  0.13784999999999997  0.37528  0.5302000000000001  1.0000
  H   H16       1.0  0.12328999999999991  0.1272  0.5501800000000001  1.0000
  H   H17       1.0  0.27118000000000003  0.29904  0.46141000000000004  1.0000
  H   H18       1.0  0.41187000000000007  0.20272999999999997  0.46301  1.0000
  H   H19       1.0  0.98192  0.22361  0.55283  1.0000
  H   H20       1.0  0.8912399999999998  0.30015  0.4845900000000001  1.0000
  H   H21       1.0  0.80137  0.41721  0.49037000000000003  1.0000
  H   H22       1.0  0.54222  0.12470999999999997  0.9688900000000003  1.0000
  H   H23       1.0  0.2977000000000001  0.37304  0.9498500000000001  1.0000
  H   H24       1.0  0.53042  0.20111  0.03772  1.0000
  H   H25       1.0  0.57477  0.29757  0.03691  1.0000
  H   H26       1.0  0.25683000000000006  0.27652  0.94658  1.0000
  H   H27       1.0  0.17458  0.20017999999999997  0.01549  1.0000
  H   H28       1.0  0.2075  0.08314  0.01019  1.0000
  H   H29       1.0  0.54222  0.96889  0.12471000000000002  1.0000
  H   H30       1.0  0.29769999999999985  0.94985  0.37305  1.0000
  H   H31       1.0  0.53042  0.03771999999999998  0.20112000000000005  1.0000
  H   H32       1.0  0.5747700000000002  0.03691  0.29757  1.0000
  H   H33       1.0  0.25683  0.94658  0.27652  1.0000
  H   H34       1.0  0.17457  0.01549  0.20018000000000002  1.0000
  H   H35       1.0  0.20750000000000002  0.01019  0.08315  1.0000
  H   H36       1.0  0.13784999999999997  0.5302  0.37528  1.0000
  H   H37       1.0  0.1233  0.55018  0.1272  1.0000
  H   H38       1.0  0.2711799999999999  0.46141  0.29904000000000003  1.0000
  H   H39       1.0  0.41187000000000007  0.46299999999999997  0.20274000000000006  1.0000
  H   H40       1.0  0.9819299999999997  0.55283  0.22361000000000003  1.0000
  H   H41       1.0  0.8912399999999998  0.48458  0.30015  1.0000
  H   H42       1.0  0.80137  0.49037  0.41721  1.0000
  H   H43       1.0  0.8621399999999996  0.62472  0.4698  1.0000
  H   H44       1.0  0.8767000000000003  0.8727999999999999  0.44982  1.0000
  H   H45       1.0  0.72882  0.70096  0.53859  1.0000
  H   H46       1.0  0.58813  0.79726  0.537  1.0000
  H   H47       1.0  0.01807000000000001  0.77639  0.44717000000000007  1.0000
  H   H48       1.0  0.10875999999999988  0.69984  0.5154200000000001  1.0000
  H   H49       1.0  0.19862  0.58279  0.50963  1.0000
  H   H50       1.0  0.45777000000000007  0.87529  0.03111  1.0000
  H   H51       1.0  0.7023  0.62695  0.050150000000000014  1.0000
  H   H52       1.0  0.46956999999999993  0.79888  0.9622800000000001  1.0000
  H   H53       1.0  0.4252300000000001  0.70243  0.96309  1.0000
  H   H54       1.0  0.7431600000000003  0.72348  0.053420000000000016  1.0000
  H   H55       1.0  0.8254199999999999  0.7998199999999999  0.9845100000000001  1.0000
  H   H56       1.0  0.79249  0.91685  0.98981  1.0000
  C   C1        1.0  0.5525600000000002  0.018019999999999998  0.87215  1.0000
  C   C2        1.0  0.5611300000000001  0.006759999999999989  0.6593500000000001  1.0000
  C   C3        1.0  0.53723  0.0051299999999999965  0.60121  1.0000
  C   C4        1.0  0.60854  0.008029999999999997  0.7665900000000001  1.0000
  C   C5        1.0  0.6515699999999999  0.031709999999999995  0.6651700000000002  1.0000
  C   C6        1.0  0.5183000000000002  0.9827499999999998  0.7614500000000001  1.0000
  C   C7        1.0  0.4943399999999999  0.98263  0.7079300000000002  1.0000
  C   C8        1.0  0.67488  0.03298000000000001  0.71863  1.0000
  C   C9        1.0  0.74582  0.99498  0.83324  1.0000
  C   C10       1.0  0.7270299999999998  0.9974  0.8913100000000002  1.0000
  C   C11       1.0  0.9410500000000002  0.48258999999999996  0.62776  1.0000
  C   C12       1.0  0.72457  0.49329  0.8403900000000002  1.0000
  C   C13       1.0  0.6405199999999999  0.49490999999999996  0.8984400000000002  1.0000
  C   C14       1.0  0.88114  0.49249  0.73324  1.0000
  C   C15       1.0  0.8459400000000001  0.46840999999999994  0.8346  1.0000
  C   C16       1.0  0.7602999999999999  0.51774  0.73835  1.0000
  C   C17       1.0  0.6824200000000001  0.51754  0.7918200000000001  1.0000
  C   C18       1.0  0.9242899999999997  0.46740999999999994  0.7811800000000001  1.0000
  C   C19       1.0  0.07274999999999998  0.50517  0.66651  1.0000
  C   C20       1.0  0.11480999999999993  0.50245  0.6084800000000001  1.0000
  C   C21       1.0  0.058949999999999975  0.37224  0.51741  1.0000
  C   C22       1.0  0.27543  0.15960999999999997  0.5067100000000001  1.0000
  C   C23       1.0  0.35947  0.10156  0.50509  1.0000
  C   C24       1.0  0.11886  0.26676  0.50751  1.0000
  C   C25       1.0  0.15405000000000002  0.1654  0.53159  1.0000
  C   C26       1.0  0.2397  0.26165  0.48226000000000013  1.0000
  C   C27       1.0  0.3175699999999999  0.20817999999999998  0.4824600000000001  1.0000
  C   C28       1.0  0.0757  0.21882  0.53259  1.0000
  C   C29       1.0  0.9272400000000001  0.33349  0.4948300000000001  1.0000
  C   C30       1.0  0.88519  0.39152999999999993  0.49755  1.0000
  C   C31       1.0  0.44742999999999994  0.12785  0.98198  1.0000
  C   C32       1.0  0.43887000000000004  0.34065  0.99325  1.0000
  C   C33       1.0  0.4627699999999999  0.39879  0.9948700000000003  1.0000
  C   C34       1.0  0.39144999999999985  0.23341  0.9919700000000002  1.0000
  C   C35       1.0  0.3484300000000001  0.3348299999999999  0.96829  1.0000
  C   C36       1.0  0.48169  0.23855  0.01725  1.0000
  C   C37       1.0  0.50565  0.29207  0.01737  1.0000
  C   C38       1.0  0.32511999999999996  0.28137  0.9670200000000002  1.0000
  C   C39       1.0  0.25418  0.16676  0.005020000000000001  1.0000
  C   C40       1.0  0.27297  0.10869  0.0026  1.0000
  C   C41       1.0  0.44743  0.9819799999999999  0.12785000000000002  1.0000
  C   C42       1.0  0.43887  0.99324  0.34066  1.0000
  C   C43       1.0  0.46277000000000007  0.9948699999999999  0.39879000000000003  1.0000
  C   C44       1.0  0.39145  0.99196  0.23341  1.0000
  C   C45       1.0  0.3484300000000001  0.96829  0.33483000000000007  1.0000
  C   C46       1.0  0.48169  0.01725  0.23856000000000002  1.0000
  C   C47       1.0  0.50565  0.01736  0.29207  1.0000
  C   C48       1.0  0.3251200000000002  0.9670199999999999  0.28137  1.0000
  C   C49       1.0  0.25416999999999995  0.005019999999999999  0.16677000000000003  1.0000
  C   C50       1.0  0.27297  0.0025899999999999977  0.10869000000000002  1.0000
  C   C51       1.0  0.05894999999999994  0.51741  0.3722400000000001  1.0000
  C   C52       1.0  0.27542999999999995  0.5067  0.15962  1.0000
  C   C53       1.0  0.35947  0.50509  0.10156  1.0000
  C   C54       1.0  0.11886000000000002  0.5075  0.26676  1.0000
  C   C55       1.0  0.15405999999999992  0.53159  0.16540000000000002  1.0000
  C   C56       1.0  0.2397  0.48226  0.26165000000000005  1.0000
  C   C57       1.0  0.31757  0.48246  0.20818  1.0000
  C   C58       1.0  0.07569999999999999  0.53259  0.21882  1.0000
  C   C59       1.0  0.9272400000000002  0.49482999999999994  0.33349000000000006  1.0000
  C   C60       1.0  0.8851900000000001  0.49754  0.39152  1.0000
  C   C61       1.0  0.9410499999999999  0.62776  0.48259  1.0000
  C   C62       1.0  0.7245700000000002  0.8403799999999999  0.49330000000000007  1.0000
  C   C63       1.0  0.6405200000000001  0.8984399999999999  0.49491  1.0000
  C   C64       1.0  0.8811399999999998  0.7332399999999999  0.4925  1.0000
  C   C65       1.0  0.8459399999999995  0.8346  0.46841000000000005  1.0000
  C   C66       1.0  0.7602999999999999  0.73834  0.51774  1.0000
  C   C67       1.0  0.6824200000000001  0.79182  0.51754  1.0000
  C   C68       1.0  0.92429  0.78118  0.46741000000000005  1.0000
  C   C69       1.0  0.07275000000000005  0.6664999999999999  0.50517  1.0000
  C   C70       1.0  0.11481000000000004  0.60847  0.50246  1.0000
  C   C71       1.0  0.5525600000000003  0.87215  0.01802  1.0000
  C   C72       1.0  0.56113  0.65934  0.00676  1.0000
  C   C73       1.0  0.5372300000000001  0.60121  0.005130000000000001  1.0000
  C   C74       1.0  0.6085400000000001  0.7665899999999999  0.008030000000000002  1.0000
  C   C75       1.0  0.6515700000000002  0.66517  0.03171  1.0000
  C   C76       1.0  0.5183000000000002  0.76144  0.9827500000000001  1.0000
  C   C77       1.0  0.49434  0.7079199999999999  0.9826400000000002  1.0000
  C   C78       1.0  0.6748800000000001  0.71863  0.03298  1.0000
  C   C79       1.0  0.7458199999999999  0.8332399999999999  0.9949800000000002  1.0000
  C   C80       1.0  0.7270299999999998  0.89131  0.99741  1.0000
  N   N1        1.0  0.6062400000000002  0.011989999999999992  0.91539  1.0000
  N   N2        1.0  0.63387  0.007799999999999991  0.8213200000000003  1.0000
  N   N3        1.0  0.03235000000000012  0.48818  0.58452  1.0000
  N   N4        1.0  0.9612199999999999  0.49286  0.67853  1.0000
  N   N5        1.0  0.96765  0.41548  0.51182  1.0000
  N   N6        1.0  0.03876999999999993  0.32147  0.5071400000000001  1.0000
  N   N7        1.0  0.3937599999999999  0.08459999999999998  0.9880100000000003  1.0000
  N   N8        1.0  0.36612000000000017  0.17866999999999997  0.9922  1.0000
  N   N9        1.0  0.39376000000000017  0.98801  0.08461  1.0000
  N   N10       1.0  0.3661199999999998  0.9922  0.17868000000000003  1.0000
  N   N11       1.0  0.96765  0.51182  0.41548  1.0000
  N   N12       1.0  0.03877000000000004  0.50714  0.32147  1.0000
  N   N13       1.0  0.03235000000000005  0.58452  0.48818  1.0000
  N   N14       1.0  0.9612199999999999  0.67852  0.49286  1.0000
  N   N15       1.0  0.60623  0.9153899999999999  0.011990000000000004  1.0000
  N   N16       1.0  0.63387  0.82132  0.007800000000000001  1.0000
  O   O1        1.0  0.6061800000000003  0.0254  0.55919  1.0000
  O   O2        1.0  0.45087000000000005  0.98347  0.60016  1.0000
  O   O3        1.0  0.6871800000000002  0.4745699999999999  0.94055  1.0000
  O   O4        1.0  0.5313799999999999  0.51676  0.8994300000000001  1.0000
  O   O5        1.0  0.31281999999999993  0.05945  0.5254300000000001  1.0000
  O   O6        1.0  0.46862  0.10057  0.4832400000000001  1.0000
  O   O7        1.0  0.39381999999999984  0.4408099999999999  0.9746000000000001  1.0000
  O   O8        1.0  0.54912  0.39984  0.01653  1.0000
  O   O9        1.0  0.39381999999999995  0.9746  0.4408100000000001  1.0000
  O   O10       1.0  0.5491199999999999  0.01652999999999999  0.3998400000000001  1.0000
  O   O11       1.0  0.31282  0.52543  0.05945  1.0000
  O   O12       1.0  0.46862  0.48324  0.10057  1.0000
  O   O13       1.0  0.6871800000000002  0.9405499999999999  0.4745800000000001  1.0000
  O   O14       1.0  0.5313800000000001  0.89943  0.51676  1.0000
  O   O15       1.0  0.60618  0.55919  0.025400000000000002  1.0000
  O   O16       1.0  0.45087  0.60016  0.9834700000000001  1.0000
