data_image0
_chemical_formula_structural       Al8H56C96O40
_chemical_formula_sum              "Al8 H56 C96 O40"
_cell_length_a       6.5932
_cell_length_b       21.45682
_cell_length_c       21.456830000000004
_cell_angle_alpha    89.99955
_cell_angle_beta     90.0
_cell_angle_gamma    90.0

_symmetry_space_group_name_H-M    'P 1'
_symmetry_Int_Tables_number       1

loop_
  _symmetry_equiv_pos_as_xyz
  'x,y,z'

loop_
  _atom_site_type_symbol
  _atom_site_label
  _atom_site_symmetry_multiplicity
  _atom_site_fract_x
  _atom_site_fract_y
  _atom_site_fract_z
  _atom_site_occupancy
  Al  Al1       1.0  0.0  0.24936  0.7506399999999999  1.0000
  Al  Al2       1.0  0.0  0.75064  0.24935999999999997  1.0000
  Al  Al3       1.0  0.0  0.75064  0.7506399999999999  1.0000
  Al  Al4       1.0  0.0  0.24936  0.24935999999999997  1.0000
  Al  Al5       1.0  0.5  0.25268  0.7473199999999998  1.0000
  Al  Al6       1.0  0.5  0.7473199999999999  0.25267999999999996  1.0000
  Al  Al7       1.0  0.5  0.7473300000000002  0.74733  1.0000
  Al  Al8       1.0  0.5  0.25267  0.25267  1.0000
  H   H1        1.0  0.5273100000000001  0.05802999999999999  0.20571999999999993  1.0000
  H   H2        1.0  0.9558500000000002  0.11545  0.33221  1.0000
  H   H3        1.0  0.7092900000000002  0.058309999999999994  0.39568  1.0000
  H   H4        1.0  0.5273100000000001  0.9419699999999999  0.79428  1.0000
  H   H5        1.0  0.9558500000000002  0.88454  0.66779  1.0000
  H   H6        1.0  0.7092900000000002  0.94169  0.60433  1.0000
  H   H7        1.0  0.5135100000000001  0.30335  0.55825  1.0000
  H   H8        1.0  0.8846000000000003  0.202  0.61517  1.0000
  H   H9        1.0  0.6156600000000002  0.14831  0.55831  1.0000
  H   H10       1.0  0.5135100000000001  0.69665  0.44175  1.0000
  H   H11       1.0  0.8846000000000003  0.798  0.38483  1.0000
  H   H12       1.0  0.6156600000000002  0.85169  0.44169  1.0000
  H   H13       1.0  0.48649  0.44175  0.69665  1.0000
  H   H14       1.0  0.1154  0.38483000000000006  0.798  1.0000
  H   H15       1.0  0.38434000000000007  0.44169  0.85169  1.0000
  H   H16       1.0  0.48648  0.55825  0.30334999999999995  1.0000
  H   H17       1.0  0.1154  0.61517  0.20199999999999996  1.0000
  H   H18       1.0  0.38434000000000007  0.55831  0.14831  1.0000
  H   H19       1.0  0.47269000000000005  0.20572  0.05802999999999999  1.0000
  H   H20       1.0  0.04415  0.33221  0.11546  1.0000
  H   H21       1.0  0.29071  0.39568  0.05831  1.0000
  H   H22       1.0  0.47269000000000005  0.79428  0.94198  1.0000
  H   H23       1.0  0.04415  0.66779  0.88455  1.0000
  H   H24       1.0  0.29071  0.60432  0.94169  1.0000
  H   H25       1.0  0.48648  0.44174  0.30334999999999995  1.0000
  H   H26       1.0  0.11541000000000003  0.38483000000000006  0.20199999999999996  1.0000
  H   H27       1.0  0.38434000000000007  0.44169  0.14831  1.0000
  H   H28       1.0  0.48648  0.55825  0.69666  1.0000
  H   H29       1.0  0.11541000000000003  0.61517  0.798  1.0000
  H   H30       1.0  0.38434000000000007  0.55831  0.85169  1.0000
  H   H31       1.0  0.47269000000000005  0.20572  0.94198  1.0000
  H   H32       1.0  0.04415  0.33221  0.88455  1.0000
  H   H33       1.0  0.2907  0.39567  0.94169  1.0000
  H   H34       1.0  0.47269000000000005  0.79428  0.05802999999999999  1.0000
  H   H35       1.0  0.04415  0.66779  0.11546  1.0000
  H   H36       1.0  0.29071  0.60432  0.05831  1.0000
  H   H37       1.0  0.5273100000000001  0.05802  0.79428  1.0000
  H   H38       1.0  0.9558500000000002  0.11545  0.66779  1.0000
  H   H39       1.0  0.7092900000000002  0.058309999999999994  0.6043199999999999  1.0000
  H   H40       1.0  0.5273100000000001  0.9419699999999999  0.20571999999999993  1.0000
  H   H41       1.0  0.9558500000000002  0.88454  0.33221  1.0000
  H   H42       1.0  0.7092900000000002  0.94169  0.39568  1.0000
  H   H43       1.0  0.51352  0.30334  0.44175  1.0000
  H   H44       1.0  0.8846000000000003  0.202  0.38483  1.0000
  H   H45       1.0  0.6156600000000002  0.14831  0.44169  1.0000
  H   H46       1.0  0.51352  0.69665  0.5582599999999999  1.0000
  H   H47       1.0  0.8846000000000003  0.798  0.61518  1.0000
  H   H48       1.0  0.6156600000000002  0.85169  0.55831  1.0000
  H   H49       1.0  0.26159  0.27366  0.17527  1.0000
  H   H50       1.0  0.26158  0.72633  0.82473  1.0000
  H   H51       1.0  0.2616  0.27365  0.8247199999999999  1.0000
  H   H52       1.0  0.2616  0.72635  0.17528  1.0000
  H   H53       1.0  0.7384000000000002  0.17528  0.7263499999999999  1.0000
  H   H54       1.0  0.7384000000000002  0.82472  0.27366  1.0000
  H   H55       1.0  0.73841  0.17527  0.27366  1.0000
  H   H56       1.0  0.73841  0.82473  0.72634  1.0000
  C   C1        1.0  0.25218  0.13559  0.25135  1.0000
  C   C2        1.0  0.25192  0.06605  0.2579099999999999  1.0000
  C   C3        1.0  0.0966  0.03369  0.29200999999999994  1.0000
  C   C4        1.0  0.40664  0.03276  0.22924999999999995  1.0000
  C   C5        1.0  0.9517000000000001  0.06506  0.32985999999999993  1.0000
  C   C6        1.0  0.81414  0.03277  0.36606999999999995  1.0000
  C   C7        1.0  0.25218  0.8644  0.74865  1.0000
  C   C8        1.0  0.25192  0.93395  0.7421  1.0000
  C   C9        1.0  0.0966  0.9663  0.70799  1.0000
  C   C10       1.0  0.40664  0.96724  0.77075  1.0000
  C   C11       1.0  0.9517000000000001  0.9349299999999999  0.67015  1.0000
  C   C12       1.0  0.81414  0.96722  0.63394  1.0000
  C   C13       1.0  0.24622000000000002  0.25606  0.63577  1.0000
  C   C14       1.0  0.23073  0.25534  0.56606  1.0000
  C   C15       1.0  0.06094  0.22766999999999998  0.53377  1.0000
  C   C16       1.0  0.38712000000000013  0.28314  0.5327099999999999  1.0000
  C   C17       1.0  0.89398  0.199  0.56496  1.0000
  C   C18       1.0  0.74131  0.16895  0.5327  1.0000
  C   C19       1.0  0.24621  0.74394  0.36422999999999994  1.0000
  C   C20       1.0  0.23073  0.74465  0.43394  1.0000
  C   C21       1.0  0.06094  0.77232  0.46623999999999993  1.0000
  C   C22       1.0  0.38712000000000013  0.71685  0.46729  1.0000
  C   C23       1.0  0.89398  0.8009999999999999  0.43505  1.0000
  C   C24       1.0  0.74131  0.8310499999999998  0.46731  1.0000
  C   C25       1.0  0.75378  0.36423  0.74394  1.0000
  C   C26       1.0  0.76927  0.43393999999999994  0.74466  1.0000
  C   C27       1.0  0.9390600000000001  0.46623000000000003  0.7723299999999998  1.0000
  C   C28       1.0  0.61288  0.4672899999999999  0.71686  1.0000
  C   C29       1.0  0.10602  0.43504  0.801  1.0000
  C   C30       1.0  0.25869  0.4673  0.8310499999999998  1.0000
  C   C31       1.0  0.7537900000000002  0.63577  0.25605999999999995  1.0000
  C   C32       1.0  0.76927  0.56606  0.25535  1.0000
  C   C33       1.0  0.9390600000000001  0.53377  0.22768  1.0000
  C   C34       1.0  0.61288  0.53271  0.28315  1.0000
  C   C35       1.0  0.10602  0.56495  0.19899999999999998  1.0000
  C   C36       1.0  0.25869  0.5327  0.16895  1.0000
  C   C37       1.0  0.74782  0.25135  0.13558999999999996  1.0000
  C   C38       1.0  0.7480800000000001  0.2579  0.06605  1.0000
  C   C39       1.0  0.9034  0.29201  0.03368999999999999  1.0000
  C   C40       1.0  0.59336  0.22925  0.03276  1.0000
  C   C41       1.0  0.0483  0.32986  0.06506999999999999  1.0000
  C   C42       1.0  0.18586000000000005  0.36607  0.03277  1.0000
  C   C43       1.0  0.74782  0.74864  0.86441  1.0000
  C   C44       1.0  0.7480800000000001  0.74209  0.9339499999999997  1.0000
  C   C45       1.0  0.9034  0.70799  0.9663099999999998  1.0000
  C   C46       1.0  0.59336  0.77074  0.96724  1.0000
  C   C47       1.0  0.0483  0.67014  0.9349399999999998  1.0000
  C   C48       1.0  0.18586000000000005  0.63393  0.96723  1.0000
  C   C49       1.0  0.75374  0.36423  0.25605999999999995  1.0000
  C   C50       1.0  0.76928  0.43393000000000004  0.25533999999999996  1.0000
  C   C51       1.0  0.9390600000000001  0.46623000000000003  0.22768  1.0000
  C   C52       1.0  0.61288  0.4672799999999999  0.28315  1.0000
  C   C53       1.0  0.10601  0.43504  0.19899999999999998  1.0000
  C   C54       1.0  0.2587  0.4673  0.16895  1.0000
  C   C55       1.0  0.75373  0.63577  0.74394  1.0000
  C   C56       1.0  0.76928  0.56607  0.74466  1.0000
  C   C57       1.0  0.9390600000000001  0.53377  0.7723299999999998  1.0000
  C   C58       1.0  0.61288  0.53271  0.71686  1.0000
  C   C59       1.0  0.10601  0.56496  0.801  1.0000
  C   C60       1.0  0.2587  0.5327  0.8310499999999998  1.0000
  C   C61       1.0  0.74785  0.25135  0.86441  1.0000
  C   C62       1.0  0.7480700000000002  0.2579  0.9339499999999997  1.0000
  C   C63       1.0  0.9034  0.29201  0.9663099999999998  1.0000
  C   C64       1.0  0.59336  0.22925  0.96724  1.0000
  C   C65       1.0  0.04831  0.32985  0.9349399999999998  1.0000
  C   C66       1.0  0.18586000000000005  0.36606  0.96723  1.0000
  C   C67       1.0  0.74785  0.7486499999999999  0.1356  1.0000
  C   C68       1.0  0.7480700000000002  0.74209  0.06605  1.0000
  C   C69       1.0  0.9034  0.70799  0.033699999999999994  1.0000
  C   C70       1.0  0.59336  0.77075  0.03276  1.0000
  C   C71       1.0  0.04831  0.67014  0.06506999999999999  1.0000
  C   C72       1.0  0.18586000000000005  0.63393  0.03277  1.0000
  C   C73       1.0  0.25215  0.13559  0.74865  1.0000
  C   C74       1.0  0.25193  0.06605  0.7421  1.0000
  C   C75       1.0  0.0966  0.03369  0.70799  1.0000
  C   C76       1.0  0.40664  0.03276  0.77075  1.0000
  C   C77       1.0  0.9516900000000003  0.06506  0.67014  1.0000
  C   C78       1.0  0.81414  0.03277  0.63394  1.0000
  C   C79       1.0  0.25215  0.8644  0.25135  1.0000
  C   C80       1.0  0.25193  0.93395  0.2579099999999999  1.0000
  C   C81       1.0  0.0966  0.9663  0.29200999999999994  1.0000
  C   C82       1.0  0.40664  0.96724  0.22926  1.0000
  C   C83       1.0  0.9516900000000003  0.9349299999999999  0.32985999999999993  1.0000
  C   C84       1.0  0.81414  0.96722  0.36606999999999995  1.0000
  C   C85       1.0  0.24626  0.25606  0.36422999999999994  1.0000
  C   C86       1.0  0.23072  0.25534  0.43393  1.0000
  C   C87       1.0  0.06094  0.22766999999999998  0.4662299999999999  1.0000
  C   C88       1.0  0.38712000000000013  0.28314  0.46729  1.0000
  C   C89       1.0  0.89399  0.199  0.43504  1.0000
  C   C90       1.0  0.7413000000000002  0.16895  0.4673  1.0000
  C   C91       1.0  0.24627  0.74394  0.63577  1.0000
  C   C92       1.0  0.23072  0.74465  0.56607  1.0000
  C   C93       1.0  0.06094  0.77232  0.53377  1.0000
  C   C94       1.0  0.38712000000000013  0.71685  0.53272  1.0000
  C   C95       1.0  0.89399  0.8009999999999999  0.56496  1.0000
  C   C96       1.0  0.7413000000000002  0.8310499999999998  0.5327  1.0000
  O   O1        1.0  0.07986000000000003  0.16251  0.24709999999999996  1.0000
  O   O2        1.0  0.42418  0.16283  0.25035  1.0000
  O   O3        1.0  0.07986000000000003  0.83749  0.75291  1.0000
  O   O4        1.0  0.42418  0.8371599999999999  0.74965  1.0000
  O   O5        1.0  0.08084000000000001  0.256  0.66624  1.0000
  O   O6        1.0  0.4226  0.25633  0.6605499999999999  1.0000
  O   O7        1.0  0.08084000000000001  0.744  0.33376  1.0000
  O   O8        1.0  0.4226  0.74367  0.33945  1.0000
  O   O9        1.0  0.91916  0.33376  0.7439999999999999  1.0000
  O   O10       1.0  0.5774  0.33945  0.74367  1.0000
  O   O11       1.0  0.91916  0.66624  0.256  1.0000
  O   O12       1.0  0.5774  0.66055  0.25633  1.0000
  O   O13       1.0  0.9201400000000002  0.24709  0.16250999999999996  1.0000
  O   O14       1.0  0.57582  0.25035  0.16282999999999997  1.0000
  O   O15       1.0  0.9201400000000002  0.7528999999999999  0.83749  1.0000
  O   O16       1.0  0.57582  0.74965  0.83717  1.0000
  O   O17       1.0  0.91918  0.33375  0.256  1.0000
  O   O18       1.0  0.57741  0.33944  0.25633  1.0000
  O   O19       1.0  0.9191900000000002  0.66624  0.7439999999999999  1.0000
  O   O20       1.0  0.57742  0.66055  0.7436799999999999  1.0000
  O   O21       1.0  0.9201200000000002  0.24709  0.83749  1.0000
  O   O22       1.0  0.5758  0.25034  0.8371599999999999  1.0000
  O   O23       1.0  0.9201200000000002  0.75291  0.16250999999999996  1.0000
  O   O24       1.0  0.57579  0.74965  0.16284  1.0000
  O   O25       1.0  0.07988  0.1625  0.75291  1.0000
  O   O26       1.0  0.4242  0.16284  0.74965  1.0000
  O   O27       1.0  0.07988  0.83749  0.24709999999999996  1.0000
  O   O28       1.0  0.4242  0.8371599999999999  0.25035  1.0000
  O   O29       1.0  0.08082  0.256  0.33376  1.0000
  O   O30       1.0  0.42259  0.25633  0.33945  1.0000
  O   O31       1.0  0.08081000000000002  0.744  0.66625  1.0000
  O   O32       1.0  0.42258  0.74367  0.66056  1.0000
  O   O33       1.0  0.25114  0.27498  0.22053  1.0000
  O   O34       1.0  0.25114  0.72502  0.77947  1.0000
  O   O35       1.0  0.25115000000000004  0.27498  0.77946  1.0000
  O   O36       1.0  0.25115000000000004  0.72502  0.22054  1.0000
  O   O37       1.0  0.7488500000000002  0.22054  0.7250199999999999  1.0000
  O   O38       1.0  0.7488500000000002  0.77946  0.27498  1.0000
  O   O39       1.0  0.74886  0.22053  0.27498  1.0000
  O   O40       1.0  0.74886  0.77947  0.72503  1.0000
