data_image0
_chemical_formula_structural       Zn8H48C84O26
_chemical_formula_sum              "Zn8 H48 C84 O26"
_cell_length_a       17.31881
_cell_length_b       17.31893
_cell_length_c       17.37459
_cell_angle_alpha    88.78050999999999
_cell_angle_beta     88.78747000000001
_cell_angle_gamma    87.92407

_space_group_name_H-M_alt    "P 1"
_space_group_IT_number       1

loop_
  _space_group_symop_operation_xyz
  'x, y, z'

loop_
  _atom_site_type_symbol
  _atom_site_label
  _atom_site_symmetry_multiplicity
  _atom_site_fract_x
  _atom_site_fract_y
  _atom_site_fract_z
  _atom_site_occupancy
  Zn  Zn1       1.0  0.7905500000000001  0.92318  0.81193  1.0000
  Zn  Zn2       1.0  0.92318  0.79055  0.81194  1.0000
  Zn  Zn3       1.0  0.92074  0.92074  0.67767  1.0000
  Zn  Zn4       1.0  0.7938800000000001  0.7938899999999999  0.68109  1.0000
  Zn  Zn5       1.0  0.07681  0.20945  0.18806000000000003  1.0000
  Zn  Zn6       1.0  0.20945  0.07682  0.18807  1.0000
  Zn  Zn7       1.0  0.07926  0.07926  0.32234  1.0000
  Zn  Zn8       1.0  0.20612000000000003  0.20611  0.31891  1.0000
  H   H1        1.0  0.76627  0.94517  0.19402  1.0000
  H   H2        1.0  0.76203  0.94026  0.050020000000000016  1.0000
  H   H3        1.0  0.41144  0.7777799999999999  0.6653  1.0000
  H   H4        1.0  0.55591  0.77829  0.66214  1.0000
  H   H5        1.0  0.54973  0.94974  0.83704  1.0000
  H   H6        1.0  0.4053700000000001  0.9488  0.8410900000000001  1.0000
  H   H7        1.0  0.16001  0.78116  0.8484600000000002  1.0000
  H   H8        1.0  0.159  0.9421999999999999  0.65744  1.0000
  H   H9        1.0  0.30313  0.9437  0.65847  1.0000
  H   H10       1.0  0.30445  0.78289  0.8507800000000001  1.0000
  H   H11       1.0  0.94518  0.7662699999999999  0.19403000000000006  1.0000
  H   H12       1.0  0.94026  0.7620299999999999  0.05004  1.0000
  H   H13       1.0  0.77778  0.41145  0.6653  1.0000
  H   H14       1.0  0.77829  0.55592  0.66213  1.0000
  H   H15       1.0  0.9497500000000001  0.54973  0.83705  1.0000
  H   H16       1.0  0.94881  0.40537  0.8410900000000001  1.0000
  H   H17       1.0  0.7811600000000001  0.16001  0.8484500000000003  1.0000
  H   H18       1.0  0.9422  0.15902  0.65744  1.0000
  H   H19       1.0  0.9436900000000001  0.30314  0.65847  1.0000
  H   H20       1.0  0.7828900000000002  0.30445  0.8507700000000001  1.0000
  H   H21       1.0  0.77567  0.7756799999999999  0.4487800000000001  1.0000
  H   H22       1.0  0.77232  0.77232  0.30485  1.0000
  H   H23       1.0  0.94515  0.94515  0.29063  1.0000
  H   H24       1.0  0.94791  0.9479199999999999  0.4339100000000001  1.0000
  H   H25       1.0  0.05482000000000002  0.23373  0.8059700000000001  1.0000
  H   H26       1.0  0.059730000000000005  0.23796  0.94997  1.0000
  H   H27       1.0  0.22222000000000003  0.58855  0.3347  1.0000
  H   H28       1.0  0.22170999999999996  0.44408  0.33787  1.0000
  H   H29       1.0  0.05025  0.45027  0.16295  1.0000
  H   H30       1.0  0.051179999999999996  0.59463  0.15891  1.0000
  H   H31       1.0  0.21883  0.83999  0.15155  1.0000
  H   H32       1.0  0.057800000000000004  0.84098  0.34256  1.0000
  H   H33       1.0  0.05630000000000001  0.69686  0.34153  1.0000
  H   H34       1.0  0.21710000000000007  0.69555  0.14923000000000003  1.0000
  H   H35       1.0  0.23373  0.05483  0.80598  1.0000
  H   H36       1.0  0.23796000000000003  0.059739999999999994  0.9499800000000002  1.0000
  H   H37       1.0  0.5885500000000001  0.22222  0.3347  1.0000
  H   H38       1.0  0.44409  0.22171  0.33786  1.0000
  H   H39       1.0  0.45026  0.05025  0.16296  1.0000
  H   H40       1.0  0.59463  0.05119  0.15892  1.0000
  H   H41       1.0  0.83998  0.21884  0.15154  1.0000
  H   H42       1.0  0.84099  0.0578  0.34256  1.0000
  H   H43       1.0  0.69686  0.05629999999999999  0.34153  1.0000
  H   H44       1.0  0.6955500000000002  0.21711  0.14922000000000005  1.0000
  H   H45       1.0  0.22432000000000002  0.22432  0.55122  1.0000
  H   H46       1.0  0.22767  0.22767999999999994  0.6951500000000003  1.0000
  H   H47       1.0  0.05484000000000001  0.05484999999999999  0.70937  1.0000
  H   H48       1.0  0.05208000000000001  0.052079999999999994  0.5660900000000002  1.0000
  C   C1        1.0  0.80404  0.9049  0.16231  1.0000
  C   C2        1.0  0.80161  0.90241  0.08222000000000003  1.0000
  C   C3        1.0  0.64805  0.86357  0.74706  1.0000
  C   C4        1.0  0.44196  0.81522  0.70287  1.0000
  C   C5        1.0  0.52244  0.81549  0.70092  1.0000
  C   C6        1.0  0.5617200000000001  0.86385  0.74933  1.0000
  C   C7        1.0  0.51908  0.91205  0.79991  1.0000
  C   C8        1.0  0.4385299999999999  0.9114199999999998  0.80204  1.0000
  C   C9        1.0  0.39914  0.86303  0.7536  1.0000
  C   C10       1.0  0.19196000000000002  0.81674  0.8074800000000002  1.0000
  C   C11       1.0  0.15103000000000003  0.86129  0.7524  1.0000
  C   C12       1.0  0.1914500000000001  0.9075  0.6992700000000002  1.0000
  C   C13       1.0  0.27184  0.90829  0.70022  1.0000
  C   C14       1.0  0.31317  0.86305  0.7545200000000002  1.0000
  C   C15       1.0  0.27242  0.8179  0.80866  1.0000
  C   C16       1.0  0.06521  0.85887  0.7494000000000002  1.0000
  C   C17       1.0  0.90491  0.80404  0.16232  1.0000
  C   C18       1.0  0.90241  0.80161  0.08223  1.0000
  C   C19       1.0  0.86357  0.6480499999999999  0.74706  1.0000
  C   C20       1.0  0.81522  0.44197  0.70287  1.0000
  C   C21       1.0  0.8154900000000003  0.52244  0.70091  1.0000
  C   C22       1.0  0.86385  0.56173  0.74933  1.0000
  C   C23       1.0  0.91205  0.51908  0.79991  1.0000
  C   C24       1.0  0.9114200000000001  0.43853  0.80205  1.0000
  C   C25       1.0  0.86303  0.39915  0.7536  1.0000
  C   C26       1.0  0.8167500000000002  0.19195999999999994  0.8074800000000002  1.0000
  C   C27       1.0  0.86129  0.15102999999999997  0.75241  1.0000
  C   C28       1.0  0.9075000000000003  0.19146  0.6992800000000001  1.0000
  C   C29       1.0  0.90829  0.27184  0.70022  1.0000
  C   C30       1.0  0.8630600000000003  0.31317999999999996  0.7545200000000002  1.0000
  C   C31       1.0  0.8179  0.27242  0.80866  1.0000
  C   C32       1.0  0.8588700000000001  0.06521  0.7494000000000002  1.0000
  C   C33       1.0  0.86209  0.8621  0.5355  1.0000
  C   C34       1.0  0.8122500000000002  0.81225  0.41321  1.0000
  C   C35       1.0  0.8106700000000002  0.81067  0.3332000000000001  1.0000
  C   C36       1.0  0.8585200000000002  0.85852  0.28845  1.0000
  C   C37       1.0  0.90798  0.90798  0.32512  1.0000
  C   C38       1.0  0.9096300000000002  0.9096399999999999  0.40535  1.0000
  C   C39       1.0  0.86167  0.8616799999999998  0.4498100000000001  1.0000
  C   C40       1.0  0.85608  0.85607  0.20299  1.0000
  C   C41       1.0  0.8511700000000002  0.85117  0.04154000000000001  1.0000
  C   C42       1.0  0.8512800000000003  0.85128  0.95562  1.0000
  C   C43       1.0  0.09509000000000001  0.19596  0.83769  1.0000
  C   C44       1.0  0.09758000000000001  0.19839  0.91777  1.0000
  C   C45       1.0  0.13643  0.35194  0.25294  1.0000
  C   C46       1.0  0.18478  0.55803  0.29713  1.0000
  C   C47       1.0  0.18451  0.47755999999999993  0.2990900000000001  1.0000
  C   C48       1.0  0.13615000000000005  0.43826999999999994  0.25067  1.0000
  C   C49       1.0  0.08794000000000002  0.48091999999999996  0.20009000000000002  1.0000
  C   C50       1.0  0.08857000000000002  0.56147  0.19796  1.0000
  C   C51       1.0  0.13696  0.60085  0.24640000000000004  1.0000
  C   C52       1.0  0.18325  0.8080399999999999  0.19252  1.0000
  C   C53       1.0  0.1387  0.84897  0.2476  1.0000
  C   C54       1.0  0.09250000000000001  0.80854  0.30072  1.0000
  C   C55       1.0  0.09171000000000001  0.72816  0.29978  1.0000
  C   C56       1.0  0.13694  0.68682  0.24548  1.0000
  C   C57       1.0  0.18209  0.72758  0.19134  1.0000
  C   C58       1.0  0.14113  0.9347899999999999  0.25060000000000004  1.0000
  C   C59       1.0  0.19595000000000004  0.0951  0.83769  1.0000
  C   C60       1.0  0.19839  0.09759  0.91778  1.0000
  C   C61       1.0  0.35195  0.13643  0.25294  1.0000
  C   C62       1.0  0.5580300000000001  0.18478  0.29713  1.0000
  C   C63       1.0  0.47756  0.18451  0.2990900000000001  1.0000
  C   C64       1.0  0.43827  0.13615  0.25067  1.0000
  C   C65       1.0  0.48091  0.08794999999999999  0.20009000000000002  1.0000
  C   C66       1.0  0.56146  0.08858  0.19796  1.0000
  C   C67       1.0  0.60085  0.13697  0.24640000000000004  1.0000
  C   C68       1.0  0.80804  0.18326  0.19252  1.0000
  C   C69       1.0  0.84897  0.13871  0.2476  1.0000
  C   C70       1.0  0.80855  0.09249999999999999  0.3007300000000001  1.0000
  C   C71       1.0  0.72816  0.09171  0.29979  1.0000
  C   C72       1.0  0.68682  0.13695  0.24548  1.0000
  C   C73       1.0  0.7275800000000002  0.18209999999999998  0.19134  1.0000
  C   C74       1.0  0.9347900000000001  0.14113  0.25060000000000004  1.0000
  C   C75       1.0  0.13791  0.1379  0.4645000000000001  1.0000
  C   C76       1.0  0.18774000000000005  0.18774  0.5868  1.0000
  C   C77       1.0  0.18932  0.18933  0.66681  1.0000
  C   C78       1.0  0.14148  0.14148  0.71155  1.0000
  C   C79       1.0  0.09201  0.09202  0.67488  1.0000
  C   C80       1.0  0.09036  0.09036  0.59465  1.0000
  C   C81       1.0  0.13832  0.13832  0.5502  1.0000
  C   C82       1.0  0.14392000000000002  0.14393  0.7970100000000002  1.0000
  C   C83       1.0  0.14882  0.14883  0.9584600000000001  1.0000
  C   C84       1.0  0.14872000000000005  0.14872  0.04438  1.0000
  O   O1        1.0  0.80425  0.8990199999999998  0.92208  1.0000
  O   O2        1.0  0.67992  0.9096499999999998  0.79236  1.0000
  O   O3        1.0  0.6828900000000002  0.81717  0.7000300000000002  1.0000
  O   O4        1.0  0.03228000000000001  0.81294  0.7972700000000003  1.0000
  O   O5        1.0  0.03148  0.90241  0.6989700000000002  1.0000
  O   O6        1.0  0.8990200000000002  0.80426  0.92209  1.0000
  O   O7        1.0  0.9096500000000003  0.67992  0.79236  1.0000
  O   O8        1.0  0.81716  0.6829  0.7000200000000002  1.0000
  O   O9        1.0  0.81294  0.03228  0.7972600000000002  1.0000
  O   O10       1.0  0.90241  0.03148999999999999  0.6989800000000003  1.0000
  O   O11       1.0  0.85665  0.85665  0.74598  1.0000
  O   O12       1.0  0.9080000000000005  0.90802  0.56679  1.0000
  O   O13       1.0  0.8163800000000001  0.81638  0.5709400000000002  1.0000
  O   O14       1.0  0.10098  0.19574  0.07792000000000003  1.0000
  O   O15       1.0  0.09035000000000003  0.32007  0.20764  1.0000
  O   O16       1.0  0.18283  0.3171  0.2999800000000001  1.0000
  O   O17       1.0  0.18705000000000002  0.9677199999999999  0.20274  1.0000
  O   O18       1.0  0.09759  0.9685100000000001  0.30102  1.0000
  O   O19       1.0  0.19574000000000005  0.10098  0.07792000000000003  1.0000
  O   O20       1.0  0.32007  0.09035  0.20764  1.0000
  O   O21       1.0  0.3171  0.18283  0.2999700000000001  1.0000
  O   O22       1.0  0.9677200000000001  0.18706  0.20273  1.0000
  O   O23       1.0  0.96851  0.09759  0.30103  1.0000
  O   O24       1.0  0.14335000000000006  0.14335  0.2540300000000001  1.0000
  O   O25       1.0  0.09199  0.09198  0.43321  1.0000
  O   O26       1.0  0.18362  0.18362  0.4290600000000001  1.0000
