data_image0
_chemical_formula_structural       Ni6H42C78N6O27
_chemical_formula_sum              "Ni6 H42 C78 N6 O27"
_cell_length_a       10.14425
_cell_length_b       10.146899999999999
_cell_length_c       27.212609999999998
_cell_angle_alpha    89.99363
_cell_angle_beta     90.00702000000001
_cell_angle_gamma    120.25279000000002

_symmetry_space_group_name_H-M    'P 1'
_symmetry_Int_Tables_number       1

loop_
  _symmetry_equiv_pos_as_xyz
  'x,y,z'

loop_
  _atom_site_type_symbol
  _atom_site_label
  _atom_site_symmetry_multiplicity
  _atom_site_fract_x
  _atom_site_fract_y
  _atom_site_fract_z
  _atom_site_occupancy
  Ni  Ni1       1.0  0.7937900000000001  0.85216  0.14045  1.0000
  Ni  Ni2       1.0  0.14878  0.9408500000000001  0.8070999999999999  1.0000
  Ni  Ni3       1.0  0.057850000000000026  0.20689  0.4738599999999999  1.0000
  Ni  Ni4       1.0  0.85313  0.79451  0.8597799999999999  1.0000
  Ni  Ni5       1.0  0.9412000000000001  0.14913  0.19318  1.0000
  Ni  Ni6       1.0  0.20621000000000003  0.057780000000000005  0.52582  1.0000
  H   H1        1.0  0.003120000000000004  0.45029  0.16144999999999995  1.0000
  H   H2        1.0  0.69416  0.53755  0.24439  1.0000
  H   H3        1.0  0.8000400000000001  0.19224  0.286  1.0000
  H   H4        1.0  0.46345000000000003  0.3505600000000001  0.27019  1.0000
  H   H5        1.0  0.28027  0.28771  0.33721  1.0000
  H   H6        1.0  0.566  0.19746  0.4327099999999999  1.0000
  H   H7        1.0  0.75388  0.26274  0.3655999999999999  1.0000
  H   H8        1.0  0.5497000000000001  0.553  0.82891  1.0000
  H   H9        1.0  0.46298000000000006  0.15656  0.9109399999999997  1.0000
  H   H10       1.0  0.80842  0.60987  0.9530999999999998  1.0000
  H   H11       1.0  0.64866  0.11167000000000003  0.93686  1.0000
  H   H12       1.0  0.7128200000000001  0.99345  0.0035999999999999995  1.0000
  H   H13       1.0  0.8024800000000001  0.36955  0.09912999999999998  1.0000
  H   H14       1.0  0.73649  0.49088000000000004  0.03226  1.0000
  H   H15       1.0  0.44631000000000004  0.99738  0.49468  1.0000
  H   H16       1.0  0.8439  0.30658  0.5782499999999999  1.0000
  H   H17       1.0  0.39111  0.19876  0.61869  1.0000
  H   H18       1.0  0.8883500000000001  0.53817  0.60387  1.0000
  H   H19       1.0  0.007670000000000029  0.7205200000000002  0.67108  1.0000
  H   H20       1.0  0.62916  0.43139  0.76586  1.0000
  H   H21       1.0  0.50692  0.24401  0.6984799999999998  1.0000
  H   H22       1.0  0.4499  0.00291  0.83832  1.0000
  H   H23       1.0  0.53685  0.69351  0.7553699999999998  1.0000
  H   H24       1.0  0.19247999999999996  0.80063  0.7140199999999998  1.0000
  H   H25       1.0  0.3504  0.46355  0.72969  1.0000
  H   H26       1.0  0.28779000000000005  0.28029  0.66268  1.0000
  H   H27       1.0  0.19758999999999993  0.56621  0.5672299999999999  1.0000
  H   H28       1.0  0.26268000000000014  0.7542200000000001  0.6343699999999998  1.0000
  H   H29       1.0  0.5531000000000001  0.55081  0.17127  1.0000
  H   H30       1.0  0.15593000000000007  0.46238  0.08907999999999999  1.0000
  H   H31       1.0  0.60973  0.80903  0.04725  1.0000
  H   H32       1.0  0.11237999999999998  0.649  0.06307  1.0000
  H   H33       1.0  0.9929600000000002  0.71228  0.99643  1.0000
  H   H34       1.0  0.36982  0.80225  0.9007099999999998  1.0000
  H   H35       1.0  0.4907900000000001  0.7368800000000001  0.96763  1.0000
  H   H36       1.0  0.9974000000000001  0.44595  0.50516  1.0000
  H   H37       1.0  0.30697  0.8441  0.42171999999999993  1.0000
  H   H38       1.0  0.19902  0.39087  0.38115999999999994  1.0000
  H   H39       1.0  0.5379100000000001  0.8884400000000001  0.39618  1.0000
  H   H40       1.0  0.7205400000000001  0.007449999999999999  0.32887  1.0000
  H   H41       1.0  0.43145000000000006  0.62928  0.23431  1.0000
  H   H42       1.0  0.24376  0.50693  0.30154  1.0000
  C   C1        1.0  0.9305200000000002  0.43044  0.19311999999999996  1.0000
  C   C2        1.0  0.85515  0.51245  0.19962  1.0000
  C   C3        1.0  0.7556  0.47645  0.23937  1.0000
  C   C4        1.0  0.73463  0.36155  0.27232  1.0000
  C   C5        1.0  0.8169900000000001  0.28687  0.26333  1.0000
  C   C6        1.0  0.6242000000000001  0.31626  0.3132299999999999  1.0000
  C   C7        1.0  0.48881  0.32078  0.3059999999999999  1.0000
  C   C8        1.0  0.38452  0.28459  0.34401  1.0000
  C   C9        1.0  0.41620000000000007  0.24463  0.3901999999999999  1.0000
  C   C10       1.0  0.54731  0.23337000000000002  0.39696  1.0000
  C   C11       1.0  0.6509600000000001  0.2687  0.35888  1.0000
  C   C12       1.0  0.8747100000000001  0.6332100000000002  0.16288999999999998  1.0000
  C   C13       1.0  0.31543  0.21696  0.4330499999999999  1.0000
  C   C14       1.0  0.5702100000000001  0.50001  0.86029  1.0000
  C   C15       1.0  0.48841000000000007  0.34244  0.86664  1.0000
  C   C16       1.0  0.52427  0.27943  0.9063199999999998  1.0000
  C   C17       1.0  0.6390500000000001  0.37307  0.9393599999999998  1.0000
  C   C18       1.0  0.7140600000000004  0.53046  0.93054  1.0000
  C   C19       1.0  0.68338  0.30745  0.9800299999999998  1.0000
  C   C20       1.0  0.6785700000000001  0.16752000000000006  0.97263  1.0000
  C   C21       1.0  0.71522  0.10025  0.01055  1.0000
  C   C22       1.0  0.75563  0.17142  0.056649999999999985  1.0000
  C   C23       1.0  0.76609  0.3136  0.06364  1.0000
  C   C24       1.0  0.73065  0.38175  0.025679999999999994  1.0000
  C   C25       1.0  0.36884  0.24136000000000002  0.8294399999999998  1.0000
  C   C26       1.0  0.7848  0.09848  0.0992  1.0000
  C   C27       1.0  0.49908  0.06983  0.52642  1.0000
  C   C28       1.0  0.6567500000000001  0.14578  0.53294  1.0000
  C   C29       1.0  0.72119  0.24491  0.57289  1.0000
  C   C30       1.0  0.6269800000000001  0.26529  0.60575  1.0000
  C   C31       1.0  0.4696700000000001  0.1827  0.5964499999999998  1.0000
  C   C32       1.0  0.6920200000000001  0.37498  0.64664  1.0000
  C   C33       1.0  0.83211  0.51076  0.63951  1.0000
  C   C34       1.0  0.90003  0.61515  0.67745  1.0000
  C   C35       1.0  0.8277200000000002  0.58335  0.72329  1.0000
  C   C36       1.0  0.68531  0.45116  0.73026  1.0000
  C   C37       1.0  0.61693  0.34736  0.6922  1.0000
  C   C38       1.0  0.7571799999999999  0.12609  0.49615  1.0000
  C   C39       1.0  0.90112  0.6857  0.76553  1.0000
  C   C40       1.0  0.4306400000000001  0.93072  0.8066699999999999  1.0000
  C   C41       1.0  0.5129500000000001  0.8557400000000001  0.8001599999999998  1.0000
  C   C42       1.0  0.47653  0.75581  0.76053  1.0000
  C   C43       1.0  0.36144  0.73425  0.72761  1.0000
  C   C44       1.0  0.28695000000000015  0.8166800000000001  0.73665  1.0000
  C   C45       1.0  0.31595  0.62398  0.6867399999999998  1.0000
  C   C46       1.0  0.32042  0.48876  0.69389  1.0000
  C   C47       1.0  0.28453  0.38459  0.65591  1.0000
  C   C48       1.0  0.24474000000000004  0.41652  0.60983  1.0000
  C   C49       1.0  0.23337999999999995  0.54755  0.60298  1.0000
  C   C50       1.0  0.26851  0.65109  0.64115  1.0000
  C   C51       1.0  0.6329499999999999  0.87532  0.83711  1.0000
  C   C52       1.0  0.21682  0.31557  0.5670199999999999  1.0000
  C   C53       1.0  0.50048  0.5708  0.13973  1.0000
  C   C54       1.0  0.34270000000000006  0.4887  0.13347  1.0000
  C   C55       1.0  0.279  0.52436  0.09379  1.0000
  C   C56       1.0  0.37337000000000004  0.63916  0.060749999999999985  1.0000
  C   C57       1.0  0.53094  0.71407  0.06969  1.0000
  C   C58       1.0  0.30773  0.68357  0.019969999999999998  1.0000
  C   C59       1.0  0.1677200000000001  0.6788000000000001  0.027259999999999996  1.0000
  C   C60       1.0  0.10033999999999997  0.7153  0.9893499999999997  1.0000
  C   C61       1.0  0.17201000000000002  0.75566  0.94331  1.0000
  C   C62       1.0  0.31405000000000005  0.76614  0.9362799999999998  1.0000
  C   C63       1.0  0.38169000000000014  0.7306900000000002  0.9743499999999998  1.0000
  C   C64       1.0  0.2413200000000001  0.36825000000000013  0.1704  1.0000
  C   C65       1.0  0.09940000000000006  0.78437  0.90088  1.0000
  C   C66       1.0  0.06996999999999996  0.49911  0.47350999999999993  1.0000
  C   C67       1.0  0.14603  0.65701  0.46692  1.0000
  C   C68       1.0  0.24514000000000002  0.72123  0.42706999999999995  1.0000
  C   C69       1.0  0.26517  0.6268  0.39427  1.0000
  C   C70       1.0  0.1827100000000001  0.46942000000000006  0.40339  1.0000
  C   C71       1.0  0.37498  0.69194  0.35338999999999987  1.0000
  C   C72       1.0  0.511  0.83227  0.36054  1.0000
  C   C73       1.0  0.6151400000000001  0.8998900000000002  0.32252999999999993  1.0000
  C   C74       1.0  0.5832  0.82765  0.27658  1.0000
  C   C75       1.0  0.4509700000000001  0.6850800000000002  0.26983  1.0000
  C   C76       1.0  0.34722  0.61675  0.3079099999999999  1.0000
  C   C77       1.0  0.12577000000000002  0.75715  0.50383  1.0000
  C   C78       1.0  0.6854000000000001  0.90063  0.23403  1.0000
  N   N1        1.0  0.9094  0.31721  0.22405999999999998  1.0000
  N   N2        1.0  0.68349  0.59242  0.8912999999999999  1.0000
  N   N3        1.0  0.4067200000000001  0.08996  0.5573  1.0000
  N   N4        1.0  0.3172000000000002  0.9090800000000002  0.7758199999999997  1.0000
  N   N5        1.0  0.59311  0.68396  0.10884999999999999  1.0000
  N   N6        1.0  0.09026000000000002  0.40701  0.4425799999999999  1.0000
  O   O1        1.0  0.94087  0.65079  0.12309  1.0000
  O   O2        1.0  0.80803  0.70647  0.17918999999999996  1.0000
  O   O3        1.0  0.18667  0.20755  0.42359999999999987  1.0000
  O   O4        1.0  0.36201  0.2073  0.47544  1.0000
  O   O5        1.0  0.35189000000000004  0.28936  0.79004  1.0000
  O   O6        1.0  0.29508  0.10039  0.84634  1.0000
  O   O7        1.0  0.7973300000000001  0.9806  0.08996  1.0000
  O   O8        1.0  0.7914400000000001  0.15249  0.14167  1.0000
  O   O9        1.0  0.70799  0.061320000000000006  0.4560499999999999  1.0000
  O   O10       1.0  0.8970500000000002  0.19072000000000006  0.51285  1.0000
  O   O11       1.0  0.020739999999999904  0.81622  0.7564999999999997  1.0000
  O   O12       1.0  0.84364  0.63761  0.8078099999999998  1.0000
  O   O13       1.0  0.65019  0.94069  0.87706  1.0000
  O   O14       1.0  0.70693  0.80942  0.8206599999999997  1.0000
  O   O15       1.0  0.20710000000000006  0.18630000000000005  0.5763  1.0000
  O   O16       1.0  0.20756  0.36268  0.52476  1.0000
  O   O17       1.0  0.28973  0.35153  0.21035  1.0000
  O   O18       1.0  0.10096  0.29386  0.15372  1.0000
  O   O19       1.0  0.9815800000000002  0.79712  0.9105899999999998  1.0000
  O   O20       1.0  0.15253  0.7912  0.8581399999999998  1.0000
  O   O21       1.0  0.06170000000000001  0.70822  0.54365  1.0000
  O   O22       1.0  0.19044999999999998  0.8974400000000001  0.4869899999999999  1.0000
  O   O23       1.0  0.8151100000000001  0.02023000000000001  0.24354999999999993  1.0000
  O   O24       1.0  0.63888  0.84427  0.19171999999999997  1.0000
  O   O25       1.0  0.96712  0.00065  0.16673  1.0000
  O   O26       1.0  0.00111  0.96713  0.8331399999999998  1.0000
  O   O27       1.0  0.03198  0.03214  0.49989999999999996  1.0000
