data_image0
_chemical_formula_structural       Cd3H54C84N12O12
_chemical_formula_sum              "Cd3 H54 C84 N12 O12"
_cell_length_a       8.5175
_cell_length_b       15.44179
_cell_length_c       19.69761
_cell_angle_alpha    91.87372
_cell_angle_beta     104.16584
_cell_angle_gamma    90.74114

_space_group_name_H-M_alt    "P 1"
_space_group_IT_number       1

loop_
  _space_group_symop_operation_xyz
  'x, y, z'

loop_
  _atom_site_type_symbol
  _atom_site_label
  _atom_site_symmetry_multiplicity
  _atom_site_fract_x
  _atom_site_fract_y
  _atom_site_fract_z
  _atom_site_occupancy
  Cd  Cd1       1.0  0.95502  0.0313  0.26603  1.0000
  Cd  Cd2       1.0  0.04497  0.96871  0.73397  1.0000
  Cd  Cd3       1.0  0.0  0.5  0.0  1.0000
  H   H1        1.0  0.7320099999999999  0.92659  0.97258  1.0000
  H   H2        1.0  0.4924299999999999  0.7245399999999997  0.058170000000000006  1.0000
  H   H3        1.0  0.54349  0.69788  0.84563  1.0000
  H   H4        1.0  0.8986500000000001  0.90354  0.11704  1.0000
  H   H5        1.0  0.53419  0.98912  0.21313  1.0000
  H   H6        1.0  0.39024  0.88477  0.09653  1.0000
  H   H7        1.0  0.21752999999999997  0.66462  0.98382  1.0000
  H   H8        1.0  0.31464  0.4206799999999999  0.90399  1.0000
  H   H9        1.0  0.56351  0.5352  0.89627  1.0000
  H   H10       1.0  0.95114  0.8789099999999997  0.89451  1.0000
  H   H11       1.0  0.67783  0.9037  0.68673  1.0000
  H   H12       1.0  0.47435999999999995  0.83922  0.76484  1.0000
  H   H13       1.0  0.75327  0.44294  0.77911  1.0000
  H   H14       1.0  0.70428  0.4453099999999999  0.65018  1.0000
  H   H15       1.0  0.81583  0.7195999999999999  0.66534  1.0000
  H   H16       1.0  0.8686599999999998  0.71556  0.79479  1.0000
  H   H17       1.0  0.83154  0.45429  0.56784  1.0000
  H   H18       1.0  0.59364  0.55128  0.36802  1.0000
  H   H19       1.0  0.6005899999999997  0.70082  0.55702  1.0000
  H   H20       1.0  0.54683  0.41443  0.34271  1.0000
  H   H21       1.0  0.61218  0.27965  0.28616  1.0000
  H   H22       1.0  0.04620999999999998  0.25719  0.44913999999999993  1.0000
  H   H23       1.0  0.9842999999999998  0.39341  0.50649  1.0000
  H   H24       1.0  0.58206  0.6838999999999997  0.32459  1.0000
  H   H25       1.0  0.39362  0.7878399999999999  0.25353  1.0000
  H   H26       1.0  0.17390999999999998  0.8348699999999998  0.42444  1.0000
  H   H27       1.0  0.35207999999999995  0.7271899999999998  0.4945  1.0000
  H   H28       1.0  0.26799  0.07342  0.02742  1.0000
  H   H29       1.0  0.50756  0.27547  0.94183  1.0000
  H   H30       1.0  0.4565  0.3021299999999999  0.15437  1.0000
  H   H31       1.0  0.10133999999999994  0.09647  0.88296  1.0000
  H   H32       1.0  0.4658  0.01088  0.78687  1.0000
  H   H33       1.0  0.6097499999999998  0.11524  0.9034699999999999  1.0000
  H   H34       1.0  0.78246  0.3353799999999999  0.01618  1.0000
  H   H35       1.0  0.68535  0.5793299999999998  0.09601  1.0000
  H   H36       1.0  0.43648  0.4648099999999999  0.10373  1.0000
  H   H37       1.0  0.048849999999999984  0.1211  0.10549  1.0000
  H   H38       1.0  0.3221599999999999  0.09631  0.31327  1.0000
  H   H39       1.0  0.52563  0.16078999999999993  0.23516  1.0000
  H   H40       1.0  0.24672999999999998  0.55707  0.22089000000000003  1.0000
  H   H41       1.0  0.29570999999999986  0.5546899999999998  0.34982  1.0000
  H   H42       1.0  0.18416  0.2804099999999999  0.33465  1.0000
  H   H43       1.0  0.13133  0.28445  0.20521  1.0000
  H   H44       1.0  0.1684499999999999  0.54572  0.4321499999999999  1.0000
  H   H45       1.0  0.40635  0.44873  0.63198  1.0000
  H   H46       1.0  0.39940999999999993  0.29918  0.44298  1.0000
  H   H47       1.0  0.45316  0.58557  0.65729  1.0000
  H   H48       1.0  0.38780999999999993  0.7203599999999998  0.71384  1.0000
  H   H49       1.0  0.95378  0.74281  0.55086  1.0000
  H   H50       1.0  0.015690000000000006  0.6066  0.4935  1.0000
  H   H51       1.0  0.41794000000000003  0.31611  0.67541  1.0000
  H   H52       1.0  0.60637  0.21216999999999997  0.74646  1.0000
  H   H53       1.0  0.82608  0.16514  0.57556  1.0000
  H   H54       1.0  0.64791  0.27282  0.50549  1.0000
  C   C1        1.0  0.6743400000000002  0.86274  0.96751  1.0000
  C   C2        1.0  0.61668  0.8300899999999998  0.02239  1.0000
  C   C3        1.0  0.53369  0.75039  0.01471  1.0000
  C   C4        1.0  0.5074399999999999  0.7034299999999998  0.95071  1.0000
  C   C5        1.0  0.56423  0.73453  0.89522  1.0000
  C   C6        1.0  0.6473999999999999  0.81427  0.90432  1.0000
  C   C7        1.0  0.78025  0.9163499999999998  0.12582  1.0000
  C   C8        1.0  0.5882899999999998  0.95664  0.17518  1.0000
  C   C9        1.0  0.51492  0.90528  0.11776  1.0000
  C   C10       1.0  0.27863  0.61214  0.96394  1.0000
  C   C11       1.0  0.33219000000000004  0.48851  0.9199900000000001  1.0000
  C   C12       1.0  0.4540699999999999  0.5447199999999998  0.91405  1.0000
  C   C13       1.0  0.85177  0.87871  0.84822  1.0000
  C   C14       1.0  0.70451  0.8880799999999998  0.74152  1.0000
  C   C15       1.0  0.60387  0.85404  0.77904  1.0000
  C   C16       1.0  0.85582  0.57203  0.87337  1.0000
  C   C17       1.0  0.81281  0.57916  0.7956  1.0000
  C   C18       1.0  0.76646  0.50315  0.75389  1.0000
  C   C19       1.0  0.7408  0.5046  0.68174  1.0000
  C   C20       1.0  0.75701  0.58221  0.64825  1.0000
  C   C21       1.0  0.80009  0.65885  0.68977  1.0000
  C   C22       1.0  0.82914  0.65698  0.76267  1.0000
  C   C23       1.0  0.7217199999999999  0.5786299999999998  0.57097  1.0000
  C   C24       1.0  0.7645  0.50481  0.53677  1.0000
  C   C25       1.0  0.72031  0.49425  0.46367  1.0000
  C   C26       1.0  0.63179  0.5596999999999998  0.4247  1.0000
  C   C27       1.0  0.58694  0.63421  0.45739  1.0000
  C   C28       1.0  0.63495  0.64361  0.53087  1.0000
  C   C29       1.0  0.7607699999999998  0.41439  0.4289799999999999  1.0000
  C   C30       1.0  0.65767  0.38123  0.3661  1.0000
  C   C31       1.0  0.69362  0.3048  0.33431  1.0000
  C   C32       1.0  0.83401  0.25949  0.36379  1.0000
  C   C33       1.0  0.93713  0.29222  0.42652  1.0000
  C   C34       1.0  0.90083  0.36834  0.4587  1.0000
  C   C35       1.0  0.87635  0.17862  0.32945  1.0000
  C   C36       1.0  0.48214  0.69843  0.4152  1.0000
  C   C37       1.0  0.49115  0.7157  0.34642  1.0000
  C   C38       1.0  0.38685  0.7741099999999997  0.30655  1.0000
  C   C39       1.0  0.27225  0.8177799999999998  0.33452  1.0000
  C   C40       1.0  0.2631  0.801  0.40304  1.0000
  C   C41       1.0  0.36529  0.74168  0.44247999999999993  1.0000
  C   C42       1.0  0.16202  0.88245  0.2926  1.0000
  C   C43       1.0  0.32565  0.13726999999999995  0.03249  1.0000
  C   C44       1.0  0.3833100000000001  0.16990999999999995  0.9776100000000001  1.0000
  C   C45       1.0  0.46631000000000006  0.24962  0.98529  1.0000
  C   C46       1.0  0.49255  0.29658  0.04928  1.0000
  C   C47       1.0  0.43576  0.26548  0.10478  1.0000
  C   C48       1.0  0.3526  0.18574  0.09567  1.0000
  C   C49       1.0  0.21974000000000013  0.08365999999999997  0.8741800000000001  1.0000
  C   C50       1.0  0.4117  0.04336  0.82482  1.0000
  C   C51       1.0  0.48507000000000006  0.09473  0.88224  1.0000
  C   C52       1.0  0.72136  0.38785999999999987  0.03606  1.0000
  C   C53       1.0  0.6678  0.5115  0.08001  1.0000
  C   C54       1.0  0.54592  0.45529  0.08595  1.0000
  C   C55       1.0  0.14822  0.12129  0.15178  1.0000
  C   C56       1.0  0.29548  0.11192  0.25847  1.0000
  C   C57       1.0  0.39612  0.14597  0.22095999999999996  1.0000
  C   C58       1.0  0.14418  0.42798  0.12663  1.0000
  C   C59       1.0  0.18717999999999996  0.4208499999999999  0.2044  1.0000
  C   C60       1.0  0.23352999999999996  0.49686  0.24611  1.0000
  C   C61       1.0  0.25919999999999993  0.49541  0.31826  1.0000
  C   C62       1.0  0.2429799999999999  0.4177999999999999  0.35174  1.0000
  C   C63       1.0  0.1999  0.34116  0.31023  1.0000
  C   C64       1.0  0.17084999999999997  0.34303  0.23731999999999998  1.0000
  C   C65       1.0  0.27826999999999996  0.4213699999999999  0.42902000000000007  1.0000
  C   C66       1.0  0.23548999999999995  0.4952  0.46323  1.0000
  C   C67       1.0  0.27968  0.50576  0.53633  1.0000
  C   C68       1.0  0.3682  0.44030999999999987  0.5753  1.0000
  C   C69       1.0  0.41305  0.3657999999999999  0.54261  1.0000
  C   C70       1.0  0.36504  0.3563999999999999  0.46913  1.0000
  C   C71       1.0  0.23922  0.58562  0.57101  1.0000
  C   C72       1.0  0.34233  0.61878  0.63389  1.0000
  C   C73       1.0  0.30637  0.6952  0.66569  1.0000
  C   C74       1.0  0.16598  0.74052  0.63621  1.0000
  C   C75       1.0  0.06286  0.7077899999999998  0.57348  1.0000
  C   C76       1.0  0.09915999999999998  0.63167  0.5413  1.0000
  C   C77       1.0  0.12363999999999993  0.8213899999999997  0.67055  1.0000
  C   C78       1.0  0.51785  0.30158  0.5848  1.0000
  C   C79       1.0  0.50884  0.2843  0.65358  1.0000
  C   C80       1.0  0.61314  0.2259  0.69344  1.0000
  C   C81       1.0  0.72774  0.18223000000000003  0.66548  1.0000
  C   C82       1.0  0.73689  0.19901  0.59696  1.0000
  C   C83       1.0  0.6347  0.25832  0.55752  1.0000
  C   C84       1.0  0.83797  0.11756  0.7074  1.0000
  N   N1        1.0  0.75271  0.96275  0.17948  1.0000
  N   N2        1.0  0.63786  0.8803  0.08616  1.0000
  N   N3        1.0  0.22418999999999992  0.53121  0.95091  1.0000
  N   N4        1.0  0.41917999999999994  0.6236299999999998  0.9428500000000001  1.0000
  N   N5        1.0  0.85776  0.90258  0.78492  1.0000
  N   N6        1.0  0.69873  0.84852  0.84717  1.0000
  N   N7        1.0  0.24728  0.037249999999999985  0.82051  1.0000
  N   N8        1.0  0.36212999999999984  0.11971  0.9138399999999999  1.0000
  N   N9        1.0  0.7758  0.46879  0.04909  1.0000
  N   N10       1.0  0.58081  0.37636999999999987  0.05715  1.0000
  N   N11       1.0  0.14223  0.09743  0.21508  1.0000
  N   N12       1.0  0.30126  0.15149  0.15283  1.0000
  O   O1        1.0  0.8353399999999997  0.4945  0.89479  1.0000
  O   O2        1.0  0.91215  0.63557  0.9146799999999999  1.0000
  O   O3        1.0  0.01561000000000002  0.14690999999999996  0.35286  1.0000
  O   O4        1.0  0.77153  0.14314  0.27676  1.0000
  O   O5        1.0  0.15005999999999994  0.8882799999999997  0.22797999999999996  1.0000
  O   O6        1.0  0.08626  0.9301399999999997  0.32946  1.0000
  O   O7        1.0  0.16465  0.50551  0.10521  1.0000
  O   O8        1.0  0.08784  0.36444  0.08532  1.0000
  O   O9        1.0  0.98438  0.85309  0.64714  1.0000
  O   O10       1.0  0.22846  0.85687  0.72324  1.0000
  O   O11       1.0  0.84994  0.11172999999999997  0.77202  1.0000
  O   O12       1.0  0.9137299999999998  0.06986  0.67054  1.0000
