data_image0
_chemical_formula_structural       Dy8H36C108N12O48
_chemical_formula_sum              "Dy8 H36 C108 N12 O48"
_cell_length_a       14.93206
_cell_length_b       14.92659
_cell_length_c       25.46493
_cell_angle_alpha    81.04995
_cell_angle_beta     80.96631
_cell_angle_gamma    75.12549

_symmetry_space_group_name_H-M    'P 1'
_symmetry_Int_Tables_number       1

loop_
  _symmetry_equiv_pos_as_xyz
  'x,y,z'

loop_
  _atom_site_type_symbol
  _atom_site_label
  _atom_site_symmetry_multiplicity
  _atom_site_fract_x
  _atom_site_fract_y
  _atom_site_fract_z
  _atom_site_occupancy
  Dy  Dy1       1.0  0.8392700000000001  0.9888699999999998  0.25517  1.0000
  Dy  Dy2       1.0  0.5112800000000002  0.9067999999999998  0.95505  1.0000
  Dy  Dy3       1.0  0.008840000000000006  0.1569  0.24749  1.0000
  Dy  Dy4       1.0  0.09151000000000001  0.48644  0.54624  1.0000
  Dy  Dy5       1.0  0.15821999999999997  0.01057999999999999  0.74763  1.0000
  Dy  Dy6       1.0  0.48437000000000013  0.09088  0.05025000000000001  1.0000
  Dy  Dy7       1.0  0.9890700000000001  0.8399799999999998  0.75231  1.0000
  Dy  Dy8       1.0  0.9083399999999999  0.51577  0.45109000000000005  1.0000
  H   H1        1.0  0.20235999999999998  0.022550000000000004  0.13384  1.0000
  H   H2        1.0  0.7144800000000002  0.13052  0.15  1.0000
  H   H3        1.0  0.3336799999999999  0.05931999999999997  0.8753800000000002  1.0000
  H   H4        1.0  0.30640000000000017  0.7991499999999998  0.03599  1.0000
  H   H5        1.0  0.5955400000000001  0.36614  0.04173  1.0000
  H   H6        1.0  0.14751999999999998  0.3033299999999998  0.8057700000000002  1.0000
  H   H7        1.0  0.036400000000000036  0.8267699999999998  0.13165  1.0000
  H   H8        1.0  0.8369400000000001  0.3696099999999999  0.11557000000000002  1.0000
  H   H9        1.0  0.2753400000000001  0.3179199999999999  0.9449600000000001  1.0000
  H   H10       1.0  0.9775000000000004  0.79357  0.36847  1.0000
  H   H11       1.0  0.8679600000000002  0.28398  0.35112  1.0000
  H   H12       1.0  0.93982  0.66652  0.62481  1.0000
  H   H13       1.0  0.20306000000000007  0.6913099999999998  0.46471000000000007  1.0000
  H   H14       1.0  0.6322400000000002  0.4070699999999998  0.4584000000000001  1.0000
  H   H15       1.0  0.6956700000000001  0.8526399999999997  0.69447  1.0000
  H   H16       1.0  0.17114000000000001  0.9619799999999997  0.3695  1.0000
  H   H17       1.0  0.6278300000000002  0.16358999999999999  0.38638  1.0000
  H   H18       1.0  0.68156  0.7250400000000001  0.55506  1.0000
  H   H19       1.0  0.79128  0.9743399999999999  0.8693600000000001  1.0000
  H   H20       1.0  0.2844899999999999  0.8680399999999999  0.8512500000000002  1.0000
  H   H21       1.0  0.6657000000000001  0.93842  0.12805  1.0000
  H   H22       1.0  0.69042  0.19975  0.96617  1.0000
  H   H23       1.0  0.4042500000000002  0.6317999999999998  0.95913  1.0000
  H   H24       1.0  0.8553100000000001  0.69543  0.19558  1.0000
  H   H25       1.0  0.9589200000000001  0.1700199999999999  0.8686400000000002  1.0000
  H   H26       1.0  0.16317  0.6283899999999999  0.88495  1.0000
  H   H27       1.0  0.7258  0.68126  0.05698  1.0000
  H   H28       1.0  0.023970000000000016  0.2068899999999999  0.63086  1.0000
  H   H29       1.0  0.13142000000000006  0.7149099999999998  0.64831  1.0000
  H   H30       1.0  0.05945000000000001  0.33356  0.37361  1.0000
  H   H31       1.0  0.7989700000000002  0.30802  0.53428  1.0000
  H   H32       1.0  0.36823  0.59453  0.5408500000000002  1.0000
  H   H33       1.0  0.30246  0.14589  0.30428  1.0000
  H   H34       1.0  0.8286700000000002  0.03915999999999999  0.63127  1.0000
  H   H35       1.0  0.37068000000000023  0.8366099999999997  0.61488  1.0000
  H   H36       1.0  0.31805000000000017  0.27490999999999993  0.44291  1.0000
  C   C1        1.0  0.11211000000000004  0.9289699999999999  0.13654  1.0000
  C   C2        1.0  0.7829900000000002  0.24531999999999998  0.13686  1.0000
  C   C3        1.0  0.31164000000000003  0.18392999999999995  0.91457  1.0000
  C   C4        1.0  0.19338000000000008  0.9612599999999998  0.11921000000000002  1.0000
  C   C5        1.0  0.7156300000000002  0.19972999999999996  0.12925  1.0000
  C   C6        1.0  0.29896  0.13293999999999997  0.8757000000000003  1.0000
  C   C7        1.0  0.2632700000000001  0.9143199999999998  0.08308  1.0000
  C   C8        1.0  0.6485000000000002  0.24335999999999994  0.09500000000000003  1.0000
  C   C9        1.0  0.23981  0.17626  0.83676  1.0000
  C   C10       1.0  0.25155000000000005  0.8354999999999998  0.06392  1.0000
  C   C11       1.0  0.6484500000000003  0.3325799999999999  0.06805  1.0000
  C   C12       1.0  0.19341999999999998  0.27052  0.83618  1.0000
  C   C13       1.0  0.1698500000000001  0.80368  0.08092  1.0000
  C   C14       1.0  0.7167200000000002  0.37769  0.07524  1.0000
  C   C15       1.0  0.20629  0.32164  0.87523  1.0000
  C   C16       1.0  0.09998000000000008  0.8504999999999998  0.1176  1.0000
  C   C17       1.0  0.7847000000000002  0.3340399999999999  0.10955000000000002  1.0000
  C   C18       1.0  0.26502  0.27836  0.9147400000000002  1.0000
  C   C19       1.0  0.039230000000000056  0.9775699999999998  0.17639  1.0000
  C   C20       1.0  0.85097  0.19899999999999995  0.17552000000000004  1.0000
  C   C21       1.0  0.37459999999999993  0.13802999999999993  0.9560800000000003  1.0000
  C   C22       1.0  0.35067000000000004  0.9466699999999998  0.06295  1.0000
  C   C23       1.0  0.5768100000000002  0.19486  0.08727000000000003  1.0000
  C   C24       1.0  0.22471999999999998  0.12041999999999993  0.7967700000000002  1.0000
  C   C25       1.0  0.15807000000000002  0.72392  0.06078  1.0000
  C   C26       1.0  0.71409  0.46988999999999986  0.04881  1.0000
  C   C27       1.0  0.16002000000000002  0.41851999999999984  0.8735100000000002  1.0000
  C   C28       1.0  0.06952000000000008  0.8846199999999997  0.36549000000000004  1.0000
  C   C29       1.0  0.7519800000000002  0.21684000000000003  0.36473  1.0000
  C   C30       1.0  0.81555  0.6888099999999998  0.58537  1.0000
  C   C31       1.0  0.038820000000000056  0.80268  0.38293  1.0000
  C   C32       1.0  0.79841  0.28402  0.37185  1.0000
  C   C33       1.0  0.8662500000000002  0.7012499999999999  0.62446  1.0000
  C   C34       1.0  0.08714000000000002  0.7333599999999997  0.4185800000000001  1.0000
  C   C35       1.0  0.7551700000000001  0.35214  0.40575  1.0000
  C   C36       1.0  0.8226100000000001  0.7600099999999997  0.6636500000000001  1.0000
  C   C37       1.0  0.16606999999999994  0.746  0.43701000000000007  1.0000
  C   C38       1.0  0.6657100000000002  0.35311999999999993  0.43266000000000004  1.0000
  C   C39       1.0  0.7285899999999998  0.80696  0.66393  1.0000
  C   C40       1.0  0.19669  0.8283499999999999  0.41975  1.0000
  C   C41       1.0  0.6199100000000001  0.28503999999999996  0.42602  1.0000
  C   C42       1.0  0.6776800000000002  0.7942199999999999  0.62479  1.0000
  C   C43       1.0  0.14825000000000016  0.8979499999999998  0.38365  1.0000
  C   C44       1.0  0.66315  0.21620999999999996  0.39211000000000007  1.0000
  C   C45       1.0  0.7211100000000003  0.7354  0.58525  1.0000
  C   C46       1.0  0.018980000000000056  0.9567699999999998  0.32607  1.0000
  C   C47       1.0  0.7973100000000001  0.14757999999999993  0.32652  1.0000
  C   C48       1.0  0.8607100000000001  0.6259999999999998  0.54353  1.0000
  C   C49       1.0  0.05531000000000011  0.64609  0.4387  1.0000
  C   C50       1.0  0.8041100000000002  0.42351  0.4136600000000001  1.0000
  C   C51       1.0  0.87752  0.7735299999999999  0.7045800000000002  1.0000
  C   C52       1.0  0.2766000000000001  0.8409099999999998  0.43937  1.0000
  C   C53       1.0  0.52782  0.28831999999999997  0.45272  1.0000
  C   C54       1.0  0.5807300000000001  0.8402899999999998  0.6264400000000001  1.0000
  C   C55       1.0  0.8823200000000004  0.06785000000000001  0.86474  1.0000
  C   C56       1.0  0.21656999999999998  0.7529299999999999  0.8638900000000003  1.0000
  C   C57       1.0  0.6888300000000005  0.81458  0.08847000000000001  1.0000
  C   C58       1.0  0.80105  0.03597999999999997  0.8833400000000001  1.0000
  C   C59       1.0  0.28386000000000006  0.79858  0.87179  1.0000
  C   C60       1.0  0.70167  0.8652699999999998  0.12741  1.0000
  C   C61       1.0  0.7324000000000003  0.08344999999999995  0.9201000000000001  1.0000
  C   C62       1.0  0.3506800000000001  0.7550699999999999  0.9063300000000001  1.0000
  C   C63       1.0  0.7617700000000002  0.8220499999999996  0.16576000000000005  1.0000
  C   C64       1.0  0.74473  0.16301000000000002  0.93809  1.0000
  C   C65       1.0  0.35131  0.66544  0.93279  1.0000
  C   C66       1.0  0.8090300000000004  0.72823  0.16544  1.0000
  C   C67       1.0  0.8263500000000001  0.19444999999999993  0.9199200000000002  1.0000
  C   C68       1.0  0.28345999999999993  0.62013  0.92524  1.0000
  C   C69       1.0  0.7961000000000003  0.67733  0.12631  1.0000
  C   C70       1.0  0.8952900000000003  0.14664999999999997  0.8831500000000002  1.0000
  C   C71       1.0  0.21527  0.6640299999999998  0.8910400000000003  1.0000
  C   C72       1.0  0.7363500000000002  0.7206  0.0873  1.0000
  C   C73       1.0  0.9550500000000004  0.01879999999999995  0.8245300000000002  1.0000
  C   C74       1.0  0.14819000000000002  0.7999999999999999  0.82542  1.0000
  C   C75       1.0  0.6233800000000002  0.86048  0.04832  1.0000
  C   C76       1.0  0.64581  0.05030999999999996  0.9422600000000001  1.0000
  C   C77       1.0  0.4210500000000002  0.8038499999999997  0.9156500000000001  1.0000
  C   C78       1.0  0.7754700000000001  0.8766499999999998  0.20670000000000005  1.0000
  C   C79       1.0  0.8388100000000001  0.2745699999999999  0.9393900000000002  1.0000
  C   C80       1.0  0.2862000000000002  0.5279999999999999  0.9519300000000003  1.0000
  C   C81       1.0  0.84253  0.5805799999999998  0.12749  1.0000
  C   C82       1.0  0.9308100000000004  0.11605  0.635  1.0000
  C   C83       1.0  0.2466500000000001  0.78266  0.63574  1.0000
  C   C84       1.0  0.1843000000000001  0.3115199999999999  0.41219  1.0000
  C   C85       1.0  0.96257  0.19739999999999996  0.6166  1.0000
  C   C86       1.0  0.20091000000000006  0.71549  0.62774  1.0000
  C   C87       1.0  0.13291000000000006  0.2982399999999998  0.37373000000000006  1.0000
  C   C88       1.0  0.9149  0.26620999999999995  0.58021  1.0000
  C   C89       1.0  0.24465000000000006  0.64827  0.59339  1.0000
  C   C90       1.0  0.1757700000000001  0.23836000000000002  0.33513  1.0000
  C   C91       1.0  0.8355400000000003  0.2535799999999999  0.56225  1.0000
  C   C92       1.0  0.3344000000000001  0.6477299999999998  0.5670500000000002  1.0000
  C   C93       1.0  0.26991  0.1917  0.33475  1.0000
  C   C94       1.0  0.80414  0.17187  0.58023  1.0000
  C   C95       1.0  0.37942000000000004  0.7159699999999998  0.57446  1.0000
  C   C96       1.0  0.32133  0.20475999999999997  0.37355  1.0000
  C   C97       1.0  0.85206  0.10281  0.61678  1.0000
  C   C98       1.0  0.33545000000000014  0.7842599999999996  0.6086300000000001  1.0000
  C   C99       1.0  0.27849  0.26438  0.41274  1.0000
  C   C100      1.0  0.9796300000000004  0.04388999999999997  0.6753700000000001  1.0000
  C   C101      1.0  0.19973000000000005  0.8505199999999999  0.6745300000000001  1.0000
  C   C102      1.0  0.13903999999999997  0.37677  0.45270000000000005  1.0000
  C   C103      1.0  0.9467600000000004  0.35357999999999995  0.5588500000000001  1.0000
  C   C104      1.0  0.1958100000000001  0.5773599999999999  0.58454  1.0000
  C   C105      1.0  0.11988000000000001  0.22404  0.29503  1.0000
  C   C106      1.0  0.72402  0.15959  0.56075  1.0000
  C   C107      1.0  0.4716500000000002  0.7131699999999997  0.54795  1.0000
  C   C108      1.0  0.4179500000000002  0.15825999999999998  0.37185  1.0000
  N   N1        1.0  0.14904000000000003  0.6589799999999998  0.0436  1.0000
  N   N2        1.0  0.7088600000000003  0.5463699999999998  0.02824  1.0000
  N   N3        1.0  0.12256000000000002  0.49772999999999995  0.87046  1.0000
  N   N4        1.0  0.34162000000000003  0.8504399999999998  0.4561700000000001  1.0000
  N   N5        1.0  0.45128  0.2942599999999999  0.47354  1.0000
  N   N6        1.0  0.5014900000000002  0.8776299999999998  0.6296  1.0000
  N   N7        1.0  0.8485700000000003  0.33974999999999994  0.9559800000000003  1.0000
  N   N8        1.0  0.2920400000000003  0.4518699999999998  0.97322  1.0000
  N   N9        1.0  0.87976  0.50118  0.13006  1.0000
  N   N10       1.0  0.65894  0.15021999999999994  0.54387  1.0000
  N   N11       1.0  0.54787  0.70719  0.5269200000000002  1.0000
  N   N12       1.0  0.4972800000000002  0.12067999999999995  0.36882  1.0000
  O   O1        1.0  0.96909  0.94359  0.19456000000000007  1.0000
  O   O2        1.0  0.84274  0.11968999999999995  0.20086  1.0000
  O   O3        1.0  0.42427  0.05450999999999996  0.95195  1.0000
  O   O4        1.0  0.05385000000000001  0.050789999999999974  0.19024  1.0000
  O   O5        1.0  0.9139900000000002  0.23791999999999994  0.18288  1.0000
  O   O6        1.0  0.37826000000000004  0.18180000000000002  0.99441  1.0000
  O   O7        1.0  0.36548000000000014  0.01594  0.08128  1.0000
  O   O8        1.0  0.58099  0.10987  0.10882  1.0000
  O   O9        1.0  0.26032  0.031719999999999984  0.80156  1.0000
  O   O10       1.0  0.40587  0.90115  0.027420000000000003  1.0000
  O   O11       1.0  0.5132100000000003  0.23631999999999995  0.05749  1.0000
  O   O12       1.0  0.17372999999999997  0.15909  0.75943  1.0000
  O   O13       1.0  0.052230000000000006  0.02749  0.30789  1.0000
  O   O14       1.0  0.87703  0.15452  0.3014  1.0000
  O   O15       1.0  0.9436000000000004  0.5744399999999998  0.54746  1.0000
  O   O16       1.0  0.946  0.94136  0.31243  1.0000
  O   O17       1.0  0.75743  0.08513  0.31930000000000003  1.0000
  O   O18       1.0  0.8167100000000004  0.62364  0.50509  1.0000
  O   O19       1.0  0.9852700000000004  0.63233  0.42068  1.0000
  O   O20       1.0  0.8888200000000002  0.41914  0.39173  1.0000
  O   O21       1.0  0.9655800000000001  0.73466  0.70122  1.0000
  O   O22       1.0  0.10149000000000005  0.5907099999999997  0.47367000000000004  1.0000
  O   O23       1.0  0.7634300000000005  0.48646999999999996  0.44418  1.0000
  O   O24       1.0  0.83907  0.82698  0.74079  1.0000
  O   O25       1.0  0.025379999999999996  0.05288999999999997  0.8066900000000001  1.0000
  O   O26       1.0  0.15665999999999994  0.87973  0.8010900000000001  1.0000
  O   O27       1.0  0.5714400000000001  0.9423799999999998  0.05468  1.0000
  O   O28       1.0  0.9411600000000001  0.9457  0.8101100000000001  1.0000
  O   O29       1.0  0.08518000000000003  0.7618199999999998  0.8171800000000002  1.0000
  O   O30       1.0  0.62018  0.81783  0.00941  1.0000
  O   O31       1.0  0.63168  0.9793099999999999  0.92553  1.0000
  O   O32       1.0  0.41832000000000014  0.8883099999999999  0.89385  1.0000
  O   O33       1.0  0.7355200000000004  0.9645099999999998  0.20373  1.0000
  O   O34       1.0  0.5909700000000002  0.09605  0.97785  1.0000
  O   O35       1.0  0.48201  0.7631  0.94731  1.0000
  O   O36       1.0  0.8295000000000005  0.83792  0.24256000000000003  1.0000
  O   O37       1.0  0.9461800000000001  0.9731999999999998  0.69326  1.0000
  O   O38       1.0  0.12012000000000002  0.8413399999999996  0.6987800000000002  1.0000
  O   O39       1.0  0.05590000000000001  0.42706999999999995  0.44811  1.0000
  O   O40       1.0  0.05220000000000002  0.05881999999999998  0.6899  1.0000
  O   O41       1.0  0.23771000000000006  0.9133699999999999  0.68319  1.0000
  O   O42       1.0  0.18311000000000008  0.3815799999999998  0.4906200000000001  1.0000
  O   O43       1.0  0.016880000000000027  0.3683399999999999  0.5764100000000001  1.0000
  O   O44       1.0  0.11067000000000002  0.58187  0.60586  1.0000
  O   O45       1.0  0.03159  0.2623099999999999  0.29880000000000007  1.0000
  O   O46       1.0  0.90108  0.4081499999999999  0.5233900000000001  1.0000
  O   O47       1.0  0.23676  0.51445  0.55411  1.0000
  O   O48       1.0  0.15848000000000004  0.17092999999999994  0.25867  1.0000
