data_image0
_chemical_formula_structural       Cd8H80C64O32
_chemical_formula_sum              "Cd8 H80 C64 O32"
_cell_length_a       11.73013
_cell_length_b       11.73413
_cell_length_c       17.40482
_cell_angle_alpha    94.97807000000002
_cell_angle_beta     94.88586
_cell_angle_gamma    103.40333000000001

_space_group_name_H-M_alt    "P 1"
_space_group_IT_number       1

loop_
  _space_group_symop_operation_xyz
  'x, y, z'

loop_
  _atom_site_type_symbol
  _atom_site_label
  _atom_site_symmetry_multiplicity
  _atom_site_fract_x
  _atom_site_fract_y
  _atom_site_fract_z
  _atom_site_occupancy
  Cd  Cd1       1.0  0.4171399999999999  0.9307799999999999  0.17566  1.0000
  Cd  Cd2       1.0  0.06925000000000005  0.5825900000000002  0.32440000000000013  1.0000
  Cd  Cd3       1.0  0.58284  0.06924  0.82434  1.0000
  Cd  Cd4       1.0  0.93075  0.4174300000000001  0.6756  1.0000
  Cd  Cd5       1.0  0.34407999999999994  0.65605  0.25005000000000005  1.0000
  Cd  Cd6       1.0  0.6559199999999997  0.34395  0.74994  1.0000
  Cd  Cd7       1.0  0.4999999999999999  0.0  0.0  1.0000
  Cd  Cd8       1.0  0.0  0.5  0.5  1.0000
  H   H1        1.0  0.36809999999999987  0.52022  0.06409  1.0000
  H   H2        1.0  0.34765000000000007  0.5832000000000002  0.9309700000000001  1.0000
  H   H3        1.0  0.5011899999999999  0.63591  0.9358700000000001  1.0000
  H   H4        1.0  0.56367  0.56199  0.14124  1.0000
  H   H5        1.0  0.63303  0.62333  0.06348000000000001  1.0000
  H   H6        1.0  0.7649199999999999  0.16357  0.10564  1.0000
  H   H7        1.0  0.8755299999999998  0.03869  0.1815  1.0000
  H   H8        1.0  0.94516  0.19113  0.19076  1.0000
  H   H9        1.0  0.65388  0.28491  0.17866  1.0000
  H   H10       1.0  0.8083699999999999  0.34353  0.19649  1.0000
  H   H11       1.0  0.0888800000000001  0.8882400000000003  0.9610500000000001  1.0000
  H   H12       1.0  0.013389999999999996  0.8438  0.08772000000000002  1.0000
  H   H13       1.0  0.03267999999999995  0.9949600000000001  0.11587000000000003  1.0000
  H   H14       1.0  0.13169  0.14706  0.02456  1.0000
  H   H15       1.0  0.17741  0.09291999999999999  0.93761  1.0000
  H   H16       1.0  0.3579299999999999  0.8857200000000001  0.4399  1.0000
  H   H17       1.0  0.62097  0.98055  0.42626  1.0000
  H   H18       1.0  0.54562  0.8311  0.4210500000000001  1.0000
  H   H19       1.0  0.49971999999999994  0.14116  0.44177  1.0000
  H   H20       1.0  0.34682  0.09698000000000002  0.44601000000000013  1.0000
  H   H21       1.0  0.47992999999999997  0.63177  0.43588  1.0000
  H   H22       1.0  0.41672  0.65247  0.5690100000000001  1.0000
  H   H23       1.0  0.36386  0.49898  0.56406  1.0000
  H   H24       1.0  0.43836999999999987  0.43615  0.35874  1.0000
  H   H25       1.0  0.37668999999999997  0.36697  0.43648  1.0000
  H   H26       1.0  0.83618  0.23506  0.39436  1.0000
  H   H27       1.0  0.9612099999999998  0.12448000000000001  0.3183800000000001  1.0000
  H   H28       1.0  0.80874  0.05485  0.30914  1.0000
  H   H29       1.0  0.71497  0.34608  0.32145000000000007  1.0000
  H   H30       1.0  0.6562299999999999  0.19163  0.30358  1.0000
  H   H31       1.0  0.11177999999999995  0.9111799999999999  0.53893  1.0000
  H   H32       1.0  0.15637000000000006  0.9864200000000001  0.4122400000000001  1.0000
  H   H33       1.0  0.005190000000000022  0.9670500000000001  0.38413  1.0000
  H   H34       1.0  0.8529399999999998  0.8682900000000001  0.47550000000000003  1.0000
  H   H35       1.0  0.9069999999999998  0.82285  0.56247  1.0000
  H   H36       1.0  0.11442999999999998  0.64185  0.0603  1.0000
  H   H37       1.0  0.019350000000000003  0.37875  0.07340000000000003  1.0000
  H   H38       1.0  0.16889  0.45409  0.07859  1.0000
  H   H39       1.0  0.8587  0.50043  0.05845000000000001  1.0000
  H   H40       1.0  0.9033099999999997  0.65326  0.05446  1.0000
  H   H41       1.0  0.6319  0.47979  0.9359100000000001  1.0000
  H   H42       1.0  0.65235  0.41681  0.06903  1.0000
  H   H43       1.0  0.49880999999999986  0.3641  0.06413  1.0000
  H   H44       1.0  0.43632999999999994  0.4380200000000001  0.8587600000000001  1.0000
  H   H45       1.0  0.36697  0.37667  0.93652  1.0000
  H   H46       1.0  0.23506999999999995  0.83643  0.8943500000000002  1.0000
  H   H47       1.0  0.12447000000000001  0.96131  0.8185  1.0000
  H   H48       1.0  0.05483999999999997  0.80888  0.8092400000000002  1.0000
  H   H49       1.0  0.34612000000000004  0.7151000000000001  0.82133  1.0000
  H   H50       1.0  0.19163000000000008  0.6564700000000002  0.8035100000000002  1.0000
  H   H51       1.0  0.9111199999999998  0.11177  0.03895  1.0000
  H   H52       1.0  0.98661  0.15621  0.91228  1.0000
  H   H53       1.0  0.9673199999999997  0.005049999999999983  0.88412  1.0000
  H   H54       1.0  0.8683000000000001  0.8529500000000001  0.97544  1.0000
  H   H55       1.0  0.8225899999999998  0.90708  0.06239000000000001  1.0000
  H   H56       1.0  0.6420599999999999  0.11427999999999999  0.56012  1.0000
  H   H57       1.0  0.37900999999999996  0.019460000000000012  0.57373  1.0000
  H   H58       1.0  0.45438  0.1689  0.57894  1.0000
  H   H59       1.0  0.50028  0.85884  0.55822  1.0000
  H   H60       1.0  0.6531699999999999  0.9030300000000001  0.55398  1.0000
  H   H61       1.0  0.5200699999999999  0.36824  0.5641100000000002  1.0000
  H   H62       1.0  0.58328  0.34753000000000006  0.4309900000000001  1.0000
  H   H63       1.0  0.63614  0.50103  0.4359400000000001  1.0000
  H   H64       1.0  0.5616299999999999  0.56385  0.64126  1.0000
  H   H65       1.0  0.6233099999999999  0.63303  0.56351  1.0000
  H   H66       1.0  0.16382  0.76495  0.60564  1.0000
  H   H67       1.0  0.03879000000000001  0.87553  0.68161  1.0000
  H   H68       1.0  0.19126999999999997  0.94516  0.69086  1.0000
  H   H69       1.0  0.28503  0.65393  0.6785400000000003  1.0000
  H   H70       1.0  0.34377  0.80838  0.69642  1.0000
  H   H71       1.0  0.8882199999999998  0.08883000000000002  0.46107  1.0000
  H   H72       1.0  0.84363  0.013590000000000053  0.5877600000000002  1.0000
  H   H73       1.0  0.9948099999999998  0.03296  0.61587  1.0000
  H   H74       1.0  0.14706  0.13172  0.5245  1.0000
  H   H75       1.0  0.093  0.17716  0.43753  1.0000
  H   H76       1.0  0.8855600000000001  0.35817000000000004  0.9397000000000001  1.0000
  H   H77       1.0  0.98064  0.6212600000000001  0.9266000000000001  1.0000
  H   H78       1.0  0.83111  0.54593  0.92141  1.0000
  H   H79       1.0  0.14129999999999998  0.49957999999999997  0.94155  1.0000
  H   H80       1.0  0.09669000000000001  0.3467500000000001  0.94554  1.0000
  C   C1        1.0  0.43814  0.7063599999999999  0.07542  1.0000
  C   C2        1.0  0.44224999999999987  0.58249  0.04389  1.0000
  C   C3        1.0  0.4317199999999999  0.56732  0.95479  1.0000
  C   C4        1.0  0.55829  0.55538  0.07758000000000002  1.0000
  C   C5        1.0  0.64571  0.057429999999999995  0.16842  1.0000
  C   C6        1.0  0.7568  0.15383000000000005  0.16733  1.0000
  C   C7        1.0  0.8687399999999998  0.12624  0.20556000000000005  1.0000
  C   C8        1.0  0.7358399999999999  0.26984  0.20642000000000005  1.0000
  C   C9        1.0  0.23144  0.9580100000000001  0.0466  1.0000
  C   C10       1.0  0.10841999999999999  0.9579300000000001  0.01059  1.0000
  C   C11       1.0  0.012660000000000024  0.92815  0.0651  1.0000
  C   C12       1.0  0.10835  0.07511000000000001  0.9767200000000001  1.0000
  C   C13       1.0  0.41567  0.94858  0.3358800000000001  1.0000
  C   C14       1.0  0.43125999999999987  0.9531500000000002  0.42335000000000006  1.0000
  C   C15       1.0  0.5479399999999999  0.91973  0.44841  1.0000
  C   C16       1.0  0.43074999999999997  0.07489000000000003  0.4632100000000001  1.0000
  C   C17       1.0  0.29374  0.56184  0.42458  1.0000
  C   C18       1.0  0.41759  0.55771  0.45609  1.0000
  C   C19       1.0  0.4326  0.56837  0.5452  1.0000
  C   C20       1.0  0.44475  0.44163  0.4224  1.0000
  C   C21       1.0  0.94245  0.35424000000000005  0.33163  1.0000
  C   C22       1.0  0.84599  0.24316  0.33267  1.0000
  C   C23       1.0  0.8736699999999998  0.13125000000000006  0.2943600000000001  1.0000
  C   C24       1.0  0.7299999999999999  0.26409  0.29365  1.0000
  C   C25       1.0  0.042050000000000025  0.7685200000000001  0.45339  1.0000
  C   C26       1.0  0.042110000000000015  0.89158  0.48941000000000007  1.0000
  C   C27       1.0  0.07196  0.98719  0.43489  1.0000
  C   C28       1.0  0.9248599999999999  0.8917500000000002  0.5233200000000001  1.0000
  C   C29       1.0  0.05153  0.58428  0.16419  1.0000
  C   C30       1.0  0.04691  0.56852  0.07673000000000003  1.0000
  C   C31       1.0  0.08023  0.45186  0.05138  1.0000
  C   C32       1.0  0.92517  0.56926  0.03705  1.0000
  C   C33       1.0  0.56186  0.29365  0.92459  1.0000
  C   C34       1.0  0.55775  0.41752  0.95611  1.0000
  C   C35       1.0  0.56828  0.43269  0.04521  1.0000
  C   C36       1.0  0.44170999999999994  0.44462999999999997  0.92242  1.0000
  C   C37       1.0  0.35429000000000005  0.9425800000000001  0.8315800000000002  1.0000
  C   C38       1.0  0.24318999999999996  0.84617  0.8326700000000002  1.0000
  C   C39       1.0  0.13126000000000007  0.87377  0.7944400000000003  1.0000
  C   C40       1.0  0.26415  0.73017  0.79358  1.0000
  C   C41       1.0  0.76856  0.042000000000000016  0.9534  1.0000
  C   C42       1.0  0.8915799999999999  0.04207999999999999  0.98941  1.0000
  C   C43       1.0  0.98734  0.07186  0.9349  1.0000
  C   C44       1.0  0.8916499999999999  0.9249000000000002  0.02328  1.0000
  C   C45       1.0  0.58427  0.05144  0.6641100000000001  1.0000
  C   C46       1.0  0.56871  0.046850000000000024  0.57665  1.0000
  C   C47       1.0  0.45205  0.08028  0.55158  1.0000
  C   C48       1.0  0.56923  0.92512  0.53678  1.0000
  C   C49       1.0  0.70626  0.43817000000000006  0.5754200000000003  1.0000
  C   C50       1.0  0.5824099999999999  0.44229  0.54391  1.0000
  C   C51       1.0  0.5673999999999999  0.43164  0.4548000000000001  1.0000
  C   C52       1.0  0.55525  0.5583800000000001  0.5776000000000002  1.0000
  C   C53       1.0  0.057559999999999986  0.64577  0.66837  1.0000
  C   C54       1.0  0.15400999999999998  0.75685  0.66732  1.0000
  C   C55       1.0  0.12633  0.86876  0.7056300000000002  1.0000
  C   C56       1.0  0.26999999999999996  0.73592  0.70635  1.0000
  C   C57       1.0  0.9579499999999997  0.23149  0.54661  1.0000
  C   C58       1.0  0.9578899999999998  0.10843  0.51059  1.0000
  C   C59       1.0  0.92804  0.012819999999999979  0.56511  1.0000
  C   C60       1.0  0.07514  0.10826  0.47668  1.0000
  C   C61       1.0  0.9484700000000001  0.41573  0.8358100000000003  1.0000
  C   C62       1.0  0.9530899999999999  0.43149  0.92327  1.0000
  C   C63       1.0  0.9197599999999998  0.54815  0.94862  1.0000
  C   C64       1.0  0.07482999999999997  0.43075  0.96295  1.0000
  O   O1        1.0  0.41773  0.72578  0.14805  1.0000
  O   O2        1.0  0.45724999999999993  0.78895  0.03416000000000001  1.0000
  O   O3        1.0  0.55032  0.07357000000000002  0.12875000000000006  1.0000
  O   O4        1.0  0.63988  0.9718799999999999  0.20722  1.0000
  O   O5        1.0  0.24117000000000002  0.9143500000000001  0.11086  1.0000
  O   O6        1.0  0.31487999999999994  0.00163  0.007730000000000001  1.0000
  O   O7        1.0  0.39458999999999994  0.84591  0.29476  1.0000
  O   O8        1.0  0.42765  0.040639999999999996  0.30261  1.0000
  O   O9        1.0  0.27438000000000007  0.58227  0.3519700000000001  1.0000
  O   O10       1.0  0.2111  0.54274  0.46586000000000005  1.0000
  O   O11       1.0  0.9263199999999999  0.4496299999999999  0.37137  1.0000
  O   O12       1.0  0.028080000000000008  0.36006  0.29279000000000005  1.0000
  O   O13       1.0  0.08562000000000003  0.75868  0.38904  1.0000
  O   O14       1.0  0.9985399999999999  0.68517  0.49231  1.0000
  O   O15       1.0  0.15424  0.60587  0.20524  1.0000
  O   O16       1.0  0.9594199999999998  0.5721  0.19752000000000006  1.0000
  O   O17       1.0  0.58227  0.27423  0.85195  1.0000
  O   O18       1.0  0.54275  0.21106000000000003  0.96584  1.0000
  O   O19       1.0  0.44967  0.9264300000000001  0.87125  1.0000
  O   O20       1.0  0.36011  0.028129999999999985  0.79279  1.0000
  O   O21       1.0  0.7588199999999999  0.08566  0.88913  1.0000
  O   O22       1.0  0.6851199999999998  0.99838  0.9922700000000001  1.0000
  O   O23       1.0  0.6052899999999999  0.15411  0.7052200000000002  1.0000
  O   O24       1.0  0.5723799999999999  0.95939  0.69739  1.0000
  O   O25       1.0  0.7256200000000002  0.41773999999999994  0.6480300000000002  1.0000
  O   O26       1.0  0.7888999999999999  0.45727  0.53414  1.0000
  O   O27       1.0  0.07368000000000001  0.55038  0.62863  1.0000
  O   O28       1.0  0.97192  0.63995  0.7072100000000002  1.0000
  O   O29       1.0  0.9143799999999999  0.24133  0.61096  1.0000
  O   O30       1.0  0.0014600000000000392  0.31484000000000006  0.5076900000000001  1.0000
  O   O31       1.0  0.8457599999999998  0.39413  0.79475  1.0000
  O   O32       1.0  0.04058000000000006  0.4279100000000001  0.8024800000000002  1.0000
