data_image0
_chemical_formula_structural       Cd8H72C84N8O32
_chemical_formula_sum              "Cd8 H72 C84 N8 O32"
_cell_length_a       12.21657
_cell_length_b       14.742410000000001
_cell_length_c       16.35226
_cell_angle_alpha    116.82598000000002
_cell_angle_beta     105.17786
_cell_angle_gamma    89.87104999999998

_space_group_name_H-M_alt    "P 1"
_space_group_IT_number       1

loop_
  _space_group_symop_operation_xyz
  'x, y, z'

loop_
  _atom_site_type_symbol
  _atom_site_label
  _atom_site_symmetry_multiplicity
  _atom_site_fract_x
  _atom_site_fract_y
  _atom_site_fract_z
  _atom_site_occupancy
  Cd  Cd1       1.0  0.9328899999999998  0.2571900000000001  0.4411500000000001  1.0000
  Cd  Cd2       1.0  0.35135  0.85226  0.35791  1.0000
  Cd  Cd3       1.0  0.5685999999999998  0.81526  0.55808  1.0000
  Cd  Cd4       1.0  0.14839  0.4947100000000001  0.64219  1.0000
  Cd  Cd5       1.0  0.0671  0.74281  0.55885  1.0000
  Cd  Cd6       1.0  0.64864  0.14774  0.64209  1.0000
  Cd  Cd7       1.0  0.43139  0.18474000000000004  0.44192  1.0000
  Cd  Cd8       1.0  0.8516  0.5052900000000002  0.35781  1.0000
  H   H1        1.0  0.07499999999999997  0.04284  0.57655  1.0000
  H   H2        1.0  0.1631  0.9489900000000002  0.45327  1.0000
  H   H3        1.0  0.22619  0.95449  0.6054  1.0000
  H   H4        1.0  0.32522  0.09775999999999997  0.74937  1.0000
  H   H5        1.0  0.17025000000000007  0.18687000000000017  0.7230800000000002  1.0000
  H   H6        1.0  0.24367999999999995  0.23648  0.66906  1.0000
  H   H7        1.0  0.66085  0.21195  0.31659  1.0000
  H   H8        1.0  0.52406  0.07714  0.16718  1.0000
  H   H9        1.0  0.80511  0.90261  0.11696  1.0000
  H   H10       1.0  0.9303999999999999  0.04431  0.27071  1.0000
  H   H11       1.0  0.52413  0.80866  0.107  1.0000
  H   H12       1.0  0.43126999999999993  0.8953100000000003  0.09313  1.0000
  H   H13       1.0  0.62626  0.8354  0.00025  1.0000
  H   H14       1.0  0.53119  0.9212800000000002  0.98754  1.0000
  H   H15       1.0  0.17671000000000003  0.7094200000000003  0.7753300000000001  1.0000
  H   H16       1.0  0.29284  0.85132  0.93097  1.0000
  H   H17       1.0  0.50463  0.63148  0.97064  1.0000
  H   H18       1.0  0.3837599999999999  0.4979200000000001  0.81079  1.0000
  H   H19       1.0  0.42514  0.46640000000000004  0.42375  1.0000
  H   H20       1.0  0.3368999999999999  0.49663000000000007  0.54708  1.0000
  H   H21       1.0  0.2752899999999999  0.34974  0.39475  1.0000
  H   H22       1.0  0.17559999999999998  0.3487000000000001  0.25058  1.0000
  H   H23       1.0  0.33018999999999993  0.4640900000000001  0.27713  1.0000
  H   H24       1.0  0.25627999999999995  0.56773  0.33098  1.0000
  H   H25       1.0  0.83878  0.89497  0.68321  1.0000
  H   H26       1.0  0.9757099999999999  0.9096600000000002  0.83285  1.0000
  H   H27       1.0  0.6950799999999999  0.78547  0.88278  1.0000
  H   H28       1.0  0.56969  0.77315  0.72866  1.0000
  H   H29       1.0  0.9761  0.7017  0.89302  1.0000
  H   H30       1.0  0.0687  0.8020000000000004  0.9068600000000001  1.0000
  H   H31       1.0  0.8740399999999998  0.8355800000000002  0.99993  1.0000
  H   H32       1.0  0.9686599999999999  0.9338900000000002  0.01229  1.0000
  H   H33       1.0  0.32317  0.93355  0.22495  1.0000
  H   H34       1.0  0.20687999999999995  0.9203000000000002  0.06937  1.0000
  H   H35       1.0  0.9953999999999997  0.66095  0.02913  1.0000
  H   H36       1.0  0.11644  0.68673  0.18896  1.0000
  H   H37       1.0  0.9249899999999999  0.95716  0.4234500000000001  1.0000
  H   H38       1.0  0.8368899999999999  0.05101000000000001  0.54673  1.0000
  H   H39       1.0  0.7738  0.04551000000000002  0.3946  1.0000
  H   H40       1.0  0.67477  0.90224  0.25063  1.0000
  H   H41       1.0  0.8297499999999998  0.81313  0.27692  1.0000
  H   H42       1.0  0.7563099999999998  0.76352  0.33094  1.0000
  H   H43       1.0  0.33913999999999994  0.7880500000000003  0.68341  1.0000
  H   H44       1.0  0.4759299999999999  0.9228600000000002  0.83281  1.0000
  H   H45       1.0  0.19487999999999997  0.09738999999999998  0.88304  1.0000
  H   H46       1.0  0.06959  0.9556900000000003  0.72929  1.0000
  H   H47       1.0  0.47585999999999995  0.19133999999999995  0.893  1.0000
  H   H48       1.0  0.56872  0.10469000000000009  0.9068600000000001  1.0000
  H   H49       1.0  0.37372999999999995  0.16460000000000005  0.99975  1.0000
  H   H50       1.0  0.46879999999999994  0.07872000000000004  0.012460000000000002  1.0000
  H   H51       1.0  0.8232799999999998  0.29058  0.22467  1.0000
  H   H52       1.0  0.70716  0.14868  0.06903  1.0000
  H   H53       1.0  0.49536999999999987  0.36852  0.029360000000000008  1.0000
  H   H54       1.0  0.61623  0.50208  0.18921  1.0000
  H   H55       1.0  0.57485  0.5336000000000001  0.57625  1.0000
  H   H56       1.0  0.6630999999999998  0.5033700000000001  0.45292000000000004  1.0000
  H   H57       1.0  0.7246999999999998  0.65026  0.60525  1.0000
  H   H58       1.0  0.8243899999999998  0.6513000000000001  0.74942  1.0000
  H   H59       1.0  0.6698  0.53591  0.72287  1.0000
  H   H60       1.0  0.7437099999999999  0.4322700000000001  0.66902  1.0000
  H   H61       1.0  0.16121999999999997  0.10503000000000003  0.31679000000000007  1.0000
  H   H62       1.0  0.02428  0.09034000000000003  0.16715  1.0000
  H   H63       1.0  0.30490999999999996  0.21453000000000008  0.11722000000000003  1.0000
  H   H64       1.0  0.43029999999999996  0.22685  0.27134  1.0000
  H   H65       1.0  0.02389  0.2983000000000001  0.10698  1.0000
  H   H66       1.0  0.93129  0.198  0.09314  1.0000
  H   H67       1.0  0.12595  0.16442  7e-05  1.0000
  H   H68       1.0  0.03134000000000002  0.06610999999999997  0.98771  1.0000
  H   H69       1.0  0.67683  0.06644999999999998  0.77505  1.0000
  H   H70       1.0  0.7931099999999999  0.07970000000000005  0.93063  1.0000
  H   H71       1.0  0.004589999999999951  0.33905000000000013  0.97086  1.0000
  H   H72       1.0  0.88355  0.3132700000000001  0.81104  1.0000
  C   C1        1.0  0.13436  0.09169  0.56771  1.0000
  C   C2        1.0  0.21211  0.02086000000000001  0.51372  1.0000
  C   C3        1.0  0.28722000000000003  0.0010300000000000777  0.5954500000000001  1.0000
  C   C4        1.0  0.31749  0.10708000000000005  0.68554  1.0000
  C   C5        1.0  0.21487  0.16585  0.66832  1.0000
  C   C6        1.0  0.05887000000000001  0.14213000000000003  0.51516  1.0000
  C   C7        1.0  0.27723999999999993  0.07308000000000005  0.4751800000000001  1.0000
  C   C8        1.0  0.38589  0.9382900000000001  0.5849  1.0000
  C   C9        1.0  0.43365999999999993  0.16289000000000006  0.70273  1.0000
  C   C10       1.0  0.6898499999999997  0.14332  0.26876  1.0000
  C   C11       1.0  0.6141299999999998  0.06747  0.18477  1.0000
  C   C12       1.0  0.65361  0.9788699999999999  0.12676  1.0000
  C   C13       1.0  0.77012  0.9711200000000001  0.15741  1.0000
  C   C14       1.0  0.8408099999999997  0.04937999999999999  0.24203  1.0000
  C   C15       1.0  0.4838499999999999  0.83869  0.0573  1.0000
  C   C16       1.0  0.5749699999999999  0.89251  0.03736  1.0000
  C   C17       1.0  0.25023  0.6953200000000003  0.82061  1.0000
  C   C18       1.0  0.31527  0.77388  0.90781  1.0000
  C   C19       1.0  0.4092499999999999  0.75368  0.96478  1.0000
  C   C20       1.0  0.43348  0.6521400000000002  0.9291  1.0000
  C   C21       1.0  0.36565999999999993  0.57694  0.8404  1.0000
  C   C22       1.0  0.36583  0.52439  0.43255  1.0000
  C   C23       1.0  0.28792  0.50777  0.48637  1.0000
  C   C24       1.0  0.21364999999999995  0.40592000000000006  0.40462  1.0000
  C   C25       1.0  0.18314  0.42181  0.3145  1.0000
  C   C26       1.0  0.28542999999999996  0.4978500000000001  0.3318  1.0000
  C   C27       1.0  0.4415599999999999  0.6270700000000002  0.48498  1.0000
  C   C28       1.0  0.22143999999999994  0.5980100000000003  0.52414  1.0000
  C   C29       1.0  0.11566999999999998  0.35363  0.41561  1.0000
  C   C30       1.0  0.06691000000000001  0.46055  0.29728  1.0000
  C   C31       1.0  0.80996  0.87421  0.73105  1.0000
  C   C32       1.0  0.8856800000000001  0.88251  0.8151700000000001  1.0000
  C   C33       1.0  0.84627  0.8520900000000002  0.87318  1.0000
  C   C34       1.0  0.7298899999999999  0.81355  0.84237  1.0000
  C   C35       1.0  0.65919  0.80699  0.75758  1.0000
  C   C36       1.0  0.01627000000000006  0.78136  0.94272  1.0000
  C   C37       1.0  0.92507  0.8553100000000002  0.96266  1.0000
  C   C38       1.0  0.24972  0.8742900000000002  0.17952  1.0000
  C   C39       1.0  0.18466  0.86588  0.09234  1.0000
  C   C40       1.0  0.09088  0.78878  0.03524  1.0000
  C   C41       1.0  0.06659999999999999  0.72291  0.07076  1.0000
  C   C42       1.0  0.13444  0.7361800000000002  0.15944  1.0000
  C   C43       1.0  0.8656299999999999  0.9083100000000002  0.43229000000000006  1.0000
  C   C44       1.0  0.78788  0.97914  0.48628  1.0000
  C   C45       1.0  0.71277  0.99897  0.40455  1.0000
  C   C46       1.0  0.6825099999999998  0.8929200000000003  0.31446  1.0000
  C   C47       1.0  0.78512  0.83415  0.33168  1.0000
  C   C48       1.0  0.9411299999999999  0.85787  0.48484  1.0000
  C   C49       1.0  0.7227499999999998  0.9269200000000002  0.52482  1.0000
  C   C50       1.0  0.6140999999999999  0.061710000000000084  0.4151000000000001  1.0000
  C   C51       1.0  0.56634  0.8371100000000002  0.29727  1.0000
  C   C52       1.0  0.31014  0.8566800000000002  0.73124  1.0000
  C   C53       1.0  0.3858599999999999  0.93253  0.81523  1.0000
  C   C54       1.0  0.34639  0.021129999999999993  0.87324  1.0000
  C   C55       1.0  0.22986999999999996  0.02888999999999998  0.84258  1.0000
  C   C56       1.0  0.15918999999999994  0.95062  0.75797  1.0000
  C   C57       1.0  0.51614  0.1613100000000001  0.9427000000000001  1.0000
  C   C58       1.0  0.4250199999999999  0.10749  0.96264  1.0000
  C   C59       1.0  0.74976  0.30468  0.17939  1.0000
  C   C60       1.0  0.68473  0.22612  0.09219  1.0000
  C   C61       1.0  0.59074  0.24632  0.03522  1.0000
  C   C62       1.0  0.56651  0.34786  0.0709  1.0000
  C   C63       1.0  0.6343400000000001  0.42306  0.1596  1.0000
  C   C64       1.0  0.63416  0.4756100000000001  0.56745  1.0000
  C   C65       1.0  0.71207  0.49223  0.51363  1.0000
  C   C66       1.0  0.7863499999999999  0.5940800000000003  0.59538  1.0000
  C   C67       1.0  0.8168499999999999  0.57819  0.6855  1.0000
  C   C68       1.0  0.7145599999999999  0.5021500000000001  0.6682000000000001  1.0000
  C   C69       1.0  0.55843  0.37293  0.51502  1.0000
  C   C70       1.0  0.7785499999999999  0.4019900000000001  0.47586  1.0000
  C   C71       1.0  0.88432  0.6463700000000002  0.58438  1.0000
  C   C72       1.0  0.9330899999999999  0.5394500000000001  0.7027200000000001  1.0000
  C   C73       1.0  0.19003  0.12579  0.26895  1.0000
  C   C74       1.0  0.11431999999999999  0.11749000000000002  0.18483  1.0000
  C   C75       1.0  0.15372  0.14791  0.12682  1.0000
  C   C76       1.0  0.27009999999999995  0.18645000000000006  0.15763  1.0000
  C   C77       1.0  0.3408  0.19301  0.24242  1.0000
  C   C78       1.0  0.9837299999999999  0.21864  0.057280000000000005  1.0000
  C   C79       1.0  0.07493  0.14469  0.03734  1.0000
  C   C80       1.0  0.7502799999999997  0.12571  0.82048  1.0000
  C   C81       1.0  0.8153399999999997  0.13412  0.90766  1.0000
  C   C82       1.0  0.9091199999999999  0.21122  0.96476  1.0000
  C   C83       1.0  0.93339  0.27709  0.92924  1.0000
  C   C84       1.0  0.8655599999999999  0.2638200000000001  0.8405600000000001  1.0000
  N   N1        1.0  0.80153  0.13466000000000006  0.29684  1.0000
  N   N2        1.0  0.2750699999999999  0.59789  0.78674  1.0000
  N   N3        1.0  0.6984299999999999  0.8373900000000002  0.70283  1.0000
  N   N4        1.0  0.22496999999999995  0.8105800000000001  0.21314  1.0000
  N   N5        1.0  0.19846000000000003  0.8653400000000002  0.7031600000000001  1.0000
  N   N6        1.0  0.72493  0.40211  0.21326  1.0000
  N   N7        1.0  0.30156  0.16262  0.29717  1.0000
  N   N8        1.0  0.7750199999999998  0.18942000000000006  0.78686  1.0000
  O   O1        1.0  0.021179999999999973  0.2238100000000001  0.56546  1.0000
  O   O2        1.0  0.031490000000000004  0.09961  0.42396  1.0000
  O   O3        1.0  0.28564999999999996  0.16899999999999998  0.50658  1.0000
  O   O4        1.0  0.32307  0.017730000000000003  0.40864  1.0000
  O   O5        1.0  0.38622  0.86513  0.50148  1.0000
  O   O6        1.0  0.46184  0.9495600000000003  0.65878  1.0000
  O   O7        1.0  0.46938  0.12898000000000007  0.62717  1.0000
  O   O8        1.0  0.48643  0.23279  0.78374  1.0000
  O   O9        1.0  0.48114  0.65693  0.4346  1.0000
  O   O10       1.0  0.46744999999999987  0.6768000000000001  0.5760200000000001  1.0000
  O   O11       1.0  0.21271999999999994  0.6627700000000001  0.49304  1.0000
  O   O12       1.0  0.17482  0.60859  0.59013  1.0000
  O   O13       1.0  0.11681  0.36356  0.49911  1.0000
  O   O14       1.0  0.03874999999999999  0.29149  0.3421  1.0000
  O   O15       1.0  0.031080000000000024  0.5024900000000001  0.37277000000000005  1.0000
  O   O16       1.0  0.014370000000000003  0.44916  0.21608  1.0000
  O   O17       1.0  0.9788099999999998  0.77619  0.43454  1.0000
  O   O18       1.0  0.9684999999999998  0.90039  0.57604  1.0000
  O   O19       1.0  0.7143399999999999  0.83101  0.49342  1.0000
  O   O20       1.0  0.6769199999999999  0.9822700000000002  0.59136  1.0000
  O   O21       1.0  0.6137699999999999  0.13487000000000002  0.4985200000000001  1.0000
  O   O22       1.0  0.53815  0.050440000000000026  0.34122  1.0000
  O   O23       1.0  0.53062  0.87102  0.37283  1.0000
  O   O24       1.0  0.51356  0.7672100000000002  0.21625  1.0000
  O   O25       1.0  0.51886  0.34307  0.5654  1.0000
  O   O26       1.0  0.53254  0.3232000000000001  0.42398  1.0000
  O   O27       1.0  0.7872699999999999  0.33723  0.50696  1.0000
  O   O28       1.0  0.82517  0.39141  0.40987  1.0000
  O   O29       1.0  0.88318  0.6364400000000002  0.50089  1.0000
  O   O30       1.0  0.96124  0.7085100000000001  0.6579000000000002  1.0000
  O   O31       1.0  0.9689199999999999  0.49751  0.62723  1.0000
  O   O32       1.0  0.9856299999999997  0.5508400000000001  0.7839200000000001  1.0000
