data_image0
_chemical_formula_structural       Zn8H64C112N8O32
_chemical_formula_sum              "Zn8 H64 C112 N8 O32"
_cell_length_a       10.06932
_cell_length_b       13.49211
_cell_length_c       29.0801
_cell_angle_alpha    90.0
_cell_angle_beta     90.0
_cell_angle_gamma    111.68014

_space_group_name_H-M_alt    "P 1"
_space_group_IT_number       1

loop_
  _space_group_symop_operation_xyz
  'x, y, z'

loop_
  _atom_site_type_symbol
  _atom_site_label
  _atom_site_symmetry_multiplicity
  _atom_site_fract_x
  _atom_site_fract_y
  _atom_site_fract_z
  _atom_site_occupancy
  Zn  Zn1       1.0  0.7468799999999999  0.5166399999999999  0.53383  1.0000
  Zn  Zn2       1.0  0.9764100000000001  0.6224799999999999  0.20309  1.0000
  Zn  Zn3       1.0  0.22872999999999996  0.4820799999999999  0.46655  1.0000
  Zn  Zn4       1.0  0.35489  0.37619  0.7972300000000002  1.0000
  Zn  Zn5       1.0  0.72873  0.4820799999999999  0.03345  1.0000
  Zn  Zn6       1.0  0.8548900000000001  0.37619  0.70277  1.0000
  Zn  Zn7       1.0  0.2468799999999999  0.5166399999999999  0.9661700000000001  1.0000
  Zn  Zn8       1.0  0.47642  0.6224799999999999  0.29691  1.0000
  H   H1        1.0  0.98991  0.80337  0.45889000000000013  1.0000
  H   H2        1.0  0.10623999999999992  0.9249499999999998  0.39316  1.0000
  H   H3        1.0  0.08223999999999998  0.84766  0.3137000000000001  1.0000
  H   H4        1.0  0.50325  0.31262  0.33363000000000004  1.0000
  H   H5        1.0  0.62422  0.18924999999999997  0.3596700000000001  1.0000
  H   H6        1.0  0.8706600000000001  0.26867  0.39251  1.0000
  H   H7        1.0  0.90569  0.3614899999999999  0.51934  1.0000
  H   H8        1.0  0.83415  0.1861  0.48105  1.0000
  H   H9        1.0  0.39727  0.17246999999999996  0.4831300000000001  1.0000
  H   H10       1.0  0.48476999999999987  0.3471199999999999  0.52224  1.0000
  H   H11       1.0  0.7157399999999999  0.7492099999999999  0.35032  1.0000
  H   H12       1.0  0.79646  0.91117  0.39955  1.0000
  H   H13       1.0  0.35624999999999996  0.8899899999999997  0.40303  1.0000
  H   H14       1.0  0.2940399999999999  0.7283499999999998  0.355  1.0000
  H   H15       1.0  0.75069  0.04658  0.4387200000000001  1.0000
  H   H16       1.0  0.4396300000000001  0.03238  0.4455400000000001  1.0000
  H   H17       1.0  0.18719  0.1956  0.54195  1.0000
  H   H18       1.0  0.18242  0.07424999999999998  0.60788  1.0000
  H   H19       1.0  0.23522999999999994  0.15228999999999998  0.68722  1.0000
  H   H20       1.0  0.18892  0.6873  0.6665200000000002  1.0000
  H   H21       1.0  0.43163999999999997  0.8105099999999997  0.64011  1.0000
  H   H22       1.0  0.6  0.73097  0.60774  1.0000
  H   H23       1.0  0.54224  0.63632  0.48044  1.0000
  H   H24       1.0  0.6465699999999999  0.8116899999999999  0.51858  1.0000
  H   H25       1.0  0.22485000000000005  0.8281799999999999  0.51723  1.0000
  H   H26       1.0  0.13676  0.65313  0.4784200000000001  1.0000
  H   H27       1.0  0.9669800000000001  0.24973999999999993  0.64842  1.0000
  H   H28       1.0  0.88523  0.08698999999999998  0.5996500000000002  1.0000
  H   H29       1.0  0.46669  0.10966999999999998  0.59713  1.0000
  H   H30       1.0  0.5665  0.27174  0.64473  1.0000
  H   H31       1.0  0.7033100000000001  0.95127  0.56104  1.0000
  H   H32       1.0  0.40758000000000005  0.96776  0.55456  1.0000
  H   H33       1.0  0.6871899999999999  0.1956  0.9580500000000002  1.0000
  H   H34       1.0  0.68242  0.07424999999999998  0.89212  1.0000
  H   H35       1.0  0.73523  0.15228999999999998  0.8127800000000001  1.0000
  H   H36       1.0  0.68892  0.6873  0.83348  1.0000
  H   H37       1.0  0.9316399999999998  0.8105099999999997  0.85989  1.0000
  H   H38       1.0  0.1  0.73097  0.8922600000000002  1.0000
  H   H39       1.0  0.04224000000000001  0.63632  0.01956  1.0000
  H   H40       1.0  0.14656999999999992  0.8116899999999999  0.9814200000000001  1.0000
  H   H41       1.0  0.7248400000000002  0.8281799999999999  0.98277  1.0000
  H   H42       1.0  0.63675  0.65313  0.02158  1.0000
  H   H43       1.0  0.46699000000000007  0.24973999999999993  0.8515800000000002  1.0000
  H   H44       1.0  0.38522999999999996  0.08698999999999998  0.90035  1.0000
  H   H45       1.0  0.9666800000000001  0.10966999999999998  0.9028700000000002  1.0000
  H   H46       1.0  0.06650000000000003  0.27174  0.85527  1.0000
  H   H47       1.0  0.2033100000000001  0.95127  0.93896  1.0000
  H   H48       1.0  0.9075800000000002  0.96776  0.9454400000000001  1.0000
  H   H49       1.0  0.48991  0.80337  0.04111  1.0000
  H   H50       1.0  0.6062399999999999  0.9249499999999998  0.10684000000000003  1.0000
  H   H51       1.0  0.58224  0.84766  0.18630000000000005  1.0000
  H   H52       1.0  0.003250000000000013  0.31262  0.16637  1.0000
  H   H53       1.0  0.12421999999999998  0.18924999999999997  0.14033000000000007  1.0000
  H   H54       1.0  0.37066  0.26867  0.10749  1.0000
  H   H55       1.0  0.4056899999999999  0.3614899999999999  0.9806600000000001  1.0000
  H   H56       1.0  0.33415  0.1861  0.01895  1.0000
  H   H57       1.0  0.8972699999999999  0.17246999999999996  0.01687  1.0000
  H   H58       1.0  0.9847699999999999  0.3471199999999999  0.97776  1.0000
  H   H59       1.0  0.21573999999999988  0.7492099999999999  0.14968  1.0000
  H   H60       1.0  0.29646000000000006  0.91117  0.10045  1.0000
  H   H61       1.0  0.85625  0.8899899999999997  0.09697  1.0000
  H   H62       1.0  0.7940399999999999  0.7283499999999998  0.14500000000000002  1.0000
  H   H63       1.0  0.25069  0.04658  0.06128  1.0000
  H   H64       1.0  0.9396300000000001  0.03238  0.05446  1.0000
  C   C1        1.0  0.83203  0.60033  0.45719  1.0000
  C   C2        1.0  0.90669  0.6637499999999998  0.41637  1.0000
  C   C3        1.0  0.98416  0.7727699999999998  0.42402000000000006  1.0000
  C   C4        1.0  0.048759999999999915  0.8399999999999997  0.38752  1.0000
  C   C5        1.0  0.03649999999999993  0.7973799999999999  0.34331  1.0000
  C   C6        1.0  0.96402  0.68807  0.33548  1.0000
  C   C7        1.0  0.95681  0.64925  0.28698  1.0000
  C   C8        1.0  0.8984000000000001  0.61858  0.37217000000000006  1.0000
  C   C9        1.0  0.60487  0.51944  0.32947  1.0000
  C   C10       1.0  0.6828900000000001  0.4543499999999999  0.34866  1.0000
  C   C11       1.0  0.61162  0.34341  0.34713000000000005  1.0000
  C   C12       1.0  0.67858  0.27534  0.36185  1.0000
  C   C13       1.0  0.8158100000000001  0.31918999999999986  0.37995  1.0000
  C   C14       1.0  0.88813  0.43015  0.3827600000000001  1.0000
  C   C15       1.0  0.03385999999999997  0.47041999999999995  0.40389000000000014  1.0000
  C   C16       1.0  0.8235700000000001  0.50021  0.36622  1.0000
  C   C17       1.0  0.7940199999999998  0.31603999999999993  0.51118  1.0000
  C   C18       1.0  0.7521800000000001  0.21751999999999996  0.48963  1.0000
  C   C19       1.0  0.60783  0.16324999999999998  0.47765000000000013  1.0000
  C   C20       1.0  0.51051  0.21037  0.49109  1.0000
  C   C21       1.0  0.55869  0.3084  0.513  1.0000
  C   C22       1.0  0.64043  0.7835499999999999  0.3629800000000001  1.0000
  C   C23       1.0  0.6841099999999998  0.8739299999999998  0.39040000000000014  1.0000
  C   C24       1.0  0.58415  0.91689  0.40556  1.0000
  C   C25       1.0  0.4406199999999999  0.8626899999999997  0.39251  1.0000
  C   C26       1.0  0.40439  0.7722299999999999  0.36511  1.0000
  C   C27       1.0  0.63549  0.01376  0.43308  1.0000
  C   C28       1.0  0.55475  0.0647  0.4513  1.0000
  C   C29       1.0  0.23106999999999997  0.3988399999999999  0.54332  1.0000
  C   C30       1.0  0.24280999999999997  0.3355299999999999  0.58418  1.0000
  C   C31       1.0  0.21157  0.22632  0.57679  1.0000
  C   C32       1.0  0.20932  0.15927999999999998  0.6134  1.0000
  C   C33       1.0  0.23980999999999997  0.20238  0.6575100000000001  1.0000
  C   C34       1.0  0.2767  0.31186  0.6650000000000003  1.0000
  C   C35       1.0  0.30834  0.3511699999999999  0.71332  1.0000
  C   C36       1.0  0.28029  0.38112  0.62823  1.0000
  C   C37       1.0  0.08556  0.48028  0.67059  1.0000
  C   C38       1.0  0.22823999999999997  0.5455399999999999  0.65157  1.0000
  C   C39       1.0  0.26684  0.6565  0.65302  1.0000
  C   C40       1.0  0.40104999999999985  0.7243799999999998  0.63811  1.0000
  C   C41       1.0  0.49511000000000005  0.68037  0.62024  1.0000
  C   C42       1.0  0.45781  0.56934  0.61768  1.0000
  C   C43       1.0  0.56376  0.52839  0.59695  1.0000
  C   C44       1.0  0.32347  0.49956  0.6340900000000003  1.0000
  C   C45       1.0  0.47624000000000005  0.68219  0.48882  1.0000
  C   C46       1.0  0.53334  0.7807999999999998  0.51023  1.0000
  C   C47       1.0  0.44384999999999986  0.8359299999999997  0.52238  1.0000
  C   C48       1.0  0.2996400000000001  0.78951  0.50916  1.0000
  C   C49       1.0  0.24929999999999988  0.6912799999999998  0.4874100000000001  1.0000
  C   C50       1.0  0.85734  0.2155  0.63605  1.0000
  C   C51       1.0  0.81031  0.12468999999999997  0.6089  1.0000
  C   C52       1.0  0.66736  0.08191999999999999  0.5941400000000002  1.0000
  C   C53       1.0  0.57835  0.13673999999999997  0.60733  1.0000
  C   C54       1.0  0.63287  0.22750999999999993  0.6345  1.0000
  C   C55       1.0  0.62132  0.98479  0.5667700000000002  1.0000
  C   C56       1.0  0.48986999999999997  0.9346199999999998  0.54868  1.0000
  C   C57       1.0  0.73107  0.3988399999999999  0.95668  1.0000
  C   C58       1.0  0.7428099999999999  0.3355299999999999  0.91582  1.0000
  C   C59       1.0  0.71157  0.22632  0.9232100000000002  1.0000
  C   C60       1.0  0.70932  0.15927999999999998  0.8866  1.0000
  C   C61       1.0  0.7398099999999999  0.20238  0.84249  1.0000
  C   C62       1.0  0.7767  0.31186  0.835  1.0000
  C   C63       1.0  0.8083400000000001  0.3511699999999999  0.7866800000000003  1.0000
  C   C64       1.0  0.78029  0.38112  0.87177  1.0000
  C   C65       1.0  0.58556  0.48028  0.82941  1.0000
  C   C66       1.0  0.7282399999999999  0.5455399999999999  0.8484300000000001  1.0000
  C   C67       1.0  0.76684  0.6565  0.84698  1.0000
  C   C68       1.0  0.90105  0.7243799999999998  0.86189  1.0000
  C   C69       1.0  0.99511  0.68037  0.8797600000000002  1.0000
  C   C70       1.0  0.95781  0.56934  0.88232  1.0000
  C   C71       1.0  0.06375999999999998  0.52839  0.90305  1.0000
  C   C72       1.0  0.82347  0.49956  0.86591  1.0000
  C   C73       1.0  0.97624  0.68219  0.01118  1.0000
  C   C74       1.0  0.033339999999999904  0.7807999999999998  0.9897700000000003  1.0000
  C   C75       1.0  0.9438499999999997  0.8359299999999997  0.9776200000000003  1.0000
  C   C76       1.0  0.79964  0.78951  0.9908400000000002  1.0000
  C   C77       1.0  0.7492999999999997  0.6912799999999998  0.01259  1.0000
  C   C78       1.0  0.3573400000000001  0.2155  0.86395  1.0000
  C   C79       1.0  0.3103099999999999  0.12468999999999997  0.8911000000000002  1.0000
  C   C80       1.0  0.16736  0.08191999999999999  0.90586  1.0000
  C   C81       1.0  0.07835999999999999  0.13673999999999997  0.8926700000000002  1.0000
  C   C82       1.0  0.13286999999999996  0.22750999999999993  0.8655  1.0000
  C   C83       1.0  0.12132000000000001  0.98479  0.93323  1.0000
  C   C84       1.0  0.98987  0.9346199999999998  0.9513200000000002  1.0000
  C   C85       1.0  0.33203  0.60033  0.042810000000000015  1.0000
  C   C86       1.0  0.40669000000000005  0.6637499999999998  0.08363  1.0000
  C   C87       1.0  0.4841599999999999  0.7727699999999998  0.07598000000000003  1.0000
  C   C88       1.0  0.5487599999999999  0.8399999999999997  0.11248  1.0000
  C   C89       1.0  0.5365  0.7973799999999999  0.15669  1.0000
  C   C90       1.0  0.46402000000000004  0.68807  0.16452  1.0000
  C   C91       1.0  0.45681  0.64925  0.21302  1.0000
  C   C92       1.0  0.3984  0.61858  0.12783  1.0000
  C   C93       1.0  0.10487  0.51944  0.17053000000000001  1.0000
  C   C94       1.0  0.18288999999999997  0.4543499999999999  0.15134  1.0000
  C   C95       1.0  0.11162000000000002  0.34341  0.15287  1.0000
  C   C96       1.0  0.17859  0.27534  0.13815  1.0000
  C   C97       1.0  0.31581  0.31918999999999986  0.12005000000000003  1.0000
  C   C98       1.0  0.38813  0.43015  0.11724  1.0000
  C   C99       1.0  0.53385  0.47041999999999995  0.09611  1.0000
  C   C100      1.0  0.3235700000000001  0.50021  0.13378  1.0000
  C   C101      1.0  0.29402  0.31603999999999993  0.98882  1.0000
  C   C102      1.0  0.25218  0.21751999999999996  0.01037  1.0000
  C   C103      1.0  0.10782999999999997  0.16324999999999998  0.02235  1.0000
  C   C104      1.0  0.010509999999999974  0.21037  0.008910000000000001  1.0000
  C   C105      1.0  0.05869  0.3084  0.9870000000000002  1.0000
  C   C106      1.0  0.14042999999999997  0.7835499999999999  0.13702  1.0000
  C   C107      1.0  0.18410999999999988  0.8739299999999998  0.1096  1.0000
  C   C108      1.0  0.08414999999999995  0.91689  0.09444  1.0000
  C   C109      1.0  0.94062  0.8626899999999997  0.10749  1.0000
  C   C110      1.0  0.9043900000000001  0.7722299999999999  0.13489  1.0000
  C   C111      1.0  0.13549  0.01376  0.06692  1.0000
  C   C112      1.0  0.05475000000000001  0.0647  0.048700000000000014  1.0000
  N   N1        1.0  0.50282  0.73347  0.3500900000000001  1.0000
  N   N2        1.0  0.69889  0.3616  0.5221  1.0000
  N   N3        1.0  0.7701  0.2661  0.64916  1.0000
  N   N4        1.0  0.33569999999999994  0.6371899999999999  0.4782100000000001  1.0000
  N   N5        1.0  0.2701  0.2661  0.8508500000000002  1.0000
  N   N6        1.0  0.8357  0.6371899999999999  0.02179  1.0000
  N   N7        1.0  0.0028200000000000117  0.73347  0.14991000000000004  1.0000
  N   N8        1.0  0.19889  0.3616  0.9779000000000001  1.0000
  O   O1        1.0  0.93974  0.55431  0.27768000000000004  1.0000
  O   O2        1.0  0.97323  0.71965  0.25474  1.0000
  O   O3        1.0  0.4676600000000001  0.48475  0.33121  1.0000
  O   O4        1.0  0.67437  0.60875  0.31006  1.0000
  O   O5        1.0  0.05394000000000001  0.40531  0.43485  1.0000
  O   O6        1.0  0.12746999999999997  0.5580399999999999  0.39379  1.0000
  O   O7        1.0  0.90893  0.60909  0.4942  1.0000
  O   O8        1.0  0.69996  0.54565  0.45677  1.0000
  O   O9        1.0  0.38649  0.4458  0.7224300000000001  1.0000
  O   O10       1.0  0.25358  0.28081999999999996  0.7455300000000001  1.0000
  O   O11       1.0  0.98273  0.5148799999999999  0.66876  1.0000
  O   O12       1.0  0.06657999999999999  0.39075999999999994  0.68989  1.0000
  O   O13       1.0  0.65271  0.59442  0.56719  1.0000
  O   O14       1.0  0.56665  0.43917999999999996  0.6062400000000001  1.0000
  O   O15       1.0  0.2994299999999999  0.38987999999999995  0.50637  1.0000
  O   O16       1.0  0.15361  0.45397  0.54372  1.0000
  O   O17       1.0  0.88649  0.4458  0.77757  1.0000
  O   O18       1.0  0.75357  0.28081999999999996  0.75447  1.0000
  O   O19       1.0  0.48273000000000005  0.5148799999999999  0.8312400000000002  1.0000
  O   O20       1.0  0.56658  0.39075999999999994  0.8101100000000002  1.0000
  O   O21       1.0  0.15271  0.59442  0.93281  1.0000
  O   O22       1.0  0.06664999999999999  0.43917999999999996  0.89376  1.0000
  O   O23       1.0  0.79943  0.38987999999999995  0.9936300000000002  1.0000
  O   O24       1.0  0.6536100000000002  0.45397  0.95628  1.0000
  O   O25       1.0  0.43974  0.55431  0.22232  1.0000
  O   O26       1.0  0.47323  0.71965  0.24526000000000003  1.0000
  O   O27       1.0  0.96766  0.48475  0.16879000000000005  1.0000
  O   O28       1.0  0.17437  0.60875  0.18994  1.0000
  O   O29       1.0  0.55394  0.40531  0.06515  1.0000
  O   O30       1.0  0.62747  0.5580399999999999  0.10621000000000003  1.0000
  O   O31       1.0  0.40893000000000007  0.60909  0.005800000000000001  1.0000
  O   O32       1.0  0.19995999999999997  0.54565  0.04323  1.0000
