data_image0
_chemical_formula_structural       Mn6H60C108O36
_chemical_formula_sum              "Mn6 H60 C108 O36"
_cell_length_a       9.42855
_cell_length_b       10.19598
_cell_length_c       33.837340000000005
_cell_angle_alpha    92.39095
_cell_angle_beta     88.94680000000001
_cell_angle_gamma    118.38521

_symmetry_space_group_name_H-M    'P 1'
_symmetry_Int_Tables_number       1

loop_
  _symmetry_equiv_pos_as_xyz
  'x,y,z'

loop_
  _atom_site_type_symbol
  _atom_site_label
  _atom_site_symmetry_multiplicity
  _atom_site_fract_x
  _atom_site_fract_y
  _atom_site_fract_z
  _atom_site_occupancy
  Mn  Mn1       1.0  0.8635100000000001  0.026170000000000027  0.97123  1.0000
  Mn  Mn2       1.0  0.8349300000000001  0.97378  0.52345  1.0000
  Mn  Mn3       1.0  0.1367800000000001  0.97466  0.02877  1.0000
  Mn  Mn4       1.0  0.15123  0.019080000000000007  0.4713200000000001  1.0000
  Mn  Mn5       1.0  0.50093  0.00051  0.00012000000000000002  1.0000
  Mn  Mn6       1.0  0.49376  0.0009700000000000046  0.49923000000000006  1.0000
  H   H1        1.0  0.23419000000000004  0.55678  0.9542400000000001  1.0000
  H   H2        1.0  0.07295000000000001  0.36526  0.9023900000000002  1.0000
  H   H3        1.0  0.47722999999999993  0.55529  0.8225  1.0000
  H   H4        1.0  0.64254  0.73576  0.87626  1.0000
  H   H5        1.0  0.9609499999999999  0.9741700000000001  0.60681  1.0000
  H   H6        1.0  0.016549999999999992  0.03966000000000003  0.6789500000000003  1.0000
  H   H7        1.0  0.52571  0.21910000000000004  0.6575400000000002  1.0000
  H   H8        1.0  0.47153999999999996  0.15844  0.5853000000000003  1.0000
  H   H9        1.0  0.69062  0.78039  0.63919  1.0000
  H   H10       1.0  0.5404800000000001  0.6641800000000002  0.7000300000000003  1.0000
  H   H11       1.0  0.12935999999999998  0.69397  0.65753  1.0000
  H   H12       1.0  0.2788100000000001  0.8058100000000002  0.5957600000000002  1.0000
  H   H13       1.0  0.2381  0.16019000000000003  0.7865800000000001  1.0000
  H   H14       1.0  0.291  0.39373  0.67916  1.0000
  H   H15       1.0  0.18764  0.56133  0.78906  1.0000
  H   H16       1.0  0.6994400000000001  0.44536  0.5452  1.0000
  H   H17       1.0  0.7239500000000001  0.6330700000000002  0.59814  1.0000
  H   H18       1.0  0.92053  0.4386900000000001  0.67715  1.0000
  H   H19       1.0  0.9085400000000001  0.2607800000000001  0.6224600000000002  1.0000
  H   H20       1.0  0.9975700000000001  0.030809999999999987  0.89257  1.0000
  H   H21       1.0  0.98282  0.9569700000000001  0.8209  1.0000
  H   H22       1.0  0.30462000000000006  0.7760600000000001  0.8402300000000003  1.0000
  H   H23       1.0  0.31204000000000004  0.8418500000000002  0.9125900000000002  1.0000
  H   H24       1.0  0.8891800000000001  0.22168000000000007  0.8627600000000002  1.0000
  H   H25       1.0  0.8635100000000001  0.33084  0.80085  1.0000
  H   H26       1.0  0.41833  0.30446  0.84367  1.0000
  H   H27       1.0  0.44893000000000005  0.20247000000000007  0.9065600000000003  1.0000
  H   H28       1.0  0.08357999999999993  0.83723  0.71304  1.0000
  H   H29       1.0  0.89227  0.60085  0.8205300000000002  1.0000
  H   H30       1.0  0.6247700000000002  0.43253  0.71137  1.0000
  H   H31       1.0  0.76553  0.44363  0.04599  1.0000
  H   H32       1.0  0.9254599999999998  0.6375600000000002  0.09756  1.0000
  H   H33       1.0  0.52198  0.44716000000000006  0.17749  1.0000
  H   H34       1.0  0.35697  0.26409  0.12403000000000002  1.0000
  H   H35       1.0  0.02973  0.03422999999999999  0.39635  1.0000
  H   H36       1.0  0.9851  0.9687300000000001  0.3247  1.0000
  H   H37       1.0  0.47175  0.77311  0.34135  1.0000
  H   H38       1.0  0.51275  0.8307200000000001  0.41364000000000006  1.0000
  H   H39       1.0  0.31733000000000006  0.22399000000000002  0.35755  1.0000
  H   H40       1.0  0.47305000000000014  0.3403600000000001  0.29719  1.0000
  H   H41       1.0  0.87682  0.30376  0.34192  1.0000
  H   H42       1.0  0.72185  0.19134000000000007  0.4029500000000001  1.0000
  H   H43       1.0  0.7612400000000001  0.84195  0.21413  1.0000
  H   H44       1.0  0.72547  0.6119  0.32119  1.0000
  H   H45       1.0  0.8159  0.44317  0.2097  1.0000
  H   H46       1.0  0.29919  0.55197  0.4545100000000001  1.0000
  H   H47       1.0  0.2788  0.36588  0.40141  1.0000
  H   H48       1.0  0.0805400000000001  0.5582600000000001  0.32226  1.0000
  H   H49       1.0  0.08713999999999995  0.73331  0.37697  1.0000
  H   H50       1.0  0.001569999999999924  0.96877  0.10703  1.0000
  H   H51       1.0  0.01681  0.04266  0.17872  1.0000
  H   H52       1.0  0.695  0.22388000000000002  0.15951  1.0000
  H   H53       1.0  0.68734  0.15819  0.08711  1.0000
  H   H54       1.0  0.11045  0.77845  0.13726  1.0000
  H   H55       1.0  0.13592  0.66855  0.19905  1.0000
  H   H56       1.0  0.5826  0.69766  0.15648  1.0000
  H   H57       1.0  0.55149  0.79912  0.09355000000000002  1.0000
  H   H58       1.0  0.9179900000000001  0.16002  0.28634  1.0000
  H   H59       1.0  0.10708000000000005  0.3999700000000001  0.17930000000000004  1.0000
  H   H60       1.0  0.37681000000000003  0.5648300000000002  0.28829  1.0000
  C   C1        1.0  0.5466700000000001  0.7761800000000001  0.9484400000000001  1.0000
  C   C2        1.0  0.44883000000000006  0.65895  0.91852  1.0000
  C   C3        1.0  0.28739  0.55474  0.92557  1.0000
  C   C4        1.0  0.19622000000000003  0.44886000000000004  0.89642  1.0000
  C   C5        1.0  0.26483  0.45095  0.85922  1.0000
  C   C6        1.0  0.42467  0.55562  0.85135  1.0000
  C   C7        1.0  0.51676  0.65654  0.8813500000000002  1.0000
  C   C8        1.0  0.18410000000000004  0.0305  0.54894  1.0000
  C   C9        1.0  0.21331  0.06319000000000001  0.59136  1.0000
  C   C10       1.0  0.08414  0.02885  0.6179  1.0000
  C   C11       1.0  0.11449000000000004  0.06505  0.65804  1.0000
  C   C12       1.0  0.27393  0.13381  0.67181  1.0000
  C   C13       1.0  0.40312  0.16642000000000004  0.64609  1.0000
  C   C14       1.0  0.37254999999999994  0.13189  0.60586  1.0000
  C   C15       1.0  0.5721  0.85968  0.57527  1.0000
  C   C16       1.0  0.49210999999999994  0.79646  0.61295  1.0000
  C   C17       1.0  0.56674  0.75873  0.6426800000000003  1.0000
  C   C18       1.0  0.48331999999999997  0.69425  0.6770500000000003  1.0000
  C   C19       1.0  0.32419999999999993  0.66833  0.6814900000000002  1.0000
  C   C20       1.0  0.2510400000000002  0.7117200000000002  0.6529600000000002  1.0000
  C   C21       1.0  0.33461  0.77451  0.6187400000000002  1.0000
  C   C22       1.0  0.20762  0.35791999999999996  0.79184  1.0000
  C   C23       1.0  0.23571  0.25089  0.77143  1.0000
  C   C24       1.0  0.26632  0.26599  0.73084  1.0000
  C   C25       1.0  0.26752  0.38347  0.71071  1.0000
  C   C26       1.0  0.24044999999999997  0.48926  0.73246  1.0000
  C   C27       1.0  0.20938999999999994  0.47811  0.77303  1.0000
  C   C28       1.0  0.78543  0.22852  0.54939  1.0000
  C   C29       1.0  0.80295  0.342  0.58066  1.0000
  C   C30       1.0  0.74974  0.44644000000000006  0.57396  1.0000
  C   C31       1.0  0.76133  0.54972  0.60359  1.0000
  C   C32       1.0  0.82168  0.54542  0.6407500000000002  1.0000
  C   C33       1.0  0.87281  0.44034  0.64829  1.0000
  C   C34       1.0  0.86585  0.34105  0.61783  1.0000
  C   C35       1.0  0.15656999999999988  0.97218  0.95006  1.0000
  C   C36       1.0  0.15468999999999986  0.9387  0.9072300000000002  1.0000
  C   C37       1.0  0.06284999999999998  0.97323  0.88137  1.0000
  C   C38       1.0  0.05489000000000005  0.9334200000000001  0.8413100000000002  1.0000
  C   C39       1.0  0.14257000000000006  0.8627400000000002  0.82699  1.0000
  C   C40       1.0  0.23711000000000002  0.83057  0.85207  1.0000
  C   C41       1.0  0.24149000000000018  0.8674800000000003  0.89228  1.0000
  C   C42       1.0  0.69478  0.15107  0.92672  1.0000
  C   C43       1.0  0.67324  0.20875000000000005  0.8892800000000002  1.0000
  C   C44       1.0  0.78809  0.24303000000000002  0.85894  1.0000
  C   C45       1.0  0.77349  0.3031900000000001  0.82405  1.0000
  C   C46       1.0  0.64145  0.32848  0.81948  1.0000
  C   C47       1.0  0.52184  0.28801  0.84844  1.0000
  C   C48       1.0  0.53876  0.23002000000000003  0.88338  1.0000
  C   C49       1.0  0.85194  0.63681  0.70825  1.0000
  C   C50       1.0  0.98791  0.74494  0.7282  1.0000
  C   C51       1.0  0.0005600000000000309  0.729  0.76861  1.0000
  C   C52       1.0  0.88055  0.6111100000000002  0.7891000000000002  1.0000
  C   C53       1.0  0.74601  0.50492  0.76782  1.0000
  C   C54       1.0  0.7298  0.51621  0.7273300000000001  1.0000
  C   C55       1.0  0.45378  0.22442000000000004  0.05168  1.0000
  C   C56       1.0  0.55096  0.34144  0.08171  1.0000
  C   C57       1.0  0.7121799999999999  0.44603  0.07459  1.0000
  C   C58       1.0  0.8027  0.55298  0.10357  1.0000
  C   C59       1.0  0.7337600000000001  0.5513200000000001  0.14066  1.0000
  C   C60       1.0  0.57438  0.44575  0.1487  1.0000
  C   C61       1.0  0.48264  0.34373  0.11885000000000001  1.0000
  C   C62       1.0  0.79385  0.96644  0.45219  1.0000
  C   C63       1.0  0.77323  0.93486  0.41044  1.0000
  C   C64       1.0  0.90734  0.97502  0.38482  1.0000
  C   C65       1.0  0.8833599999999999  0.9392700000000002  0.34459  1.0000
  C   C66       1.0  0.72627  0.8658800000000001  0.32929000000000014  1.0000
  C   C67       1.0  0.59254  0.82824  0.35388  1.0000
  C   C68       1.0  0.61576  0.86132  0.39423  1.0000
  C   C69       1.0  0.4263600000000001  0.14734  0.42228000000000004  1.0000
  C   C70       1.0  0.5122  0.20547000000000004  0.38479  1.0000
  C   C71       1.0  0.44085  0.24422  0.35448  1.0000
  C   C72       1.0  0.52715  0.30844  0.32047  1.0000
  C   C73       1.0  0.6861400000000002  0.33347  0.31687  1.0000
  C   C74       1.0  0.75537  0.28732  0.34573  1.0000
  C   C75       1.0  0.66864  0.22427  0.37967  1.0000
  C   C76       1.0  0.79396  0.64591  0.20784  1.0000
  C   C77       1.0  0.76655  0.75194  0.22891000000000006  1.0000
  C   C78       1.0  0.74108  0.73748  0.26974  1.0000
  C   C79       1.0  0.74524  0.6216  0.28948  1.0000
  C   C80       1.0  0.7704899999999999  0.51595  0.267  1.0000
  C   C81       1.0  0.79584  0.52648  0.22621000000000005  1.0000
  C   C82       1.0  0.20559999999999998  0.76429  0.45036  1.0000
  C   C83       1.0  0.19330000000000008  0.65309  0.41905  1.0000
  C   C84       1.0  0.24922  0.55056  0.42567  1.0000
  C   C85       1.0  0.24033000000000002  0.44853  0.39594  1.0000
  C   C86       1.0  0.17975  0.4524  0.35878  1.0000
  C   C87       1.0  0.12785000000000002  0.55685  0.35118  1.0000
  C   C88       1.0  0.13163  0.65444  0.38172  1.0000
  C   C89       1.0  0.8427  0.0272  0.04982  1.0000
  C   C90       1.0  0.84461  0.06099  0.09254000000000003  1.0000
  C   C91       1.0  0.93661  0.02649  0.11833  1.0000
  C   C92       1.0  0.9449199999999999  0.06653  0.15834  1.0000
  C   C93       1.0  0.8573200000000001  0.13737  0.17262  1.0000
  C   C94       1.0  0.76248  0.16944000000000006  0.14759000000000005  1.0000
  C   C95       1.0  0.75787  0.13242  0.1074  1.0000
  C   C96       1.0  0.3059200000000001  0.8500000000000001  0.07335  1.0000
  C   C97       1.0  0.32693999999999995  0.79219  0.11079  1.0000
  C   C98       1.0  0.21175000000000005  0.7573600000000003  0.14108  1.0000
  C   C99       1.0  0.22623  0.69677  0.17591000000000007  1.0000
  C   C100      1.0  0.35857000000000006  0.6718900000000001  0.18051000000000006  1.0000
  C   C101      1.0  0.47861000000000004  0.71327  0.15163  1.0000
  C   C102      1.0  0.46162  0.77129  0.11672  1.0000
  C   C103      1.0  0.14939  0.36051  0.29131000000000007  1.0000
  C   C104      1.0  0.013420000000000008  0.25274  0.27126  1.0000
  C   C105      1.0  0.00015000000000000912  0.27008  0.23097  1.0000
  C   C106      1.0  0.11968000000000004  0.3888  0.21063  1.0000
  C   C107      1.0  0.25450000000000006  0.49428000000000005  0.23195  1.0000
  C   C108      1.0  0.27144  0.48155  0.27234  1.0000
  O   O1        1.0  0.47138  0.81668  0.97408  1.0000
  O   O2        1.0  0.70042  0.83224  0.94634  1.0000
  O   O3        1.0  0.038579999999999885  0.96657  0.53418  1.0000
  O   O4        1.0  0.30013  0.06588000000000002  0.52375  1.0000
  O   O5        1.0  0.70667  0.85746  0.5667900000000002  1.0000
  O   O6        1.0  0.50637  0.9124100000000002  0.55328  1.0000
  O   O7        1.0  0.17031999999999997  0.3376  0.83198  1.0000
  O   O8        1.0  0.30586  0.16374  0.71223  1.0000
  O   O9        1.0  0.23281000000000004  0.6060900000000001  0.71484  1.0000
  O   O10       1.0  0.6854  0.20139  0.52148  1.0000
  O   O11       1.0  0.87136  0.16256  0.55352  1.0000
  O   O12       1.0  0.09002  0.04988  0.96402  1.0000
  O   O13       1.0  0.2203800000000001  0.92177  0.97434  1.0000
  O   O14       1.0  0.8318  0.15612000000000004  0.9328100000000003  1.0000
  O   O15       1.0  0.57501  0.09896000000000003  0.95075  1.0000
  O   O16       1.0  0.8365199999999998  0.6564  0.66829  1.0000
  O   O17       1.0  0.14427000000000004  0.8312  0.7865700000000002  1.0000
  O   O18       1.0  0.6173399999999998  0.38731  0.78543  1.0000
  O   O19       1.0  0.52926  0.18426  0.026000000000000006  1.0000
  O   O20       1.0  0.30003  0.16839000000000007  0.053620000000000015  1.0000
  O   O21       1.0  0.9372600000000001  0.037919999999999995  0.47025  1.0000
  O   O22       1.0  0.6766900000000001  0.92176  0.47828  1.0000
  O   O23       1.0  0.29424  0.15399  0.42884  1.0000
  O   O24       1.0  0.48648  0.09433  0.44633  1.0000
  O   O25       1.0  0.82725  0.66672  0.16748  1.0000
  O   O26       1.0  0.7012199999999998  0.83888  0.28854  1.0000
  O   O27       1.0  0.78008  0.39877  0.28397  1.0000
  O   O28       1.0  0.30685  0.7967200000000002  0.47833000000000003  1.0000
  O   O29       1.0  0.11327999999999999  0.82406  0.4464800000000001  1.0000
  O   O30       1.0  0.90944  0.94973  0.03581  1.0000
  O   O31       1.0  0.77883  0.07767  0.025550000000000003  1.0000
  O   O32       1.0  0.16906000000000015  0.8450700000000001  0.06713000000000001  1.0000
  O   O33       1.0  0.42597  0.90179  0.04937  1.0000
  O   O34       1.0  0.16394  0.34075  0.33133  1.0000
  O   O35       1.0  0.85589  0.16909  0.21294  1.0000
  O   O36       1.0  0.38279000000000013  0.6128800000000002  0.21449000000000004  1.0000
