data_image0
_chemical_formula_structural       Cu10H42C78N38
_chemical_formula_sum              "Cu10 H42 C78 N38"
_cell_length_a       11.24407
_cell_length_b       13.233739999999997
_cell_length_c       15.187410000000002
_cell_angle_alpha    81.27149
_cell_angle_beta     77.07567
_cell_angle_gamma    80.53686

_symmetry_space_group_name_H-M    'P 1'
_symmetry_Int_Tables_number       1

loop_
  _symmetry_equiv_pos_as_xyz
  'x,y,z'

loop_
  _atom_site_type_symbol
  _atom_site_label
  _atom_site_symmetry_multiplicity
  _atom_site_fract_x
  _atom_site_fract_y
  _atom_site_fract_z
  _atom_site_occupancy
  Cu  Cu1       1.0  0.19829999999999995  0.6375100000000001  0.4889500000000001  1.0000
  Cu  Cu2       1.0  0.41627999999999993  0.33028  0.89583  1.0000
  Cu  Cu3       1.0  0.34645  0.6406  0.27145  1.0000
  Cu  Cu4       1.0  0.19904  0.54722  0.21617000000000006  1.0000
  Cu  Cu5       1.0  0.71051  0.03758  0.69104  1.0000
  Cu  Cu6       1.0  0.8017000000000001  0.36249  0.51105  1.0000
  Cu  Cu7       1.0  0.58372  0.66972  0.10416000000000002  1.0000
  Cu  Cu8       1.0  0.65355  0.35939000000000004  0.72855  1.0000
  Cu  Cu9       1.0  0.8009500000000002  0.45278  0.7838300000000002  1.0000
  Cu  Cu10      1.0  0.28949  0.96243  0.30897  1.0000
  H   H1        1.0  0.6335299999999999  0.30378  0.2755900000000001  1.0000
  H   H2        1.0  0.26472  0.48263  0.7931800000000002  1.0000
  H   H3        1.0  0.2757499999999999  0.54481  0.6279300000000001  1.0000
  H   H4        1.0  0.49546999999999997  0.25534  0.5669500000000001  1.0000
  H   H5        1.0  0.48781000000000013  0.20952  0.73335  1.0000
  H   H6        1.0  0.5494099999999998  0.33662000000000003  0.007420000000000002  1.0000
  H   H7        1.0  0.69088  0.25983  0.11308000000000003  1.0000
  H   H8        1.0  0.24958  0.08802  0.14818  1.0000
  H   H9        1.0  0.7009400000000001  0.015689999999999996  0.08245000000000002  1.0000
  H   H10       1.0  0.5719500000000001  0.93843  0.22491000000000003  1.0000
  H   H11       1.0  0.019399999999999983  0.6505  0.14789  1.0000
  H   H12       1.0  0.36138  0.17374000000000003  0.00815  1.0000
  H   H13       1.0  0.14243999999999998  0.06938  0.67019  1.0000
  H   H14       1.0  0.73349  0.6545600000000001  0.66701  1.0000
  H   H15       1.0  0.16477999999999995  0.24993000000000007  0.5919  1.0000
  H   H16       1.0  0.08758000000000005  0.76011  0.61804  1.0000
  H   H17       1.0  0.058009999999999916  0.60621  0.8670500000000002  1.0000
  H   H18       1.0  0.8252699999999998  0.76667  0.13588000000000006  1.0000
  H   H19       1.0  0.8592599999999998  0.7219  0.8669300000000002  1.0000
  H   H20       1.0  0.97662  0.93654  0.64225  1.0000
  H   H21       1.0  0.63588  0.83362  0.6917000000000002  1.0000
  H   H22       1.0  0.36647  0.6962199999999998  0.7244100000000002  1.0000
  H   H23       1.0  0.73527  0.51737  0.20681000000000005  1.0000
  H   H24       1.0  0.72425  0.45519000000000004  0.3720700000000001  1.0000
  H   H25       1.0  0.50452  0.74466  0.43304  1.0000
  H   H26       1.0  0.5121800000000001  0.7904800000000001  0.26665  1.0000
  H   H27       1.0  0.45058999999999977  0.66338  0.9925800000000001  1.0000
  H   H28       1.0  0.30911  0.74017  0.88692  1.0000
  H   H29       1.0  0.7504199999999998  0.9119800000000001  0.8518200000000002  1.0000
  H   H30       1.0  0.2990599999999999  0.98431  0.9175500000000002  1.0000
  H   H31       1.0  0.4280499999999999  0.061559999999999955  0.7750900000000002  1.0000
  H   H32       1.0  0.98059  0.34949999999999987  0.8521100000000003  1.0000
  H   H33       1.0  0.63861  0.8262599999999999  0.9918500000000001  1.0000
  H   H34       1.0  0.8575500000000001  0.93062  0.32981  1.0000
  H   H35       1.0  0.2665  0.34544  0.3329800000000001  1.0000
  H   H36       1.0  0.8352100000000001  0.75007  0.4081  1.0000
  H   H37       1.0  0.91242  0.23989000000000008  0.3819600000000001  1.0000
  H   H38       1.0  0.9419800000000002  0.39379  0.13295  1.0000
  H   H39       1.0  0.17471999999999985  0.23333000000000004  0.8641100000000003  1.0000
  H   H40       1.0  0.14073  0.2781  0.13307000000000005  1.0000
  H   H41       1.0  0.023379999999999974  0.06346  0.35775  1.0000
  H   H42       1.0  0.36411999999999994  0.16637999999999997  0.30830000000000013  1.0000
  C   C1        1.0  0.61545  0.15194999999999997  0.95053  1.0000
  C   C2        1.0  0.9736999999999999  0.5858699999999999  0.6300900000000003  1.0000
  C   C3        1.0  0.9964899999999999  0.31467000000000006  0.6750800000000001  1.0000
  C   C4        1.0  0.5437  0.1035  0.0332  1.0000
  C   C5        1.0  0.7636  0.19244999999999998  0.8447200000000002  1.0000
  C   C6        1.0  0.8812800000000001  0.20178999999999997  0.7818400000000002  1.0000
  C   C7        1.0  0.007689999999999939  0.42158  0.6392200000000001  1.0000
  C   C8        1.0  0.3924199999999998  0.43489000000000005  0.4863400000000001  1.0000
  C   C9        1.0  0.4203  0.41724  0.10936000000000001  1.0000
  C   C10       1.0  0.57626  0.33455  0.22612  1.0000
  C   C11       1.0  0.43393  0.43351  0.3437300000000001  1.0000
  C   C12       1.0  0.46938  0.4030200000000001  0.25205  1.0000
  C   C13       1.0  0.38459  0.40388  0.5833100000000002  1.0000
  C   C14       1.0  0.31558  0.43559999999999993  0.74038  1.0000
  C   C15       1.0  0.32121  0.46869  0.6486800000000001  1.0000
  C   C16       1.0  0.44288  0.30736  0.61496  1.0000
  C   C17       1.0  0.43832999999999994  0.28177  0.7076700000000001  1.0000
  C   C18       1.0  0.32993  0.4603  0.053710000000000015  1.0000
  C   C19       1.0  0.5285300000000002  0.35274  0.07764  1.0000
  C   C20       1.0  0.6067800000000001  0.31039  0.13683  1.0000
  C   C21       1.0  0.9184  0.6915  0.64232  1.0000
  C   C22       1.0  0.17143999999999998  0.55046  0.011640000000000003  1.0000
  C   C23       1.0  0.3497199999999999  0.07539  0.13285  1.0000
  C   C24       1.0  0.60115  0.034539999999999994  0.09609000000000002  1.0000
  C   C25       1.0  0.52929  0.99101  0.17494  1.0000
  C   C26       1.0  0.98819  0.6656900000000001  0.08395000000000002  1.0000
  C   C27       1.0  0.05685999999999997  0.61969  0.007930000000000003  1.0000
  C   C28       1.0  0.41463  0.12314000000000003  0.05331  1.0000
  C   C29       1.0  0.07163999999999993  0.13364  0.6898800000000003  1.0000
  C   C30       1.0  0.7897700000000006  0.71478  0.66264  1.0000
  C   C31       1.0  0.08624000000000002  0.23302  0.64588  1.0000
  C   C32       1.0  0.96777  0.11844  0.75702  1.0000
  C   C33       1.0  0.98739  0.7731399999999998  0.6340900000000003  1.0000
  C   C34       1.0  0.009419999999999967  0.64111  0.9277400000000002  1.0000
  C   C35       1.0  0.87904  0.7304699999999998  0.07705  1.0000
  C   C36       1.0  0.8984599999999998  0.70586  0.9280100000000002  1.0000
  C   C37       1.0  0.9261599999999999  0.87174  0.6470000000000002  1.0000
  C   C38       1.0  0.7356699999999999  0.8148200000000002  0.6750400000000002  1.0000
  C   C39       1.0  0.25358999999999987  0.8442900000000001  0.38435000000000014  1.0000
  C   C40       1.0  0.38454  0.84805  0.04947  1.0000
  C   C41       1.0  0.026289999999999977  0.41413000000000005  0.36991  1.0000
  C   C42       1.0  0.0034999999999999563  0.68533  0.3249200000000001  1.0000
  C   C43       1.0  0.4563  0.8965  0.9668000000000002  1.0000
  C   C44       1.0  0.23640000000000003  0.80755  0.15528  1.0000
  C   C45       1.0  0.11871999999999999  0.7982  0.21816000000000005  1.0000
  C   C46       1.0  0.9922999999999998  0.57842  0.36077  1.0000
  C   C47       1.0  0.6075800000000001  0.5651099999999999  0.5136600000000002  1.0000
  C   C48       1.0  0.5797  0.58276  0.89064  1.0000
  C   C49       1.0  0.4237300000000003  0.6654500000000001  0.77387  1.0000
  C   C50       1.0  0.56606  0.56649  0.65627  1.0000
  C   C51       1.0  0.5306099999999998  0.59698  0.7479500000000002  1.0000
  C   C52       1.0  0.61541  0.59613  0.41669  1.0000
  C   C53       1.0  0.6844199999999999  0.5644  0.25962  1.0000
  C   C54       1.0  0.67879  0.53131  0.3513100000000001  1.0000
  C   C55       1.0  0.5571099999999999  0.69264  0.3850400000000001  1.0000
  C   C56       1.0  0.56166  0.71823  0.2923300000000001  1.0000
  C   C57       1.0  0.67007  0.5397  0.9462800000000002  1.0000
  C   C58       1.0  0.47146  0.64726  0.9223600000000002  1.0000
  C   C59       1.0  0.39322  0.6896100000000001  0.86317  1.0000
  C   C60       1.0  0.08159999999999994  0.3085  0.3576800000000001  1.0000
  C   C61       1.0  0.8285499999999998  0.44954000000000005  0.9883500000000002  1.0000
  C   C62       1.0  0.65028  0.9246100000000002  0.86716  1.0000
  C   C63       1.0  0.39884999999999987  0.9654500000000003  0.9039100000000002  1.0000
  C   C64       1.0  0.47070999999999996  0.008979999999999969  0.8250500000000002  1.0000
  C   C65       1.0  0.011799999999999984  0.33431  0.91604  1.0000
  C   C66       1.0  0.94314  0.3803099999999999  0.9920700000000002  1.0000
  C   C67       1.0  0.5853600000000001  0.8768600000000002  0.9466900000000003  1.0000
  C   C68       1.0  0.9283600000000001  0.86636  0.31011  1.0000
  C   C69       1.0  0.21023000000000003  0.28522  0.3373500000000001  1.0000
  C   C70       1.0  0.9137500000000001  0.76698  0.35411000000000004  1.0000
  C   C71       1.0  0.03222999999999994  0.8815600000000002  0.24298  1.0000
  C   C72       1.0  0.01261000000000001  0.22686  0.36591  1.0000
  C   C73       1.0  0.9905700000000001  0.35889  0.07226  1.0000
  C   C74       1.0  0.12094999999999995  0.26953  0.92295  1.0000
  C   C75       1.0  0.10153999999999999  0.29414  0.07198000000000003  1.0000
  C   C76       1.0  0.07383999999999996  0.12826  0.35299000000000014  1.0000
  C   C77       1.0  0.26431999999999983  0.18517999999999998  0.32496000000000014  1.0000
  C   C78       1.0  0.7464099999999998  0.1557  0.6156400000000002  1.0000
  N   N1        1.0  0.9262699999999998  0.50034  0.67619  1.0000
  N   N2        1.0  0.5655999999999999  0.23066999999999996  0.8951200000000002  1.0000
  N   N3        1.0  0.8968600000000001  0.30045  0.7424200000000002  1.0000
  N   N4        1.0  0.6615799999999998  0.25573  0.8271700000000002  1.0000
  N   N5        1.0  0.7384399999999998  0.12627  0.9206600000000003  1.0000
  N   N6        1.0  0.34261999999999987  0.5287000000000001  0.45114000000000004  1.0000
  N   N7        1.0  0.07778000000000004  0.55913  0.56854  1.0000
  N   N8        1.0  0.09896000000000002  0.4541299999999999  0.5737700000000001  1.0000
  N   N9        1.0  0.37017  0.52751  0.3596000000000001  1.0000
  N   N10       1.0  0.45152999999999993  0.3739400000000001  0.42101000000000005  1.0000
  N   N11       1.0  0.39172  0.44360000000000005  0.19513  1.0000
  N   N12       1.0  0.3747299999999999  0.3436799999999999  0.7709900000000002  1.0000
  N   N13       1.0  0.23012  0.49709  0.94217  1.0000
  N   N14       1.0  0.33019999999999994  0.43873  0.9692200000000002  1.0000
  N   N15       1.0  0.23082000000000005  0.52961  0.08335000000000001  1.0000
  N   N16       1.0  0.4044499999999999  0.010410000000000006  0.19472  1.0000
  N   N17       1.0  0.83273  0.7511  0.0009300000000000003  1.0000
  N   N18       1.0  0.8018899999999998  0.89351  0.66772  1.0000
  N   N19       1.0  0.22462999999999994  0.7691500000000002  0.4316800000000001  1.0000
  N   N20       1.0  0.07373  0.49966  0.32381  1.0000
  N   N21       1.0  0.4344000000000001  0.76933  0.10488  1.0000
  N   N22       1.0  0.10313999999999998  0.6995500000000001  0.25758  1.0000
  N   N23       1.0  0.3384099999999999  0.7442700000000001  0.17282000000000006  1.0000
  N   N24       1.0  0.26155999999999996  0.8737300000000001  0.07934000000000002  1.0000
  N   N25       1.0  0.6573700000000002  0.4713  0.54886  1.0000
  N   N26       1.0  0.92221  0.44087  0.4314600000000001  1.0000
  N   N27       1.0  0.90103  0.54587  0.4262200000000001  1.0000
  N   N28       1.0  0.62982  0.47249  0.6404000000000002  1.0000
  N   N29       1.0  0.54847  0.62606  0.57899  1.0000
  N   N30       1.0  0.6082699999999999  0.5564  0.8048700000000002  1.0000
  N   N31       1.0  0.62526  0.65632  0.22900000000000006  1.0000
  N   N32       1.0  0.76987  0.50291  0.05783000000000001  1.0000
  N   N33       1.0  0.6697899999999998  0.56127  0.030770000000000006  1.0000
  N   N34       1.0  0.76917  0.47039  0.9166400000000002  1.0000
  N   N35       1.0  0.59555  0.98959  0.8052900000000002  1.0000
  N   N36       1.0  0.16726999999999995  0.24890000000000007  0.9990700000000001  1.0000
  N   N37       1.0  0.19811000000000004  0.10649  0.33228  1.0000
  N   N38       1.0  0.77538  0.23086  0.56833  1.0000
