data_image0
_chemical_formula_structural       Mn10H48C84N36
_chemical_formula_sum              "Mn10 H48 C84 N36"
_cell_length_a       11.69892
_cell_length_b       15.69976
_cell_length_c       18.46202
_cell_angle_alpha    90.00497
_cell_angle_beta     90.0
_cell_angle_gamma    90.0

_symmetry_space_group_name_H-M    'P 1'
_symmetry_Int_Tables_number       1

loop_
  _symmetry_equiv_pos_as_xyz
  'x,y,z'

loop_
  _atom_site_type_symbol
  _atom_site_label
  _atom_site_symmetry_multiplicity
  _atom_site_fract_x
  _atom_site_fract_y
  _atom_site_fract_z
  _atom_site_occupancy
  Mn  Mn1       1.0  0.0  0.20199  0.39854  1.0000
  Mn  Mn2       1.0  0.0  0.38203  0.16839  1.0000
  Mn  Mn3       1.0  0.0  0.79802  0.60145  1.0000
  Mn  Mn4       1.0  0.0  0.61799  0.83162  1.0000
  Mn  Mn5       1.0  0.0  0.29803  0.89879  1.0000
  Mn  Mn6       1.0  0.0  0.11813  0.66776  1.0000
  Mn  Mn7       1.0  0.0  0.70198  0.10121  1.0000
  Mn  Mn8       1.0  0.0  0.88187  0.33223  1.0000
  Mn  Mn9       1.0  0.0  0.5  0.5  1.0000
  Mn  Mn10      1.0  0.0  0.99998  2e-05  1.0000
  H   H1        1.0  0.79535  0.42347  0.40907  1.0000
  H   H2        1.0  0.58511  0.42226  0.40372  1.0000
  H   H3        1.0  0.7966299999999997  0.46442  0.0888  1.0000
  H   H4        1.0  0.58602  0.47263  0.08676  1.0000
  H   H5        1.0  0.58503  0.32581  0.28413  1.0000
  H   H6        1.0  0.79429  0.32276  0.27748  1.0000
  H   H7        1.0  0.79535  0.57653  0.59093  1.0000
  H   H8        1.0  0.58511  0.57773  0.59628  1.0000
  H   H9        1.0  0.7966399999999999  0.53557  0.91121  1.0000
  H   H10       1.0  0.58602  0.52737  0.9132399999999999  1.0000
  H   H11       1.0  0.58503  0.67418  0.71587  1.0000
  H   H12       1.0  0.7943  0.67724  0.72252  1.0000
  H   H13       1.0  0.20465  0.07652  0.90908  1.0000
  H   H14       1.0  0.41488  0.07773  0.9037199999999999  1.0000
  H   H15       1.0  0.20338  0.03557  0.58883  1.0000
  H   H16       1.0  0.41397  0.02738  0.58676  1.0000
  H   H17       1.0  0.41497  0.17419  0.78413  1.0000
  H   H18       1.0  0.20570999999999998  0.17724  0.7775  1.0000
  H   H19       1.0  0.20465  0.92347  0.09092  1.0000
  H   H20       1.0  0.41488  0.92227  0.09628  1.0000
  H   H21       1.0  0.20336  0.96444  0.41119  1.0000
  H   H22       1.0  0.41397  0.97263  0.41325  1.0000
  H   H23       1.0  0.41498  0.8258  0.21586  1.0000
  H   H24       1.0  0.20568999999999998  0.82275  0.22249  1.0000
  H   H25       1.0  0.20465  0.57653  0.59093  1.0000
  H   H26       1.0  0.41488  0.57773  0.59628  1.0000
  H   H27       1.0  0.20334999999999998  0.53557  0.91121  1.0000
  H   H28       1.0  0.41397999999999996  0.52737  0.9132399999999999  1.0000
  H   H29       1.0  0.41497  0.67418  0.71587  1.0000
  H   H30       1.0  0.2057  0.67724  0.72252  1.0000
  H   H31       1.0  0.20465  0.42347  0.40907  1.0000
  H   H32       1.0  0.41489  0.42226  0.40372  1.0000
  H   H33       1.0  0.20336  0.46442  0.0888  1.0000
  H   H34       1.0  0.41397999999999996  0.47263  0.08676  1.0000
  H   H35       1.0  0.41497  0.32581  0.28413  1.0000
  H   H36       1.0  0.20570999999999998  0.32276  0.27748  1.0000
  H   H37       1.0  0.79535  0.92347  0.09092  1.0000
  H   H38       1.0  0.58512  0.92227  0.09628  1.0000
  H   H39       1.0  0.7966399999999999  0.96444  0.41119  1.0000
  H   H40       1.0  0.58603  0.97263  0.41325  1.0000
  H   H41       1.0  0.58502  0.8258  0.21586  1.0000
  H   H42       1.0  0.79431  0.82275  0.22249  1.0000
  H   H43       1.0  0.79534  0.07652  0.90908  1.0000
  H   H44       1.0  0.58512  0.07773  0.9037199999999999  1.0000
  H   H45       1.0  0.79662  0.03557  0.58883  1.0000
  H   H46       1.0  0.58603  0.02738  0.58676  1.0000
  H   H47       1.0  0.58503  0.17419  0.78413  1.0000
  H   H48       1.0  0.79429  0.17724  0.7775  1.0000
  C   C1        1.0  0.83136  0.20216  0.39925  1.0000
  C   C2        1.0  0.74565  0.45791  0.449  1.0000
  C   C3        1.0  0.62692  0.45714  0.44677  1.0000
  C   C4        1.0  0.7465599999999999  0.43445  0.13106  1.0000
  C   C5        1.0  0.62769  0.43898  0.13056  1.0000
  C   C6        1.0  0.56348  0.39987  0.18552999999999997  1.0000
  C   C7        1.0  0.62681  0.35879  0.23992  1.0000
  C   C8        1.0  0.74561  0.35631  0.2365  1.0000
  C   C9        1.0  0.83133  0.79783  0.60075  1.0000
  C   C10       1.0  0.74565  0.54209  0.551  1.0000
  C   C11       1.0  0.62692  0.54286  0.55323  1.0000
  C   C12       1.0  0.74655  0.56554  0.8689499999999999  1.0000
  C   C13       1.0  0.62768  0.56102  0.8694399999999999  1.0000
  C   C14       1.0  0.56348  0.60013  0.81447  1.0000
  C   C15       1.0  0.6268  0.64122  0.76008  1.0000
  C   C16       1.0  0.7456  0.64369  0.76349  1.0000
  C   C17       1.0  0.16873  0.29782  0.89931  1.0000
  C   C18       1.0  0.25435  0.04209  0.9489999999999998  1.0000
  C   C19       1.0  0.37308  0.04286  0.9467699999999999  1.0000
  C   C20       1.0  0.25345  0.06553  0.63111  1.0000
  C   C21       1.0  0.3723099999999999  0.06102  0.63057  1.0000
  C   C22       1.0  0.43651  0.10012  0.68554  1.0000
  C   C23       1.0  0.37317  0.14123  0.73992  1.0000
  C   C24       1.0  0.25437  0.14367  0.7365299999999999  1.0000
  C   C25       1.0  0.16874  0.70218  0.10069  1.0000
  C   C26       1.0  0.25435  0.95791  0.051  1.0000
  C   C27       1.0  0.37308  0.95714  0.05322  1.0000
  C   C28       1.0  0.25346  0.93448  0.36891  1.0000
  C   C29       1.0  0.37232  0.93898  0.3694299999999999  1.0000
  C   C30       1.0  0.43651999999999996  0.89988  0.31446  1.0000
  C   C31       1.0  0.37317999999999996  0.85877  0.26008  1.0000
  C   C32       1.0  0.25437  0.85631  0.26345  1.0000
  C   C33       1.0  0.16867  0.79783  0.60075  1.0000
  C   C34       1.0  0.25435  0.54209  0.551  1.0000
  C   C35       1.0  0.37308  0.54286  0.55323  1.0000
  C   C36       1.0  0.25345  0.56554  0.8689499999999999  1.0000
  C   C37       1.0  0.3723099999999999  0.56102  0.8694399999999999  1.0000
  C   C38       1.0  0.43651  0.60013  0.81447  1.0000
  C   C39       1.0  0.37319  0.64122  0.76008  1.0000
  C   C40       1.0  0.2544  0.64369  0.76349  1.0000
  C   C41       1.0  0.16864  0.20216  0.39925  1.0000
  C   C42       1.0  0.25435  0.45791  0.449  1.0000
  C   C43       1.0  0.37308  0.45714  0.44677  1.0000
  C   C44       1.0  0.25344  0.43445  0.13106  1.0000
  C   C45       1.0  0.3723099999999999  0.43898  0.13056  1.0000
  C   C46       1.0  0.43651  0.39987  0.18552999999999997  1.0000
  C   C47       1.0  0.37319  0.35879  0.23992  1.0000
  C   C48       1.0  0.25439  0.35631  0.2365  1.0000
  C   C49       1.0  0.83126  0.70218  0.10069  1.0000
  C   C50       1.0  0.74565  0.95791  0.051  1.0000
  C   C51       1.0  0.62692  0.95714  0.05322  1.0000
  C   C52       1.0  0.74654  0.93448  0.36891  1.0000
  C   C53       1.0  0.62768  0.93898  0.3694299999999999  1.0000
  C   C54       1.0  0.56348  0.89988  0.31446  1.0000
  C   C55       1.0  0.62682  0.85877  0.26008  1.0000
  C   C56       1.0  0.7456299999999999  0.85631  0.26345  1.0000
  C   C57       1.0  0.83126  0.29782  0.89931  1.0000
  C   C58       1.0  0.74565  0.04209  0.9489999999999998  1.0000
  C   C59       1.0  0.62692  0.04286  0.9467699999999999  1.0000
  C   C60       1.0  0.74655  0.06553  0.63111  1.0000
  C   C61       1.0  0.62769  0.06102  0.63057  1.0000
  C   C62       1.0  0.56349  0.10012  0.68554  1.0000
  C   C63       1.0  0.62683  0.14123  0.73992  1.0000
  C   C64       1.0  0.7456299999999999  0.14367  0.7365299999999999  1.0000
  C   C65       1.0  0.0  0.0849  0.36532  1.0000
  C   C66       1.0  0.0  0.16716  0.49859999999999993  1.0000
  C   C67       1.0  0.0  0.24884  0.3011  1.0000
  C   C68       1.0  0.0  0.31611  0.43242  1.0000
  C   C69       1.0  0.0  0.91521  0.63472  1.0000
  C   C70       1.0  0.0  0.8328299999999998  0.50145  1.0000
  C   C71       1.0  0.0  0.75117  0.69889  1.0000
  C   C72       1.0  0.0  0.68387  0.56757  1.0000
  C   C73       1.0  0.0  0.41514  0.86537  1.0000
  C   C74       1.0  0.0  0.33293  0.9989199999999999  1.0000
  C   C75       1.0  0.0  0.25108  0.80105  1.0000
  C   C76       1.0  0.0  0.18382  0.93256  1.0000
  C   C77       1.0  0.0  0.58481  0.13463  1.0000
  C   C78       1.0  0.0  0.66708  0.0011  1.0000
  C   C79       1.0  0.0  0.74888  0.19888  1.0000
  C   C80       1.0  0.0  0.81615  0.06745  1.0000
  C   C81       1.0  0.56343  0.5  0.5  1.0000
  C   C82       1.0  0.43655999999999995  0.0  0.0  1.0000
  C   C83       1.0  0.43655999999999995  0.5  0.5  1.0000
  C   C84       1.0  0.56344  0.0  0.0  1.0000
  N   N1        1.0  0.7309099999999998  0.2036  0.39883  1.0000
  N   N2        1.0  0.8063099999999999  0.39367  0.18308  1.0000
  N   N3        1.0  0.7309399999999999  0.7964  0.60117  1.0000
  N   N4        1.0  0.8063099999999999  0.60633  0.81691  1.0000
  N   N5        1.0  0.26903  0.29641  0.89874  1.0000
  N   N6        1.0  0.19369  0.10632  0.68311  1.0000
  N   N7        1.0  0.26898  0.70358  0.10126  1.0000
  N   N8        1.0  0.19366  0.89368  0.31689  1.0000
  N   N9        1.0  0.26906  0.7964  0.60117  1.0000
  N   N10       1.0  0.19369  0.60633  0.81691  1.0000
  N   N11       1.0  0.26909  0.2036  0.39883  1.0000
  N   N12       1.0  0.19369  0.39367  0.18308  1.0000
  N   N13       1.0  0.7310199999999999  0.70358  0.10126  1.0000
  N   N14       1.0  0.80634  0.89368  0.31689  1.0000
  N   N15       1.0  0.7309699999999999  0.29641  0.89874  1.0000
  N   N16       1.0  0.8063099999999999  0.10632  0.68311  1.0000
  N   N17       1.0  0.0  0.01348  0.34609  1.0000
  N   N18       1.0  0.0  0.15197  0.56124  1.0000
  N   N19       1.0  0.0  0.28677  0.24585  1.0000
  N   N20       1.0  0.0  0.38752  0.45200999999999997  1.0000
  N   N21       1.0  0.0  0.98641  0.65388  1.0000
  N   N22       1.0  0.0  0.84804  0.43870999999999993  1.0000
  N   N23       1.0  0.0  0.71324  0.75415  1.0000
  N   N24       1.0  0.0  0.61249  0.548  1.0000
  N   N25       1.0  0.0  0.48639  0.84608  1.0000
  N   N26       1.0  0.0  0.34824  0.061549999999999994  1.0000
  N   N27       1.0  0.0  0.2134  0.74584  1.0000
  N   N28       1.0  0.0  0.11251  0.95198  1.0000
  N   N29       1.0  0.0  0.51366  0.1539  1.0000
  N   N30       1.0  0.0  0.65175  0.93844  1.0000
  N   N31       1.0  0.0  0.78663  0.25421  1.0000
  N   N32       1.0  0.0  0.88749  0.04801  1.0000
  N   N33       1.0  0.8057899999999999  0.5  0.5  1.0000
  N   N34       1.0  0.19421999999999998  0.0  0.0  1.0000
  N   N35       1.0  0.19421  0.5  0.5  1.0000
  N   N36       1.0  0.80577  0.0  0.0  1.0000
