data_image0
_chemical_formula_structural       La4Mg6H36C84N12O48
_chemical_formula_sum              "La4 Mg6 H36 C84 N12 O48"
_cell_length_a       14.375
_cell_length_b       15.82248
_cell_length_c       15.82266
_cell_angle_alpha    120.00282999999999
_cell_angle_beta     90.0
_cell_angle_gamma    90.0

_symmetry_space_group_name_H-M    'P 1'
_symmetry_Int_Tables_number       1

loop_
  _symmetry_equiv_pos_as_xyz
  'x,y,z'

loop_
  _atom_site_type_symbol
  _atom_site_label
  _atom_site_symmetry_multiplicity
  _atom_site_fract_x
  _atom_site_fract_y
  _atom_site_fract_z
  _atom_site_occupancy
  La  La1       1.0  0.75016  0.6666900000000002  0.33331  1.0000
  La  La2       1.0  0.75016  0.3333100000000002  0.6666900000000002  1.0000
  La  La3       1.0  0.24984  0.3333100000000002  0.6666900000000002  1.0000
  La  La4       1.0  0.24984  0.6666900000000002  0.33331  1.0000
  Mg  Mg1       1.0  0.0  0.0  0.5  1.0000
  Mg  Mg2       1.0  0.0  0.5  0.0  1.0000
  Mg  Mg3       1.0  0.0  0.5  0.5  1.0000
  Mg  Mg4       1.0  0.5  0.0  0.5  1.0000
  Mg  Mg5       1.0  0.5  0.5  0.5  1.0000
  Mg  Mg6       1.0  0.5  0.5  0.0  1.0000
  H   H1        1.0  0.85154  0.9589200000000002  0.71326  1.0000
  H   H2        1.0  0.85151  0.7542800000000002  0.04117  1.0000
  H   H3        1.0  0.85142  0.28682000000000013  0.24563000000000004  1.0000
  H   H4        1.0  0.85154  0.041080000000000026  0.28673  1.0000
  H   H5        1.0  0.85151  0.24572999999999995  0.95883  1.0000
  H   H6        1.0  0.85142  0.71318  0.75437  1.0000
  H   H7        1.0  0.6486  0.04135999999999997  0.75437  1.0000
  H   H8        1.0  0.6487  0.2455300000000001  0.28691000000000005  1.0000
  H   H9        1.0  0.64857  0.71318  0.9587300000000002  1.0000
  H   H10       1.0  0.6486  0.95865  0.24563000000000004  1.0000
  H   H11       1.0  0.6487  0.7544700000000002  0.7130900000000001  1.0000
  H   H12       1.0  0.64857  0.28682000000000024  0.041270000000000015  1.0000
  H   H13       1.0  0.14846  0.041080000000000026  0.28673  1.0000
  H   H14       1.0  0.14849  0.24572999999999995  0.95883  1.0000
  H   H15       1.0  0.14858000000000002  0.71318  0.75437  1.0000
  H   H16       1.0  0.14846  0.9589200000000002  0.71326  1.0000
  H   H17       1.0  0.14849  0.7542800000000002  0.04117  1.0000
  H   H18       1.0  0.14858000000000002  0.28682000000000013  0.24563000000000004  1.0000
  H   H19       1.0  0.3514  0.95865  0.24563000000000004  1.0000
  H   H20       1.0  0.35130000000000006  0.7544700000000002  0.7130900000000001  1.0000
  H   H21       1.0  0.35143  0.28682000000000024  0.041270000000000015  1.0000
  H   H22       1.0  0.3514  0.04135999999999997  0.75437  1.0000
  H   H23       1.0  0.35130000000000006  0.2455300000000001  0.28691000000000005  1.0000
  H   H24       1.0  0.35143  0.71318  0.9587300000000002  1.0000
  H   H25       1.0  0.75019  0.9043200000000005  0.8086500000000002  1.0000
  H   H26       1.0  0.75012  0.9043  0.09579  1.0000
  H   H27       1.0  0.7500500000000001  0.19134  0.09560000000000002  1.0000
  H   H28       1.0  0.75019  0.09569000000000003  0.19134000000000007  1.0000
  H   H29       1.0  0.75012  0.0957000000000001  0.90421  1.0000
  H   H30       1.0  0.7500500000000001  0.8086600000000004  0.9043900000000001  1.0000
  H   H31       1.0  0.24981  0.09569000000000003  0.19134000000000007  1.0000
  H   H32       1.0  0.24988  0.0957000000000001  0.90421  1.0000
  H   H33       1.0  0.24995  0.8086600000000004  0.9043900000000001  1.0000
  H   H34       1.0  0.24981  0.9043200000000005  0.8086500000000002  1.0000
  H   H35       1.0  0.24988  0.9043  0.09579  1.0000
  H   H36       1.0  0.24995  0.19134  0.09560000000000002  1.0000
  C   C1        1.0  0.8065  0.8954100000000005  0.67779  1.0000
  C   C2        1.0  0.80347  0.8430400000000001  0.5758400000000001  1.0000
  C   C3        1.0  0.86027  0.8714700000000002  0.51366  1.0000
  C   C4        1.0  0.80647  0.7823700000000002  0.10469000000000002  1.0000
  C   C5        1.0  0.80346  0.73282  0.15707000000000004  1.0000
  C   C6        1.0  0.86028  0.64221  0.1286  1.0000
  C   C7        1.0  0.8064  0.32227  0.21755000000000005  1.0000
  C   C8        1.0  0.8034100000000001  0.42422000000000004  0.26712  1.0000
  C   C9        1.0  0.86025  0.4864200000000001  0.35775  1.0000
  C   C10       1.0  0.8065  0.10459000000000006  0.3222  1.0000
  C   C11       1.0  0.80347  0.15696  0.42416  1.0000
  C   C12       1.0  0.86027  0.12853000000000012  0.4863400000000001  1.0000
  C   C13       1.0  0.80647  0.2176300000000001  0.8953100000000003  1.0000
  C   C14       1.0  0.80346  0.26719000000000015  0.84292  1.0000
  C   C15       1.0  0.86028  0.3577900000000002  0.8713900000000002  1.0000
  C   C16       1.0  0.8064  0.67774  0.78245  1.0000
  C   C17       1.0  0.8034100000000001  0.5757800000000002  0.7328800000000002  1.0000
  C   C18       1.0  0.86025  0.5135800000000005  0.6422500000000002  1.0000
  C   C19       1.0  0.6936600000000003  0.10486000000000001  0.7825  1.0000
  C   C20       1.0  0.69663  0.15727000000000016  0.7329600000000002  1.0000
  C   C21       1.0  0.63976  0.1288300000000001  0.6423300000000002  1.0000
  C   C22       1.0  0.69374  0.2174200000000001  0.3223000000000001  1.0000
  C   C23       1.0  0.69667  0.26697  0.4242700000000001  1.0000
  C   C24       1.0  0.63978  0.3576200000000001  0.48651  1.0000
  C   C25       1.0  0.69364  0.6777600000000003  0.89523  1.0000
  C   C26       1.0  0.69662  0.5757900000000001  0.8428500000000002  1.0000
  C   C27       1.0  0.63976  0.51356  0.8712400000000001  1.0000
  C   C28       1.0  0.6936600000000003  0.89514  0.2175  1.0000
  C   C29       1.0  0.69663  0.8427300000000002  0.26704  1.0000
  C   C30       1.0  0.63976  0.8711700000000002  0.35767  1.0000
  C   C31       1.0  0.69374  0.7825800000000002  0.6776900000000002  1.0000
  C   C32       1.0  0.69667  0.7330300000000002  0.57573  1.0000
  C   C33       1.0  0.63978  0.6423900000000001  0.5134900000000001  1.0000
  C   C34       1.0  0.69364  0.32225000000000004  0.10476000000000003  1.0000
  C   C35       1.0  0.69662  0.42421000000000003  0.15715000000000007  1.0000
  C   C36       1.0  0.63976  0.48644  0.12876000000000004  1.0000
  C   C37       1.0  0.1935  0.10459000000000006  0.3222  1.0000
  C   C38       1.0  0.19653  0.15696  0.42416  1.0000
  C   C39       1.0  0.13973000000000002  0.12853000000000012  0.4863400000000001  1.0000
  C   C40       1.0  0.19353  0.2176300000000001  0.8953100000000003  1.0000
  C   C41       1.0  0.19654  0.26719000000000015  0.84292  1.0000
  C   C42       1.0  0.13972  0.3577900000000002  0.8713900000000002  1.0000
  C   C43       1.0  0.1936  0.67774  0.78245  1.0000
  C   C44       1.0  0.19659  0.5757800000000002  0.7328800000000002  1.0000
  C   C45       1.0  0.13975  0.5135800000000005  0.6422500000000002  1.0000
  C   C46       1.0  0.1935  0.8954100000000005  0.67779  1.0000
  C   C47       1.0  0.19653  0.8430400000000001  0.5758400000000001  1.0000
  C   C48       1.0  0.13973000000000002  0.8714700000000002  0.51366  1.0000
  C   C49       1.0  0.19353  0.7823700000000002  0.10469000000000002  1.0000
  C   C50       1.0  0.19654  0.73282  0.15707000000000004  1.0000
  C   C51       1.0  0.13972  0.64221  0.1286  1.0000
  C   C52       1.0  0.1936  0.32227  0.21755000000000005  1.0000
  C   C53       1.0  0.19659  0.42422000000000004  0.26712  1.0000
  C   C54       1.0  0.13975  0.4864200000000001  0.35775  1.0000
  C   C55       1.0  0.30634  0.89514  0.2175  1.0000
  C   C56       1.0  0.30337  0.8427300000000002  0.26704  1.0000
  C   C57       1.0  0.36024  0.8711700000000002  0.35767  1.0000
  C   C58       1.0  0.30626  0.7825800000000002  0.6776900000000002  1.0000
  C   C59       1.0  0.30333  0.7330300000000002  0.57573  1.0000
  C   C60       1.0  0.36022  0.6423900000000001  0.5134900000000001  1.0000
  C   C61       1.0  0.30636  0.32225000000000004  0.10476000000000003  1.0000
  C   C62       1.0  0.30338  0.42421000000000003  0.15715000000000007  1.0000
  C   C63       1.0  0.36024  0.48644  0.12876000000000004  1.0000
  C   C64       1.0  0.30634  0.10486000000000001  0.7825  1.0000
  C   C65       1.0  0.30337  0.15727000000000016  0.7329600000000002  1.0000
  C   C66       1.0  0.36024  0.1288300000000001  0.6423300000000002  1.0000
  C   C67       1.0  0.30626  0.2174200000000001  0.3223000000000001  1.0000
  C   C68       1.0  0.30333  0.26697  0.4242700000000001  1.0000
  C   C69       1.0  0.36022  0.3576200000000001  0.48651  1.0000
  C   C70       1.0  0.30636  0.6777600000000003  0.89523  1.0000
  C   C71       1.0  0.30338  0.5757900000000001  0.8428500000000002  1.0000
  C   C72       1.0  0.36024  0.51356  0.8712400000000001  1.0000
  C   C73       1.0  0.75008  0.86469  0.72915  1.0000
  C   C74       1.0  0.75003  0.8644200000000003  0.13540000000000002  1.0000
  C   C75       1.0  0.74999  0.27085  0.13548  1.0000
  C   C76       1.0  0.75008  0.13531000000000007  0.27085  1.0000
  C   C77       1.0  0.75003  0.13558000000000017  0.8646000000000001  1.0000
  C   C78       1.0  0.74999  0.7291500000000001  0.8645100000000002  1.0000
  C   C79       1.0  0.24992  0.13531000000000007  0.27085  1.0000
  C   C80       1.0  0.24997  0.13558000000000017  0.8646000000000001  1.0000
  C   C81       1.0  0.25001  0.7291500000000001  0.8645100000000002  1.0000
  C   C82       1.0  0.24992  0.86469  0.72915  1.0000
  C   C83       1.0  0.24997  0.8644200000000003  0.13540000000000002  1.0000
  C   C84       1.0  0.25001  0.27085  0.13548  1.0000
  N   N1        1.0  0.75008  0.7635800000000003  0.5268200000000001  1.0000
  N   N2        1.0  0.7500500000000001  0.76328  0.23652000000000006  1.0000
  N   N3        1.0  0.75002  0.47318000000000016  0.23661000000000004  1.0000
  N   N4        1.0  0.75008  0.23642000000000005  0.47317  1.0000
  N   N5        1.0  0.7500500000000001  0.23672  0.76348  1.0000
  N   N6        1.0  0.75002  0.5268200000000004  0.7633900000000002  1.0000
  N   N7        1.0  0.24992  0.23642000000000005  0.47317  1.0000
  N   N8        1.0  0.24995  0.23672  0.76348  1.0000
  N   N9        1.0  0.24998  0.5268200000000004  0.7633900000000002  1.0000
  N   N10       1.0  0.24992  0.7635800000000003  0.5268200000000001  1.0000
  N   N11       1.0  0.24995  0.76328  0.23652000000000006  1.0000
  N   N12       1.0  0.24998  0.47318000000000016  0.23661000000000004  1.0000
  O   O1        1.0  0.90369  0.9521400000000001  0.5595100000000001  1.0000
  O   O2        1.0  0.86115  0.81362  0.4221400000000001  1.0000
  O   O3        1.0  0.90372  0.6074200000000002  0.047950000000000007  1.0000
  O   O4        1.0  0.86113  0.60853  0.18643000000000007  1.0000
  O   O5        1.0  0.90369  0.44062  0.3925800000000001  1.0000
  O   O6        1.0  0.86113  0.5779500000000002  0.3914200000000001  1.0000
  O   O7        1.0  0.90369  0.04786000000000004  0.44049  1.0000
  O   O8        1.0  0.86115  0.1863800000000001  0.5778600000000003  1.0000
  O   O9        1.0  0.90372  0.3925900000000002  0.9520500000000002  1.0000
  O   O10       1.0  0.86113  0.39148  0.81357  1.0000
  O   O11       1.0  0.90369  0.5593800000000002  0.60742  1.0000
  O   O12       1.0  0.86113  0.4220500000000001  0.60857  1.0000
  O   O13       1.0  0.59638  0.048120000000000065  0.6074600000000001  1.0000
  O   O14       1.0  0.63891  0.18662000000000006  0.6086  1.0000
  O   O15       1.0  0.5964  0.39252  0.44072  1.0000
  O   O16       1.0  0.6389  0.39134  0.5780400000000001  1.0000
  O   O17       1.0  0.5964  0.5593900000000003  0.95195  1.0000
  O   O18       1.0  0.6389  0.42203000000000024  0.8134300000000002  1.0000
  O   O19       1.0  0.59638  0.9518800000000002  0.39253  1.0000
  O   O20       1.0  0.63891  0.81339  0.3913900000000001  1.0000
  O   O21       1.0  0.5964  0.6074900000000003  0.5592800000000001  1.0000
  O   O22       1.0  0.6389  0.6086600000000002  0.4219500000000001  1.0000
  O   O23       1.0  0.5964  0.4406100000000001  0.04805  1.0000
  O   O24       1.0  0.6389  0.57797  0.18657  1.0000
  O   O25       1.0  0.09631  0.04786000000000004  0.44049  1.0000
  O   O26       1.0  0.13885  0.1863800000000001  0.5778600000000003  1.0000
  O   O27       1.0  0.09628  0.3925900000000002  0.9520500000000002  1.0000
  O   O28       1.0  0.13887  0.39148  0.81357  1.0000
  O   O29       1.0  0.09631  0.5593800000000002  0.60742  1.0000
  O   O30       1.0  0.13887  0.4220500000000001  0.60857  1.0000
  O   O31       1.0  0.09631  0.9521400000000001  0.5595100000000001  1.0000
  O   O32       1.0  0.13885  0.81362  0.4221400000000001  1.0000
  O   O33       1.0  0.09628  0.6074200000000002  0.047950000000000007  1.0000
  O   O34       1.0  0.13887  0.60853  0.18643000000000007  1.0000
  O   O35       1.0  0.09631  0.44062  0.3925800000000001  1.0000
  O   O36       1.0  0.13887  0.5779500000000002  0.3914200000000001  1.0000
  O   O37       1.0  0.40362  0.9518800000000002  0.39253  1.0000
  O   O38       1.0  0.36109  0.81339  0.3913900000000001  1.0000
  O   O39       1.0  0.4036  0.6074900000000003  0.5592800000000001  1.0000
  O   O40       1.0  0.3611  0.6086600000000002  0.4219500000000001  1.0000
  O   O41       1.0  0.4036  0.4406100000000001  0.04805  1.0000
  O   O42       1.0  0.3611  0.57797  0.18657  1.0000
  O   O43       1.0  0.40362  0.048120000000000065  0.6074600000000001  1.0000
  O   O44       1.0  0.36109  0.18662000000000006  0.6086  1.0000
  O   O45       1.0  0.4036  0.39252  0.44072  1.0000
  O   O46       1.0  0.3611  0.39134  0.5780400000000001  1.0000
  O   O47       1.0  0.4036  0.5593900000000003  0.95195  1.0000
  O   O48       1.0  0.3611  0.42203000000000024  0.8134300000000002  1.0000
