data_image0
_chemical_formula_structural       Cu4Mo16H48C56N16O32
_chemical_formula_sum              "Cu4 Mo16 H48 C56 N16 O32"
_cell_length_a       9.12582
_cell_length_b       14.41627
_cell_length_c       20.22513
_cell_angle_alpha    90.48042
_cell_angle_beta     94.28589
_cell_angle_gamma    90.07087

_space_group_name_H-M_alt    "P 1"
_space_group_IT_number       1

loop_
  _space_group_symop_operation_xyz
  'x, y, z'

loop_
  _atom_site_type_symbol
  _atom_site_label
  _atom_site_symmetry_multiplicity
  _atom_site_fract_x
  _atom_site_fract_y
  _atom_site_fract_z
  _atom_site_occupancy
  Cu  Cu1       1.0  0.77684  0.08509  0.73023  1.0000
  Cu  Cu2       1.0  0.22850999999999996  0.58628  0.7706799999999999  1.0000
  Cu  Cu3       1.0  0.22527999999999998  0.9164600000000003  0.27164999999999995  1.0000
  Cu  Cu4       1.0  0.7798199999999998  0.41581  0.22793  1.0000
  Mo  Mo1       1.0  0.26652  0.06806  0.97987  1.0000
  Mo  Mo2       1.0  0.93393  0.07214  0.02444  1.0000
  Mo  Mo3       1.0  0.014889999999999981  0.0781  0.89165  1.0000
  Mo  Mo4       1.0  0.6606899999999999  0.061430000000000005  0.9512299999999999  1.0000
  Mo  Mo5       1.0  0.7403499999999998  0.58233  0.5175  1.0000
  Mo  Mo6       1.0  0.06211999999999999  0.5803500000000003  0.47596999999999995  1.0000
  Mo  Mo7       1.0  0.9975199999999999  0.56307  0.61061  1.0000
  Mo  Mo8       1.0  0.34126  0.56551  0.55182  1.0000
  Mo  Mo9       1.0  0.73406  0.9314600000000002  0.023319999999999997  1.0000
  Mo  Mo10      1.0  0.06557999999999999  0.9283500000000002  0.9786399999999998  1.0000
  Mo  Mo11      1.0  0.986  0.9223400000000003  0.11076999999999998  1.0000
  Mo  Mo12      1.0  0.34090999999999994  0.9375200000000002  0.05111999999999999  1.0000
  Mo  Mo13      1.0  0.26739999999999997  0.4347300000000001  0.47897  1.0000
  Mo  Mo14      1.0  0.92284  0.4250600000000001  0.52543  1.0000
  Mo  Mo15      1.0  0.01496  0.42737000000000014  0.38881  1.0000
  Mo  Mo16      1.0  0.65704  0.43713000000000013  0.45158  1.0000
  H   H1        1.0  0.044  0.737  0.23923  1.0000
  H   H2        1.0  0.08418000000000002  0.9340900000000002  0.7555299999999999  1.0000
  H   H3        1.0  0.32214999999999994  0.9893300000000003  0.81206  1.0000
  H   H4        1.0  0.51404  0.8746800000000001  0.84709  1.0000
  H   H5        1.0  0.5522899999999998  0.039960000000000016  0.32832  1.0000
  H   H6        1.0  0.79731  0.57448  0.85631  1.0000
  H   H7        1.0  0.71245  0.8128600000000002  0.87769  1.0000
  H   H8        1.0  0.8478599999999997  0.7337700000000001  0.8562299999999999  1.0000
  H   H9        1.0  0.67609  0.68724  0.71108  1.0000
  H   H10       1.0  0.69156  0.7744600000000003  0.60652  1.0000
  H   H11       1.0  0.76708  0.9420800000000003  0.61179  1.0000
  H   H12       1.0  0.81565  0.9362800000000002  0.81738  1.0000
  H   H13       1.0  0.95802  0.23761000000000004  0.2595299999999999  1.0000
  H   H14       1.0  0.9153799999999999  0.4364900000000001  0.7469  1.0000
  H   H15       1.0  0.67758  0.48898000000000014  0.6888799999999999  1.0000
  H   H16       1.0  0.48813  0.3725700000000001  0.65326  1.0000
  H   H17       1.0  0.44987  0.5391100000000001  0.17172  1.0000
  H   H18       1.0  0.20537  0.07250000000000002  0.64262  1.0000
  H   H19       1.0  0.29106  0.31193  0.62488  1.0000
  H   H20       1.0  0.15505  0.23227  0.64423  1.0000
  H   H21       1.0  0.32242  0.1808  0.78811  1.0000
  H   H22       1.0  0.30582  0.2640900000000001  0.89478  1.0000
  H   H23       1.0  0.23756999999999995  0.4330400000000001  0.8943299999999997  1.0000
  H   H24       1.0  0.19425999999999993  0.43509  0.6891  1.0000
  H   H25       1.0  0.95636  0.26501  0.76191  1.0000
  H   H26       1.0  0.91593  0.0656  0.24556  1.0000
  H   H27       1.0  0.67835  0.01123  0.18813999999999997  1.0000
  H   H28       1.0  0.48714  0.12642  0.15384  1.0000
  H   H29       1.0  0.45012  0.9602300000000003  0.67208  1.0000
  H   H30       1.0  0.20433  0.4257700000000001  0.14386  1.0000
  H   H31       1.0  0.29042  0.18763000000000002  0.12273999999999997  1.0000
  H   H32       1.0  0.15444000000000002  0.26671000000000006  0.14373  1.0000
  H   H33       1.0  0.3231  0.3141700000000001  0.28905999999999993  1.0000
  H   H34       1.0  0.30788  0.22769000000000003  0.39366  1.0000
  H   H35       1.0  0.23323999999999998  0.05961  0.38883  1.0000
  H   H36       1.0  0.18808999999999998  0.06376000000000001  0.18322999999999998  1.0000
  H   H37       1.0  0.043799999999999985  0.76205  0.74106  1.0000
  H   H38       1.0  0.08622999999999999  0.56519  0.25127999999999995  1.0000
  H   H39       1.0  0.32257  0.5116300000000003  0.3097  1.0000
  H   H40       1.0  0.51342  0.62731  0.34521  1.0000
  H   H41       1.0  0.55144  0.46148  0.8291  1.0000
  H   H42       1.0  0.79638  0.9272900000000002  0.35855  1.0000
  H   H43       1.0  0.70873  0.68954  0.37844  1.0000
  H   H44       1.0  0.8454  0.7672900000000002  0.35832  1.0000
  H   H45       1.0  0.67909  0.81355  0.21243999999999996  1.0000
  H   H46       1.0  0.69882  0.7262800000000001  0.10744999999999999  1.0000
  H   H47       1.0  0.7724899999999999  0.55833  0.11153  1.0000
  H   H48       1.0  0.81109  0.56448  0.31719  1.0000
  C   C1        1.0  0.14714999999999998  0.70958  0.26152  1.0000
  C   C2        1.0  0.17168  0.61449  0.26793  1.0000
  C   C3        1.0  0.30419  0.9158700000000002  0.8016  1.0000
  C   C4        1.0  0.41164  0.6502700000000002  0.31939  1.0000
  C   C5        1.0  0.38252  0.74437  0.30833  1.0000
  C   C6        1.0  0.48746999999999996  0.68091  0.82268  1.0000
  C   C7        1.0  0.56081  0.9650700000000002  0.32989  1.0000
  C   C8        1.0  0.68277  0.5910900000000002  0.8443499999999999  1.0000
  C   C9        1.0  0.73872  0.7611300000000002  0.84025  1.0000
  C   C10       1.0  0.74231  0.8063200000000003  0.77306  1.0000
  C   C11       1.0  0.70788  0.76006  0.7129  1.0000
  C   C12       1.0  0.71659  0.8091100000000001  0.65398  1.0000
  C   C13       1.0  0.76028  0.90163  0.65663  1.0000
  C   C14       1.0  0.78563  0.89908  0.77143  1.0000
  C   C15       1.0  0.85445  0.20977  0.2375  1.0000
  C   C16       1.0  0.8299499999999997  0.11461  0.23002999999999998  1.0000
  C   C17       1.0  0.69653  0.4159000000000001  0.69961  1.0000
  C   C18       1.0  0.58899  0.14967  0.17994  1.0000
  C   C19       1.0  0.61834  0.24386000000000005  0.19176  1.0000
  C   C20       1.0  0.51501  0.17969  0.6783499999999999  1.0000
  C   C21       1.0  0.44106  0.46416000000000013  0.17035  1.0000
  C   C22       1.0  0.31962  0.08936999999999999  0.6554599999999999  1.0000
  C   C23       1.0  0.26433  0.25928  0.66097  1.0000
  C   C24       1.0  0.26101  0.30236  0.72936  1.0000
  C   C25       1.0  0.29287  0.25393  0.78818  1.0000
  C   C26       1.0  0.2841699999999999  0.30105  0.84844  1.0000
  C   C27       1.0  0.24436999999999995  0.39430000000000004  0.8482399999999999  1.0000
  C   C28       1.0  0.22136999999999998  0.39548  0.73371  1.0000
  C   C29       1.0  0.8532799999999998  0.29203  0.73926  1.0000
  C   C30       1.0  0.82929  0.3870000000000001  0.7313299999999999  1.0000
  C   C31       1.0  0.69655  0.08457  0.19907999999999998  1.0000
  C   C32       1.0  0.58933  0.3501900000000001  0.67997  1.0000
  C   C33       1.0  0.61831  0.25637  0.6922999999999999  1.0000
  C   C34       1.0  0.51461  0.3199200000000001  0.17814  1.0000
  C   C35       1.0  0.44143  0.03512000000000001  0.67062  1.0000
  C   C36       1.0  0.3189  0.4093900000000001  0.15607  1.0000
  C   C37       1.0  0.26344999999999996  0.23940000000000006  0.15999999999999998  1.0000
  C   C38       1.0  0.25903  0.19442000000000006  0.2272  1.0000
  C   C39       1.0  0.29223  0.24121000000000004  0.28724999999999995  1.0000
  C   C40       1.0  0.2831699999999999  0.19261000000000003  0.34632999999999997  1.0000
  C   C41       1.0  0.24008  0.09998000000000001  0.34396  1.0000
  C   C42       1.0  0.21643  0.10158  0.22906  1.0000
  C   C43       1.0  0.14723  0.7901900000000002  0.76312  1.0000
  C   C44       1.0  0.17069999999999996  0.8853800000000002  0.77091  1.0000
  C   C45       1.0  0.30431  0.5848600000000003  0.29938  1.0000
  C   C46       1.0  0.41239  0.85123  0.82087  1.0000
  C   C47       1.0  0.38397  0.7569800000000002  0.80892  1.0000
  C   C48       1.0  0.48653  0.82064  0.3221  1.0000
  C   C49       1.0  0.5604  0.5364400000000001  0.8303699999999998  1.0000
  C   C50       1.0  0.6822399999999998  0.91057  0.34527  1.0000
  C   C51       1.0  0.73635  0.7403000000000002  0.34126  1.0000
  C   C52       1.0  0.74154  0.69457  0.27382  1.0000
  C   C53       1.0  0.71001  0.7406700000000003  0.21394  1.0000
  C   C54       1.0  0.7212899999999999  0.6915600000000002  0.15465  1.0000
  C   C55       1.0  0.76404  0.59896  0.15664  1.0000
  C   C56       1.0  0.78392  0.6017200000000003  0.27152999999999994  1.0000
  N   N1        1.0  0.24793999999999997  0.77367  0.28247999999999995  1.0000
  N   N2        1.0  0.4414199999999999  0.9087600000000001  0.31484  1.0000
  N   N3        1.0  0.6365799999999999  0.68245  0.8396099999999999  1.0000
  N   N4        1.0  0.7961899999999998  0.9469100000000003  0.7147199999999999  1.0000
  N   N5        1.0  0.75297  0.2735  0.21792  1.0000
  N   N6        1.0  0.56058  0.4081800000000001  0.18451  1.0000
  N   N7        1.0  0.36635  0.18085000000000007  0.66016  1.0000
  N   N8        1.0  0.21185999999999994  0.44164  0.79151  1.0000
  N   N9        1.0  0.75215  0.22766000000000003  0.71938  1.0000
  N   N10       1.0  0.56074  0.09168000000000003  0.68538  1.0000
  N   N11       1.0  0.36549  0.3181100000000001  0.16085  1.0000
  N   N12       1.0  0.20521  0.054290000000000005  0.28597  1.0000
  N   N13       1.0  0.24979  0.72696  0.78243  1.0000
  N   N14       1.0  0.44098  0.5926200000000003  0.81637  1.0000
  N   N15       1.0  0.6351399999999999  0.8192000000000003  0.34030999999999995  1.0000
  N   N16       1.0  0.79666  0.55378  0.21448  1.0000
  O   O1        1.0  0.20877  0.10153000000000002  0.88009  1.0000
  O   O2        1.0  0.09725999999999997  0.14845000000000005  0.9868699999999999  1.0000
  O   O3        1.0  0.9252199999999999  0.0969  0.8109799999999999  1.0000
  O   O4        1.0  0.8347799999999997  0.13495  0.93632  1.0000
  O   O5        1.0  0.99477  0.9454200000000003  0.8867099999999999  1.0000
  O   O6        1.0  0.2802  0.9299300000000003  0.9534799999999999  1.0000
  O   O7        1.0  0.33879  0.05977000000000001  0.07975  1.0000
  O   O8        1.0  0.46779  0.09763  0.95359  1.0000
  O   O9        1.0  0.8144  0.6146300000000001  0.61394  1.0000
  O   O10       1.0  0.88851  0.6577300000000001  0.48334  1.0000
  O   O11       1.0  0.08983  0.5742300000000002  0.69342  1.0000
  O   O12       1.0  0.1552  0.6344  0.56938  1.0000
  O   O13       1.0  0.99753  0.43036  0.6172299999999998  1.0000
  O   O14       1.0  0.72549  0.39428  0.5423399999999999  1.0000
  O   O15       1.0  0.65253  0.55363  0.41968  1.0000
  O   O16       1.0  0.5338299999999999  0.60429  0.5465999999999999  1.0000
  O   O17       1.0  0.79204  0.89837  0.1232  1.0000
  O   O18       1.0  0.90375  0.85139  0.0165  1.0000
  O   O19       1.0  0.08125  0.9044600000000003  0.19025  1.0000
  O   O20       1.0  0.16737  0.8650300000000002  0.06625  1.0000
  O   O21       1.0  0.9994299999999999  0.055210000000000016  0.11673  1.0000
  O   O22       1.0  0.71917  0.06968000000000003  0.04925  1.0000
  O   O23       1.0  0.66581  0.9393200000000003  0.9231799999999998  1.0000
  O   O24       1.0  0.53287  0.8994400000000002  0.04767  1.0000
  O   O25       1.0  0.20866999999999997  0.39872000000000013  0.37973  1.0000
  O   O26       1.0  0.08978999999999997  0.3608400000000001  0.4863499999999999  1.0000
  O   O27       1.0  0.93803  0.4037300000000001  0.30655  1.0000
  O   O28       1.0  0.8338499999999999  0.37441000000000013  0.42712  1.0000
  O   O29       1.0  0.006179999999999997  0.55652  0.38173  1.0000
  O   O30       1.0  0.27799  0.5706500000000002  0.45328999999999997  1.0000
  O   O31       1.0  0.33923  0.4448000000000001  0.57997  1.0000
  O   O32       1.0  0.4644  0.3966500000000001  0.4567899999999999  1.0000
