data_image0
_chemical_formula_structural       Zn8H72C88N8O40
_chemical_formula_sum              "Zn8 H72 C88 N8 O40"
_cell_length_a       9.02345
_cell_length_b       9.00551
_cell_length_c       53.75256
_cell_angle_alpha    90.00098000000001
_cell_angle_beta     90.00541
_cell_angle_gamma    89.2123

_symmetry_space_group_name_H-M    'P 1'
_symmetry_Int_Tables_number       1

loop_
  _symmetry_equiv_pos_as_xyz
  'x,y,z'

loop_
  _atom_site_type_symbol
  _atom_site_label
  _atom_site_symmetry_multiplicity
  _atom_site_fract_x
  _atom_site_fract_y
  _atom_site_fract_z
  _atom_site_occupancy
  Zn  Zn1       1.0  0.26443  0.82013  0.25203  1.0000
  Zn  Zn2       1.0  0.23251  0.78823  0.19934  1.0000
  Zn  Zn3       1.0  0.56834  0.66186  0.45307  1.0000
  Zn  Zn4       1.0  0.39725  0.36737  0.00446  1.0000
  Zn  Zn5       1.0  0.73585  0.17982  0.7519799999999998  1.0000
  Zn  Zn6       1.0  0.76757  0.21174  0.69933  1.0000
  Zn  Zn7       1.0  0.4321  0.33742  0.9529199999999998  1.0000
  Zn  Zn8       1.0  0.60289  0.63169  0.5045  1.0000
  H   H1        1.0  0.11723  0.06246  0.29362  1.0000
  H   H2        1.0  0.27497  0.10301  0.27632  1.0000
  H   H3        1.0  0.37023  0.26942  0.30861999999999995  1.0000
  H   H4        1.0  0.17991  0.31518  0.30531  1.0000
  H   H5        1.0  0.12466000000000002  0.14909  0.34176  1.0000
  H   H6        1.0  0.32748  0.0434  0.36637  1.0000
  H   H7        1.0  0.45439999999999997  0.57188  0.32985999999999993  1.0000
  H   H8        1.0  0.37533  0.60891  0.28572  1.0000
  H   H9        1.0  0.38642  0.52826  0.41347  1.0000
  H   H10       1.0  0.31557  0.57881  0.36894  1.0000
  H   H11       1.0  0.60012  0.9600900000000001  0.37118  1.0000
  H   H12       1.0  0.65902  0.89246  0.4156  1.0000
  H   H13       1.0  0.2145  0.31268  0.36905  1.0000
  H   H14       1.0  0.48145  0.24315  0.35284999999999994  1.0000
  H   H15       1.0  0.0017199999999999995  0.92699  0.15032999999999994  1.0000
  H   H16       1.0  0.9655  0.79798  0.17393999999999998  1.0000
  H   H17       1.0  0.80506  0.65172  0.14611  1.0000
  H   H18       1.0  0.7475  0.84007  0.14385  1.0000
  H   H19       1.0  0.9010600000000001  0.86705  0.10533999999999999  1.0000
  H   H20       1.0  0.02383  0.65434  0.08638999999999997  1.0000
  H   H21       1.0  0.49251  0.55591  0.12577  1.0000
  H   H22       1.0  0.45144  0.66373  0.1683  1.0000
  H   H23       1.0  0.5055  0.60063  0.0381  1.0000
  H   H24       1.0  0.45699  0.69789  0.08143  1.0000
  H   H25       1.0  0.13269  0.35453  0.09002  1.0000
  H   H26       1.0  0.20084  0.2667  0.04692  1.0000
  H   H27       1.0  0.74075  0.73761  0.08233  1.0000
  H   H28       1.0  0.8305200000000001  0.50255  0.10405  1.0000
  H   H29       1.0  0.74216  0.78978  0.1996  1.0000
  H   H30       1.0  0.75974  0.82009  0.25662  1.0000
  H   H31       1.0  0.24855000000000002  0.29623  0.19517  1.0000
  H   H32       1.0  0.24681  0.31055  0.25244  1.0000
  H   H33       1.0  0.07825  0.656  0.45049  1.0000
  H   H34       1.0  0.09243  0.63428  0.50763  1.0000
  H   H35       1.0  0.59886  0.14238  0.50706  1.0000
  H   H36       1.0  0.57269  0.14868  0.44998999999999995  1.0000
  H   H37       1.0  0.88343  0.93792  0.79342  1.0000
  H   H38       1.0  0.72573  0.89678  0.7761499999999998  1.0000
  H   H39       1.0  0.63146  0.72942  0.80813  1.0000
  H   H40       1.0  0.82248  0.6854  0.80533  1.0000
  H   H41       1.0  0.87312  0.85308  0.8418  1.0000
  H   H42       1.0  0.66735  0.9551700000000001  0.86604  1.0000
  H   H43       1.0  0.5465  0.42833  0.8296099999999997  1.0000
  H   H44       1.0  0.62517  0.39089  0.7854399999999998  1.0000
  H   H45       1.0  0.61326  0.47145  0.91323  1.0000
  H   H46       1.0  0.6846799999999998  0.4211  0.8687299999999999  1.0000
  H   H47       1.0  0.40016  0.03983  0.87079  1.0000
  H   H48       1.0  0.3411  0.1067  0.91522  1.0000
  H   H49       1.0  0.78524  0.68854  0.86894  1.0000
  H   H50       1.0  0.51461  0.75626  0.85187  1.0000
  H   H51       1.0  0.9982000000000001  0.07273  0.65046  1.0000
  H   H52       1.0  0.03484  0.20239  0.6739499999999999  1.0000
  H   H53       1.0  0.19484  0.34804  0.64605  1.0000
  H   H54       1.0  0.25257  0.15963000000000002  0.64388  1.0000
  H   H55       1.0  0.09902  0.13271  0.60531  1.0000
  H   H56       1.0  0.9760099999999999  0.34547000000000005  0.58641  1.0000
  H   H57       1.0  0.50765  0.44438000000000005  0.6258599999999999  1.0000
  H   H58       1.0  0.54872  0.33621  0.66836  1.0000
  H   H59       1.0  0.4939799999999999  0.39959  0.53823  1.0000
  H   H60       1.0  0.54274  0.30228  0.58155  1.0000
  H   H61       1.0  0.86725  0.64553  0.59009  1.0000
  H   H62       1.0  0.79865  0.73348  0.54701  1.0000
  H   H63       1.0  0.25879  0.2617  0.58229  1.0000
  H   H64       1.0  0.16931  0.49690999999999996  0.60401  1.0000
  H   H65       1.0  0.25848  0.21021  0.69956  1.0000
  H   H66       1.0  0.24060000000000004  0.17993  0.75658  1.0000
  H   H67       1.0  0.75146  0.70458  0.6950899999999999  1.0000
  H   H68       1.0  0.75325  0.68923  0.75239  1.0000
  H   H69       1.0  0.9222  0.34417  0.95044  1.0000
  H   H70       1.0  0.9076999999999998  0.36572  0.00756  1.0000
  H   H71       1.0  0.40107  0.85755  0.00665  1.0000
  H   H72       1.0  0.42742  0.84915  0.94961  1.0000
  C   C1        1.0  0.30885  0.9486400000000001  0.30593  1.0000
  C   C2        1.0  0.23622  0.08674  0.2955  1.0000
  C   C3        1.0  0.25777  0.22705  0.31112  1.0000
  C   C4        1.0  0.23666  0.19167  0.33848999999999996  1.0000
  C   C5        1.0  0.35291  0.07631  0.34708  1.0000
  C   C6        1.0  0.35829  0.9395300000000001  0.33079  1.0000
  C   C7        1.0  0.40988  0.80139  0.34001  1.0000
  C   C8        1.0  0.41534  0.68033  0.32362  1.0000
  C   C9        1.0  0.37099  0.6995  0.29912  1.0000
  C   C10       1.0  0.43076  0.62196  0.40321  1.0000
  C   C11       1.0  0.39212  0.65101  0.37863  1.0000
  C   C12       1.0  0.45177000000000006  0.7746  0.36641  1.0000
  C   C13       1.0  0.5503  0.86359  0.37983  1.0000
  C   C14       1.0  0.58386  0.82655  0.40439  1.0000
  C   C15       1.0  0.11678  0.72362  0.14576  1.0000
  C   C16       1.0  0.9798499999999999  0.80844  0.15371  1.0000
  C   C17       1.0  0.83925  0.76228  0.13993  1.0000
  C   C18       1.0  0.86837  0.75694  0.11212  1.0000
  C   C19       1.0  0.99078  0.64179  0.10602999999999997  1.0000
  C   C20       1.0  0.12653  0.65402  0.12233  1.0000
  C   C21       1.0  0.2641  0.59394  0.11459999999999998  1.0000
  C   C22       1.0  0.38409  0.5995  0.1311  1.0000
  C   C23       1.0  0.36318  0.66094  0.15452  1.0000
  C   C24       1.0  0.42659  0.54832  0.050539999999999995  1.0000
  C   C25       1.0  0.39806  0.60221  0.07433  1.0000
  C   C26       1.0  0.29086  0.53354  0.08918999999999999  1.0000
  C   C27       1.0  0.21740999999999996  0.41057  0.07929  1.0000
  C   C28       1.0  0.25413  0.36193  0.05541  1.0000
  C   C29       1.0  0.53874  0.79915  0.22223  1.0000
  C   C30       1.0  0.70249  0.79832  0.21867  1.0000
  C   C31       1.0  0.79898  0.80958  0.23756  1.0000
  C   C32       1.0  0.96263  0.81074  0.23412  1.0000
  C   C33       1.0  0.24835  0.08986  0.21715  1.0000
  C   C34       1.0  0.24941  0.25417  0.21413  1.0000
  C   C35       1.0  0.24816999999999997  0.34977  0.23331  1.0000
  C   C36       1.0  0.24810999999999997  0.51376  0.22981999999999997  1.0000
  C   C37       1.0  0.87396  0.64501  0.47279  1.0000
  C   C38       1.0  0.03771  0.64816  0.4695  1.0000
  C   C39       1.0  0.13317  0.6423  0.48864  1.0000
  C   C40       1.0  0.29692  0.64609  0.48534999999999995  1.0000
  C   C41       1.0  0.59221  0.93474  0.48542  1.0000
  C   C42       1.0  0.59111  0.09912  0.48821999999999993  1.0000
  C   C43       1.0  0.58051  0.1923  0.4688  1.0000
  C   C44       1.0  0.57857  0.35673000000000005  0.47157  1.0000
  C   C45       1.0  0.69147  0.05125  0.8057099999999998  1.0000
  C   C46       1.0  0.76454  0.91324  0.79533  1.0000
  C   C47       1.0  0.74328  0.77281  0.81094  1.0000
  C   C48       1.0  0.76202  0.80867  0.83834  1.0000
  C   C49       1.0  0.64419  0.92299  0.84663  1.0000
  C   C50       1.0  0.64097  0.06029999999999999  0.83049  1.0000
  C   C51       1.0  0.59016  0.19864  0.83973  1.0000
  C   C52       1.0  0.58526  0.3198  0.82336  1.0000
  C   C53       1.0  0.62957  0.30051  0.79888  1.0000
  C   C54       1.0  0.56913  0.37767  0.9029599999999999  1.0000
  C   C55       1.0  0.60799  0.34884  0.87838  1.0000
  C   C56       1.0  0.54835  0.22538  0.8661199999999999  1.0000
  C   C57       1.0  0.44991  0.13619  0.8795  1.0000
  C   C58       1.0  0.41625  0.17292  0.90407  1.0000
  C   C59       1.0  0.8833  0.27614  0.6457799999999999  1.0000
  C   C60       1.0  0.02026  0.19137  0.65374  1.0000
  C   C61       1.0  0.16079  0.23736000000000002  0.63991  1.0000
  C   C62       1.0  0.13144  0.24284000000000003  0.6120999999999998  1.0000
  C   C63       1.0  0.009049999999999999  0.35815  0.60605  1.0000
  C   C64       1.0  0.87348  0.34585  0.62237  1.0000
  C   C65       1.0  0.73595  0.40608  0.61466  1.0000
  C   C66       1.0  0.61603  0.40063  0.63117  1.0000
  C   C67       1.0  0.63694  0.33903  0.65457  1.0000
  C   C68       1.0  0.57302  0.45181  0.55067  1.0000
  C   C69       1.0  0.60169  0.39793  0.57444  1.0000
  C   C70       1.0  0.70909  0.46653  0.58927  1.0000
  C   C71       1.0  0.78244  0.5895400000000001  0.57937  1.0000
  C   C72       1.0  0.74555  0.63817  0.55549  1.0000
  C   C73       1.0  0.46137  0.20082  0.7222199999999999  1.0000
  C   C74       1.0  0.29769  0.20166  0.71864  1.0000
  C   C75       1.0  0.20117  0.19045  0.73753  1.0000
  C   C76       1.0  0.03752  0.18931  0.73411  1.0000
  C   C77       1.0  0.75167  0.9103100000000001  0.71716  1.0000
  C   C78       1.0  0.7506  0.7461  0.71409  1.0000
  C   C79       1.0  0.75186  0.65032  0.73324  1.0000
  C   C80       1.0  0.75191  0.48634  0.72973  1.0000
  C   C81       1.0  0.12633  0.3551  0.97283  1.0000
  C   C82       1.0  0.96263  0.35203  0.9694599999999999  1.0000
  C   C83       1.0  0.86703  0.35743  0.98857  1.0000
  C   C84       1.0  0.70333  0.35314  0.98528  1.0000
  C   C85       1.0  0.40785  0.06422  0.9847  1.0000
  C   C86       1.0  0.40888  0.8998  0.98775  1.0000
  C   C87       1.0  0.41949  0.8058  0.96843  1.0000
  C   C88       1.0  0.42161  0.64128  0.97116  1.0000
  N   N1        1.0  0.31681  0.82978  0.29048  1.0000
  N   N2        1.0  0.52548  0.70806  0.41591999999999996  1.0000
  N   N3        1.0  0.2335  0.7241  0.16158  1.0000
  N   N4        1.0  0.35662  0.42917  0.04125  1.0000
  N   N5        1.0  0.68389  0.1702  0.79028  1.0000
  N   N6        1.0  0.4744399999999999  0.29142  0.91564  1.0000
  N   N7        1.0  0.76661  0.2757  0.6616  1.0000
  N   N8        1.0  0.64308  0.57081  0.54135  1.0000
  O   O1        1.0  0.2585  0.3268  0.35271  1.0000
  O   O2        1.0  0.49759  0.14273  0.34633  1.0000
  O   O3        1.0  0.73277  0.71152  0.09984  1.0000
  O   O4        1.0  0.9331900000000001  0.4949  0.10987  1.0000
  O   O5        1.0  0.48822  0.79272  0.24428999999999998  1.0000
  O   O6        1.0  0.46141000000000004  0.8065000000000001  0.20228999999999997  1.0000
  O   O7        1.0  0.03775  0.83766  0.25373  1.0000
  O   O8        1.0  0.01519  0.78471  0.21248  1.0000
  O   O9        1.0  0.27444  0.03639  0.23871999999999996  1.0000
  O   O10       1.0  0.22122  0.01527  0.19748999999999997  1.0000
  O   O11       1.0  0.2442  0.59098  0.24984  1.0000
  O   O12       1.0  0.25236  0.56409  0.20769999999999994  1.0000
  O   O13       1.0  0.79808  0.65115  0.45270999999999995  1.0000
  O   O14       1.0  0.82286  0.6369  0.4948799999999999  1.0000
  O   O15       1.0  0.34814  0.65976  0.46338999999999997  1.0000
  O   O16       1.0  0.37321  0.63555  0.50533  1.0000
  O   O17       1.0  0.58497  0.88156  0.4634799999999999  1.0000
  O   O18       1.0  0.6002  0.86009  0.50563  1.0000
  O   O19       1.0  0.56318  0.43097  0.4514  1.0000
  O   O20       1.0  0.59254  0.40986  0.49342  1.0000
  O   O21       1.0  0.74129  0.67359  0.85262  1.0000
  O   O22       1.0  0.49943999999999994  0.85653  0.8452299999999999  1.0000
  O   O23       1.0  0.26691  0.28834  0.59978  1.0000
  O   O24       1.0  0.06682  0.50496  0.60991  1.0000
  O   O25       1.0  0.51195  0.20721  0.74427  1.0000
  O   O26       1.0  0.53859  0.19353  0.7022699999999998  1.0000
  O   O27       1.0  0.9624700000000002  0.16242  0.75373  1.0000
  O   O28       1.0  0.98481  0.2153  0.7124799999999999  1.0000
  O   O29       1.0  0.72565  0.96368  0.7387399999999998  1.0000
  O   O30       1.0  0.77876  0.9849099999999998  0.6974999999999999  1.0000
  O   O31       1.0  0.75589  0.40903  0.74974  1.0000
  O   O32       1.0  0.74763  0.43607  0.70762  1.0000
  O   O33       1.0  0.20264  0.34876  0.9528  1.0000
  O   O34       1.0  0.17699  0.36306  0.9949499999999998  1.0000
  O   O35       1.0  0.65206  0.3397200000000001  0.96331  1.0000
  O   O36       1.0  0.62718  0.36338  0.00529  1.0000
  O   O37       1.0  0.41504  0.1168  0.9627099999999997  1.0000
  O   O38       1.0  0.39996  0.13935  0.00489  1.0000
  O   O39       1.0  0.43729999999999997  0.56742  0.951  1.0000
  O   O40       1.0  0.40755  0.58688  0.9929  1.0000
