data_image0
_chemical_formula_structural       Ag6H120C48N24
_chemical_formula_sum              "Ag6 H120 C48 N24"
_cell_length_a       14.91758
_cell_length_b       14.926030000000003
_cell_length_c       14.9267
_cell_angle_alpha    109.38564
_cell_angle_beta     109.33835
_cell_angle_gamma    109.3383

_symmetry_space_group_name_H-M    'P 1'
_symmetry_Int_Tables_number       1

loop_
  _symmetry_equiv_pos_as_xyz
  'x,y,z'

loop_
  _atom_site_type_symbol
  _atom_site_label
  _atom_site_symmetry_multiplicity
  _atom_site_fract_x
  _atom_site_fract_y
  _atom_site_fract_z
  _atom_site_occupancy
  Ag  Ag1       1.0  0.8740600000000001  0.74887  0.12473  1.0000
  Ag  Ag2       1.0  0.6243900000000002  0.24865  0.37402  1.0000
  Ag  Ag3       1.0  0.74871  0.87393  0.62447  1.0000
  Ag  Ag4       1.0  0.24872  0.62468  0.87398  1.0000
  Ag  Ag5       1.0  0.12451  0.37417999999999996  0.24871999999999997  1.0000
  Ag  Ag6       1.0  0.3739100000000001  0.12463  0.7488999999999999  1.0000
  H   H1        1.0  0.30756  0.28413  0.63474  1.0000
  H   H2        1.0  0.23582  0.27771999999999997  0.6975499999999999  1.0000
  H   H3        1.0  0.39731  0.38799  0.87235  1.0000
  H   H4        1.0  0.5088900000000001  0.39499999999999996  0.7343199999999999  1.0000
  H   H5        1.0  0.5124600000000002  0.33016  0.81463  1.0000
  H   H6        1.0  0.03690000000000014  0.9599000000000004  0.76318  1.0000
  H   H7        1.0  0.9734900000000001  0.8258600000000001  0.6921899999999999  1.0000
  H   H8        1.0  0.8978700000000002  0.87234  0.38694  1.0000
  H   H9        1.0  0.010300000000000083  0.7352400000000002  0.39589999999999986  1.0000
  H   H10       1.0  0.014490000000000003  0.8155500000000001  0.33112  1.0000
  H   H11       1.0  0.19332  0.32655  0.47506  1.0000
  H   H12       1.0  0.26454999999999995  0.4606199999999999  0.5406199999999999  1.0000
  H   H13       1.0  0.10256000000000007  0.47439000000000003  0.49017  1.0000
  H   H14       1.0  0.9916000000000003  0.22574999999999998  0.3859099999999999  1.0000
  H   H15       1.0  0.9887600000000001  0.30287  0.31779999999999997  1.0000
  H   H16       1.0  0.46207999999999994  0.7256000000000001  0.42193999999999987  1.0000
  H   H17       1.0  0.5239100000000002  0.7160500000000002  0.34931999999999996  1.0000
  H   H18       1.0  0.6018000000000002  0.4883  0.47377999999999987  1.0000
  H   H19       1.0  0.49015000000000014  0.3852800000000001  0.22524  1.0000
  H   H20       1.0  0.48652000000000023  0.31653  0.30165  1.0000
  H   H21       1.0  0.8484300000000002  0.21552  0.022209999999999997  1.0000
  H   H22       1.0  0.9191100000000002  0.22312  0.95834  1.0000
  H   H23       1.0  0.9837400000000002  0.11229  0.00951  1.0000
  H   H24       1.0  0.83818  0.10407000000000001  0.1135  1.0000
  H   H25       1.0  0.9829300000000002  0.16939  0.18164  1.0000
  H   H26       1.0  0.3039500000000001  0.54046  0.07646  1.0000
  H   H27       1.0  0.36667000000000005  0.6743600000000002  0.14875999999999998  1.0000
  H   H28       1.0  0.015549999999999977  0.62918  0.027319999999999994  1.0000
  H   H29       1.0  0.16049000000000008  0.7646100000000002  0.27559  1.0000
  H   H30       1.0  0.01594000000000002  0.6849  0.19995  1.0000
  H   H31       1.0  0.64941  0.17348000000000002  0.86671  1.0000
  H   H32       1.0  0.5789200000000002  0.03950999999999999  0.80402  1.0000
  H   H33       1.0  0.5165300000000003  0.02684000000000002  0.62931  1.0000
  H   H34       1.0  0.6605500000000002  0.27519  0.76568  1.0000
  H   H35       1.0  0.5159300000000002  0.19898  0.68595  1.0000
  H   H36       1.0  0.1978300000000001  0.77543  0.73697  1.0000
  H   H37       1.0  0.1348500000000001  0.7837600000000002  0.80845  1.0000
  H   H38       1.0  0.4846600000000001  0.011029999999999996  0.11316  1.0000
  H   H39       1.0  0.33832000000000007  0.1142  0.10310999999999998  1.0000
  H   H40       1.0  0.483  0.18274  0.16825  1.0000
  H   H41       1.0  0.67347  0.36677  0.64969  1.0000
  H   H42       1.0  0.5395100000000003  0.30410000000000004  0.57907  1.0000
  H   H43       1.0  0.52689  0.12936999999999999  0.51659  1.0000
  H   H44       1.0  0.7752900000000001  0.2656699999999999  0.6607399999999998  1.0000
  H   H45       1.0  0.6991200000000001  0.186  0.51615  1.0000
  H   H46       1.0  0.2752800000000001  0.23699999999999996  0.19778999999999997  1.0000
  H   H47       1.0  0.2836700000000001  0.30849  0.13488  1.0000
  H   H48       1.0  0.51108  0.61318  0.4846699999999999  1.0000
  H   H49       1.0  0.6142400000000001  0.60303  0.33835999999999994  1.0000
  H   H50       1.0  0.6828299999999998  0.66813  0.48297999999999996  1.0000
  H   H51       1.0  0.71576  0.52234  0.8485  1.0000
  H   H52       1.0  0.7234599999999999  0.45857  0.91919  1.0000
  H   H53       1.0  0.61241  0.50961  0.98365  1.0000
  H   H54       1.0  0.60409  0.61357  0.8381899999999998  1.0000
  H   H55       1.0  0.6693500000000002  0.68172  0.9828899999999999  1.0000
  H   H56       1.0  0.04033000000000001  0.57642  0.3036  1.0000
  H   H57       1.0  0.17423000000000002  0.64874  0.36638  1.0000
  H   H58       1.0  0.12936  0.52744  0.01549  1.0000
  H   H59       1.0  0.2647100000000001  0.7757  0.16058  1.0000
  H   H60       1.0  0.1851  0.70011  0.01606  1.0000
  H   H61       1.0  0.8266700000000001  0.97526  0.19329  1.0000
  H   H62       1.0  0.9607400000000003  0.04079999999999998  0.26447999999999994  1.0000
  H   H63       1.0  0.9745200000000003  0.99017  0.10253999999999999  1.0000
  H   H64       1.0  0.7258  0.8859499999999999  0.9916199999999997  1.0000
  H   H65       1.0  0.8029700000000001  0.8178099999999999  0.9887899999999997  1.0000
  H   H66       1.0  0.22571  0.9217  0.46206  1.0000
  H   H67       1.0  0.2161200000000001  0.8490499999999999  0.52376  1.0000
  H   H68       1.0  0.98839  0.97381  0.60176  1.0000
  H   H69       1.0  0.8853200000000001  0.72527  0.49009  1.0000
  H   H70       1.0  0.81654  0.8017300000000003  0.48650999999999994  1.0000
  H   H71       1.0  0.78401  0.13483000000000006  0.30751  1.0000
  H   H72       1.0  0.7777800000000002  0.19769  0.23588  1.0000
  H   H73       1.0  0.8880400000000003  0.3724800000000001  0.39741  1.0000
  H   H74       1.0  0.89492  0.23431  0.50872  1.0000
  H   H75       1.0  0.8300700000000002  0.31469  0.5124  1.0000
  H   H76       1.0  0.4599800000000001  0.26326  0.03712  1.0000
  H   H77       1.0  0.3259399999999999  0.19230999999999993  0.9736299999999998  1.0000
  H   H78       1.0  0.37239  0.88696  0.89783  1.0000
  H   H79       1.0  0.2352200000000001  0.89601  0.010189999999999998  1.0000
  H   H80       1.0  0.31549  0.83109  0.01428  1.0000
  H   H81       1.0  0.022209999999999987  0.34836  0.71552  1.0000
  H   H82       1.0  0.9585  0.4192  0.72335  1.0000
  H   H83       1.0  0.009600000000000034  0.48367000000000004  0.61245  1.0000
  H   H84       1.0  0.11358000000000003  0.33812000000000003  0.60399  1.0000
  H   H85       1.0  0.18173999999999998  0.48283  0.6693199999999999  1.0000
  H   H86       1.0  0.07648  0.80372  0.04039  1.0000
  H   H87       1.0  0.1486700000000001  0.8664600000000002  0.17427999999999993  1.0000
  H   H88       1.0  0.027409999999999993  0.51551  0.12912  1.0000
  H   H89       1.0  0.27573000000000003  0.66059  0.26459  1.0000
  H   H90       1.0  0.20018  0.51607  0.18488999999999997  1.0000
  H   H91       1.0  0.8668700000000001  0.14951999999999988  0.6735499999999999  1.0000
  H   H92       1.0  0.8042100000000002  0.07903000000000002  0.53958  1.0000
  H   H93       1.0  0.62941  0.01659000000000003  0.52691  1.0000
  H   H94       1.0  0.76568  0.16068999999999986  0.7752399999999998  1.0000
  H   H95       1.0  0.6860400000000002  0.016079999999999883  0.6990299999999998  1.0000
  H   H96       1.0  0.7369900000000003  0.69784  0.2753  1.0000
  H   H97       1.0  0.8085000000000002  0.63487  0.28367  1.0000
  H   H98       1.0  0.11332000000000012  0.9846000000000001  0.51113  1.0000
  H   H99       1.0  0.10307000000000008  0.8382200000000002  0.61411  1.0000
  H   H100      1.0  0.16823999999999997  0.9828699999999999  0.68275  1.0000
  H   H101      1.0  0.6348400000000002  0.80745  0.78408  1.0000
  H   H102      1.0  0.6977100000000002  0.73575  0.7779  1.0000
  H   H103      1.0  0.8725500000000002  0.89727  0.8880599999999998  1.0000
  H   H104      1.0  0.7343  0.008649999999999996  0.89495  1.0000
  H   H105      1.0  0.8146500000000002  0.012180000000000002  0.83005  1.0000
  H   H106      1.0  0.7632900000000001  0.53682  0.45982  1.0000
  H   H107      1.0  0.69232  0.47348  0.32581  1.0000
  H   H108      1.0  0.3869000000000001  0.39784  0.3723299999999999  1.0000
  H   H109      1.0  0.3959800000000001  0.51025  0.23534  1.0000
  H   H110      1.0  0.3310900000000001  0.51442  0.31563  1.0000
  H   H111      1.0  0.4750800000000001  0.69325  0.82666  1.0000
  H   H112      1.0  0.54053  0.76445  0.9607099999999998  1.0000
  H   H113      1.0  0.49006000000000005  0.60249  0.97437  1.0000
  H   H114      1.0  0.38594000000000006  0.49159999999999987  0.7257699999999998  1.0000
  H   H115      1.0  0.3177  0.48868000000000006  0.8028199999999998  1.0000
  H   H116      1.0  0.42169  0.9619700000000001  0.22546  1.0000
  H   H117      1.0  0.3491500000000001  0.02387999999999997  0.21602999999999994  1.0000
  H   H118      1.0  0.47393  0.10176999999999983  0.9884299999999998  1.0000
  H   H119      1.0  0.22528999999999985  0.9902299999999999  0.8853999999999999  1.0000
  H   H120      1.0  0.30177  0.9865999999999999  0.81663  1.0000
  C   C1        1.0  0.80084  0.89995  0.89175  1.0000
  C   C2        1.0  0.8019000000000003  0.8925200000000002  0.99214  1.0000
  C   C3        1.0  0.10116  0.59066  0.20024  1.0000
  C   C4        1.0  0.09141  0.68964  0.19978  1.0000
  C   C5        1.0  0.70069  0.09152  0.60077  1.0000
  C   C6        1.0  0.69956  0.19056999999999993  0.5917299999999999  1.0000
  C   C7        1.0  0.39969  0.09933  0.98962  1.0000
  C   C8        1.0  0.4081200000000001  0.10769  0.09765  1.0000
  C   C9        1.0  0.4909000000000001  0.60006  0.90006  1.0000
  C   C10       1.0  0.5984  0.60711  0.9078799999999999  1.0000
  C   C11       1.0  0.10897000000000016  0.9089500000000003  0.50971  1.0000
  C   C12       1.0  0.009619999999999983  0.81067  0.4017599999999999  1.0000
  C   C13       1.0  0.008450000000000004  0.4082  0.60843  1.0000
  C   C14       1.0  0.9010900000000001  0.30993  0.50834  1.0000
  C   C15       1.0  0.3911  0.40065  0.30091  1.0000
  C   C16       1.0  0.4908000000000001  0.39178  0.30133  1.0000
  C   C17       1.0  0.9082500000000002  0.10834  0.008379999999999999  1.0000
  C   C18       1.0  0.8099399999999999  0.008209999999999938  0.9010699999999999  1.0000
  C   C19       1.0  0.9006800000000003  0.8008999999999998  0.3911099999999999  1.0000
  C   C20       1.0  0.8918200000000002  0.80137  0.49076  1.0000
  C   C21       1.0  0.10011999999999996  0.40003999999999995  0.4909499999999999  1.0000
  C   C22       1.0  0.10713000000000007  0.4078400000000001  0.59836  1.0000
  C   C23       1.0  0.4090000000000001  0.009679999999999996  0.10885999999999998  1.0000
  C   C24       1.0  0.31066000000000005  0.9017800000000002  0.00949  1.0000
  C   C25       1.0  0.5914600000000002  0.10070999999999994  0.7005999999999999  1.0000
  C   C26       1.0  0.6905799999999999  0.09166999999999992  0.6995099999999999  1.0000
  C   C27       1.0  0.59934  0.4894899999999999  0.39958999999999995  1.0000
  C   C28       1.0  0.6077400000000002  0.5975600000000001  0.4081099999999999  1.0000
  C   C29       1.0  0.40003000000000005  0.3917300000000001  0.8007199999999999  1.0000
  C   C30       1.0  0.39249  0.49209  0.8018  1.0000
  C   C31       1.0  0.09068000000000001  0.70031  0.10109  1.0000
  C   C32       1.0  0.18978  0.6999  0.09144999999999998  1.0000
  C   C33       1.0  0.90015  0.99099  0.10008999999999998  1.0000
  C   C34       1.0  0.9079200000000002  0.09839  0.10706  1.0000
  C   C35       1.0  0.50973  0.6088699999999999  0.40905999999999987  1.0000
  C   C36       1.0  0.4017700000000001  0.50955  0.31075  1.0000
  C   C37       1.0  0.6084600000000001  0.50848  0.9082099999999999  1.0000
  C   C38       1.0  0.5084  0.40112999999999993  0.8098899999999999  1.0000
  C   C39       1.0  0.30091  0.89115  0.90063  1.0000
  C   C40       1.0  0.3014100000000001  0.99084  0.89186  1.0000
  C   C41       1.0  0.89174  0.3008  0.40006  1.0000
  C   C42       1.0  0.9921300000000002  0.30183  0.39253  1.0000
  C   C43       1.0  0.20047000000000012  0.60119  0.09065  1.0000
  C   C44       1.0  0.19995000000000004  0.59147  0.18961999999999996  1.0000
  C   C45       1.0  0.6007300000000001  0.20063000000000003  0.59155  1.0000
  C   C46       1.0  0.5915800000000002  0.19947000000000006  0.69055  1.0000
  C   C47       1.0  0.9895600000000001  0.89959  0.59928  1.0000
  C   C48       1.0  0.09765000000000006  0.9080200000000002  0.60766  1.0000
  N   N1        1.0  0.7046800000000002  0.80896  0.7865  1.0000
  N   N2        1.0  0.10743000000000001  0.58085  0.29683  1.0000
  N   N3        1.0  0.79734  0.08203  0.60625  1.0000
  N   N4        1.0  0.3937900000000001  0.1899900000000001  0.97395  1.0000
  N   N5        1.0  0.4762799999999999  0.69148  0.8949299999999999  1.0000
  N   N6        1.0  0.2147600000000001  0.91747  0.52487  1.0000
  N   N7        1.0  0.02242000000000001  0.41635  0.71379  1.0000
  N   N8        1.0  0.28546999999999995  0.31057999999999997  0.20464999999999994  1.0000
  N   N9        1.0  0.9164000000000002  0.21369  0.02229  1.0000
  N   N10       1.0  0.8105900000000005  0.70466  0.2855  1.0000
  N   N11       1.0  0.19159000000000004  0.3949  0.4763599999999999  1.0000
  N   N12       1.0  0.4175300000000002  0.02484  0.21459  1.0000
  N   N13       1.0  0.5819200000000001  0.10620999999999997  0.79718  1.0000
  N   N14       1.0  0.6899900000000002  0.47373  0.3935899999999999  1.0000
  N   N15       1.0  0.3091200000000001  0.28646  0.70451  1.0000
  N   N16       1.0  0.08084000000000002  0.7968999999999999  0.10738  1.0000
  N   N17       1.0  0.89501  0.97649  0.19153  1.0000
  N   N18       1.0  0.5249300000000002  0.71463  0.41765  1.0000
  N   N19       1.0  0.7139  0.52248  0.91642  1.0000
  N   N20       1.0  0.20467000000000005  0.7855600000000001  0.8104999999999998  1.0000
  N   N21       1.0  0.78644  0.20467  0.3091  1.0000
  N   N22       1.0  0.2971500000000002  0.6074900000000001  0.08088999999999999  1.0000
  N   N23       1.0  0.6062800000000003  0.29727000000000003  0.58213  1.0000
  N   N24       1.0  0.9737900000000002  0.89367  0.6899  1.0000
