data_image0
_chemical_formula_structural       Zn6H48C96O26
_chemical_formula_sum              "Zn6 H48 C96 O26"
_cell_length_a       15.73888
_cell_length_b       15.73889
_cell_length_c       16.463590000000003
_cell_angle_alpha    89.99926
_cell_angle_beta     89.99907
_cell_angle_gamma    120.03494

_symmetry_space_group_name_H-M    'P 1'
_symmetry_Int_Tables_number       1

loop_
  _symmetry_equiv_pos_as_xyz
  'x,y,z'

loop_
  _atom_site_type_symbol
  _atom_site_label
  _atom_site_symmetry_multiplicity
  _atom_site_fract_x
  _atom_site_fract_y
  _atom_site_fract_z
  _atom_site_occupancy
  Zn  Zn1       1.0  0.7348799999999998  0.26511  0.25  1.0000
  Zn  Zn2       1.0  0.73489  0.46981  0.24999  1.0000
  Zn  Zn3       1.0  0.53019  0.26511  0.25001  1.0000
  Zn  Zn4       1.0  0.26511  0.73488  0.75  1.0000
  Zn  Zn5       1.0  0.2651  0.53019  0.75001  1.0000
  Zn  Zn6       1.0  0.46980999999999995  0.7348899999999999  0.74999  1.0000
  H   H1        1.0  0.30604999999999993  0.7574899999999999  0.53046  1.0000
  H   H2        1.0  0.22508  0.70712  0.39704  1.0000
  H   H3        1.0  0.28478  0.82579  0.2804600000000001  1.0000
  H   H4        1.0  0.4251399999999999  0.9923199999999999  0.29747  1.0000
  H   H5        1.0  0.24249  0.54855  0.53046  1.0000
  H   H6        1.0  0.29283  0.51795  0.39704  1.0000
  H   H7        1.0  0.17417999999999995  0.45897999999999994  0.2804700000000001  1.0000
  H   H8        1.0  0.00768999999999999  0.43281  0.29747  1.0000
  H   H9        1.0  0.45145  0.69392  0.53044  1.0000
  H   H10       1.0  0.48205000000000003  0.77486  0.39704  1.0000
  H   H11       1.0  0.5410199999999997  0.7152  0.2804700000000001  1.0000
  H   H12       1.0  0.56717  0.57489  0.29748  1.0000
  H   H13       1.0  0.2425  0.69394  0.9695400000000002  1.0000
  H   H14       1.0  0.29287999999999975  0.7749199999999999  0.10296  1.0000
  H   H15       1.0  0.1741999999999999  0.71522  0.21954000000000007  1.0000
  H   H16       1.0  0.007679999999999966  0.57486  0.20253  1.0000
  H   H17       1.0  0.45144  0.7575  0.9695400000000002  1.0000
  H   H18       1.0  0.4820499999999999  0.7071599999999999  0.10295  1.0000
  H   H19       1.0  0.5410199999999997  0.82581  0.21953000000000003  1.0000
  H   H20       1.0  0.56718  0.99231  0.20253  1.0000
  H   H21       1.0  0.30606999999999995  0.54855  0.96955  1.0000
  H   H22       1.0  0.22512999999999994  0.51794  0.10296  1.0000
  H   H23       1.0  0.28478999999999993  0.45897999999999994  0.21953000000000003  1.0000
  H   H24       1.0  0.42511  0.43282  0.20252  1.0000
  H   H25       1.0  0.6939399999999996  0.24249999999999994  0.46954  1.0000
  H   H26       1.0  0.77492  0.29288  0.60296  1.0000
  H   H27       1.0  0.7152099999999998  0.1742  0.71954  1.0000
  H   H28       1.0  0.57485  0.00767  0.70253  1.0000
  H   H29       1.0  0.75751  0.45144  0.46954  1.0000
  H   H30       1.0  0.7071599999999998  0.48205  0.60295  1.0000
  H   H31       1.0  0.82581  0.54101  0.7195300000000002  1.0000
  H   H32       1.0  0.9923099999999998  0.56718  0.70253  1.0000
  H   H33       1.0  0.54855  0.30608  0.46955  1.0000
  H   H34       1.0  0.51794  0.22513  0.60296  1.0000
  H   H35       1.0  0.4589799999999999  0.28479  0.7195300000000002  1.0000
  H   H36       1.0  0.4328199999999998  0.4251099999999999  0.7025200000000003  1.0000
  H   H37       1.0  0.7575  0.30606  0.03046  1.0000
  H   H38       1.0  0.70712  0.22508  0.89703  1.0000
  H   H39       1.0  0.82579  0.28478  0.78046  1.0000
  H   H40       1.0  0.9923199999999998  0.42514  0.79747  1.0000
  H   H41       1.0  0.54856  0.24249  0.03046  1.0000
  H   H42       1.0  0.51795  0.29283  0.8970400000000002  1.0000
  H   H43       1.0  0.4589799999999999  0.17418  0.78047  1.0000
  H   H44       1.0  0.43280999999999986  0.00768  0.79747  1.0000
  H   H45       1.0  0.6939199999999998  0.45145  0.030450000000000005  1.0000
  H   H46       1.0  0.7748599999999998  0.48205  0.89703  1.0000
  H   H47       1.0  0.7152  0.54101  0.78047  1.0000
  H   H48       1.0  0.57488  0.56717  0.79748  1.0000
  C   C1        1.0  0.5678899999999998  0.13668  0.36327  1.0000
  C   C2        1.0  0.5337  0.0663  0.43369  1.0000
  C   C3        1.0  0.45117  0.97146  0.42361  1.0000
  C   C4        1.0  0.41668  0.90372  0.49093999999999993  1.0000
  C   C5        1.0  0.334  0.80832  0.47944  1.0000
  C   C6        1.0  0.28789999999999993  0.7805299999999998  0.40473  1.0000
  C   C7        1.0  0.32176  0.84726  0.33888  1.0000
  C   C8        1.0  0.40107  0.94083  0.34802  1.0000
  C   C9        1.0  0.86333  0.43122999999999995  0.36327  1.0000
  C   C10       1.0  0.93372  0.46743  0.43368  1.0000
  C   C11       1.0  0.028539999999999965  0.47970999999999997  0.42361  1.0000
  C   C12       1.0  0.09627000000000001  0.51295  0.49094999999999994  1.0000
  C   C13       1.0  0.19165  0.52567  0.47944  1.0000
  C   C14       1.0  0.21943999999999994  0.50736  0.40474  1.0000
  C   C15       1.0  0.15270999999999998  0.4745  0.33889  1.0000
  C   C16       1.0  0.05917000000000001  0.46023  0.34802  1.0000
  C   C17       1.0  0.5687699999999998  0.43212  0.36327  1.0000
  C   C18       1.0  0.53258  0.46631  0.43368  1.0000
  C   C19       1.0  0.52028  0.54882  0.42361  1.0000
  C   C20       1.0  0.48704  0.58331  0.49094999999999994  1.0000
  C   C21       1.0  0.47433  0.66597  0.47944  1.0000
  C   C22       1.0  0.49263999999999986  0.7120699999999999  0.40473  1.0000
  C   C23       1.0  0.5254999999999999  0.67821  0.33889  1.0000
  C   C24       1.0  0.53976  0.5989499999999999  0.34802  1.0000
  C   C25       1.0  0.8633199999999998  0.4321  0.13673  1.0000
  C   C26       1.0  0.9337  0.46629  0.06631  1.0000
  C   C27       1.0  0.028539999999999965  0.54882  0.07639000000000003  1.0000
  C   C28       1.0  0.09627999999999995  0.58332  0.009060000000000004  1.0000
  C   C29       1.0  0.19168  0.666  0.020560000000000005  1.0000
  C   C30       1.0  0.21947  0.7121  0.09527  1.0000
  C   C31       1.0  0.15272999999999995  0.67823  0.16112  1.0000
  C   C32       1.0  0.05915999999999987  0.5989299999999999  0.15198  1.0000
  C   C33       1.0  0.56876  0.13667  0.13673  1.0000
  C   C34       1.0  0.5325699999999998  0.06628  0.06631  1.0000
  C   C35       1.0  0.52028  0.97146  0.07639000000000003  1.0000
  C   C36       1.0  0.48704000000000003  0.90372  0.00905  1.0000
  C   C37       1.0  0.47433  0.80834  0.02055  1.0000
  C   C38       1.0  0.49262999999999996  0.7805499999999999  0.09526  1.0000
  C   C39       1.0  0.5254999999999999  0.84729  0.16111  1.0000
  C   C40       1.0  0.53976  0.94083  0.15198  1.0000
  C   C41       1.0  0.56788  0.43122999999999995  0.13673  1.0000
  C   C42       1.0  0.53368  0.46742  0.06632  1.0000
  C   C43       1.0  0.45117  0.47972  0.07639000000000003  1.0000
  C   C44       1.0  0.4166899999999999  0.51296  0.00905  1.0000
  C   C45       1.0  0.33403  0.52567  0.020560000000000005  1.0000
  C   C46       1.0  0.2879299999999999  0.50736  0.09527  1.0000
  C   C47       1.0  0.3217799999999999  0.4745  0.16111  1.0000
  C   C48       1.0  0.4010499999999999  0.46024  0.15197  1.0000
  C   C49       1.0  0.4320999999999999  0.86331  0.63672  1.0000
  C   C50       1.0  0.46629  0.9337  0.56631  1.0000
  C   C51       1.0  0.54882  0.02854  0.57639  1.0000
  C   C52       1.0  0.58331  0.09627  0.5090500000000002  1.0000
  C   C53       1.0  0.666  0.19167  0.5205600000000002  1.0000
  C   C54       1.0  0.71209  0.21947  0.59526  1.0000
  C   C55       1.0  0.67823  0.15273  0.66111  1.0000
  C   C56       1.0  0.5989299999999997  0.05916  0.65198  1.0000
  C   C57       1.0  0.13667000000000007  0.56876  0.63673  1.0000
  C   C58       1.0  0.06626999999999995  0.53257  0.56631  1.0000
  C   C59       1.0  0.97146  0.52028  0.57639  1.0000
  C   C60       1.0  0.9037199999999997  0.48704  0.5090500000000002  1.0000
  C   C61       1.0  0.8083400000000001  0.47433  0.52055  1.0000
  C   C62       1.0  0.78055  0.49263  0.59526  1.0000
  C   C63       1.0  0.84728  0.5255  0.66111  1.0000
  C   C64       1.0  0.9408200000000001  0.53976  0.6519700000000003  1.0000
  C   C65       1.0  0.43121999999999977  0.56788  0.63673  1.0000
  C   C66       1.0  0.46742  0.53368  0.56631  1.0000
  C   C67       1.0  0.47971  0.45117  0.57639  1.0000
  C   C68       1.0  0.51295  0.41668999999999995  0.5090500000000002  1.0000
  C   C69       1.0  0.52566  0.33403  0.52055  1.0000
  C   C70       1.0  0.50736  0.28792  0.59527  1.0000
  C   C71       1.0  0.47448999999999997  0.32178  0.66111  1.0000
  C   C72       1.0  0.46024  0.40105  0.6519700000000003  1.0000
  C   C73       1.0  0.13668  0.56789  0.8632700000000002  1.0000
  C   C74       1.0  0.06629999999999994  0.5337  0.9336900000000002  1.0000
  C   C75       1.0  0.97145  0.45117  0.92361  1.0000
  C   C76       1.0  0.9037199999999996  0.41668  0.9909400000000002  1.0000
  C   C77       1.0  0.80832  0.33399  0.97944  1.0000
  C   C78       1.0  0.7805299999999997  0.2879  0.90473  1.0000
  C   C79       1.0  0.8472599999999998  0.32176  0.83888  1.0000
  C   C80       1.0  0.9408299999999998  0.40107  0.84802  1.0000
  C   C81       1.0  0.4312299999999999  0.86333  0.8632700000000002  1.0000
  C   C82       1.0  0.46741999999999984  0.9337199999999999  0.93368  1.0000
  C   C83       1.0  0.47971  0.02853  0.9236000000000002  1.0000
  C   C84       1.0  0.51295  0.09627  0.9909500000000001  1.0000
  C   C85       1.0  0.52567  0.19165  0.97944  1.0000
  C   C86       1.0  0.50736  0.21944  0.9047400000000002  1.0000
  C   C87       1.0  0.47449  0.15271  0.8388900000000002  1.0000
  C   C88       1.0  0.46023  0.05916999999999999  0.84802  1.0000
  C   C89       1.0  0.43211  0.56877  0.8632700000000002  1.0000
  C   C90       1.0  0.46631  0.53258  0.93368  1.0000
  C   C91       1.0  0.54882  0.52028  0.92361  1.0000
  C   C92       1.0  0.58331  0.48704  0.9909400000000002  1.0000
  C   C93       1.0  0.66596  0.47433  0.97944  1.0000
  C   C94       1.0  0.71207  0.49263  0.90473  1.0000
  C   C95       1.0  0.6782099999999998  0.5255  0.8388900000000002  1.0000
  C   C96       1.0  0.59894  0.53976  0.84802  1.0000
  O   O1        1.0  0.64228  0.14618  0.32505  1.0000
  O   O2        1.0  0.51655  0.17731  0.35152  1.0000
  O   O3        1.0  0.8538199999999998  0.49610999999999994  0.3250700000000001  1.0000
  O   O4        1.0  0.8226599999999997  0.3392099999999999  0.35152  1.0000
  O   O5        1.0  0.50385  0.35768  0.32506  1.0000
  O   O6        1.0  0.6608  0.48348  0.35153  1.0000
  O   O7        1.0  0.85381  0.35771  0.17495  1.0000
  O   O8        1.0  0.82269  0.48343999999999987  0.14847  1.0000
  O   O9        1.0  0.50389  0.14617  0.17493000000000006  1.0000
  O   O10       1.0  0.6607899999999998  0.17733  0.14848  1.0000
  O   O11       1.0  0.6423199999999999  0.4961399999999999  0.17494000000000007  1.0000
  O   O12       1.0  0.51652  0.33919999999999995  0.14847  1.0000
  O   O13       1.0  0.35771000000000003  0.85381  0.67494  1.0000
  O   O14       1.0  0.48344  0.82268  0.6484700000000002  1.0000
  O   O15       1.0  0.14617  0.50389  0.6749300000000003  1.0000
  O   O16       1.0  0.17732999999999982  0.6607899999999998  0.64848  1.0000
  O   O17       1.0  0.49614  0.64232  0.67494  1.0000
  O   O18       1.0  0.33918999999999994  0.51652  0.6484700000000002  1.0000
  O   O19       1.0  0.1461799999999999  0.64228  0.82505  1.0000
  O   O20       1.0  0.17730999999999997  0.51655  0.85152  1.0000
  O   O21       1.0  0.49611  0.85382  0.82506  1.0000
  O   O22       1.0  0.3391999999999999  0.82266  0.85152  1.0000
  O   O23       1.0  0.35768  0.50385  0.82506  1.0000
  O   O24       1.0  0.48347  0.6608  0.85153  1.0000
  O   O25       1.0  0.66667  0.33332  0.25  1.0000
  O   O26       1.0  0.33332  0.66667  0.75  1.0000
