data_image0
_chemical_formula_structural       Ga12P12H78C24N18O48
_chemical_formula_sum              "Ga12 P12 H78 C24 N18 O48"
_cell_length_a       13.49783
_cell_length_b       14.314809999999998
_cell_length_c       14.32327
_cell_angle_alpha    110.70653
_cell_angle_beta     108.29589
_cell_angle_gamma    108.34901

_space_group_name_H-M_alt    "P 1"
_space_group_IT_number       1

loop_
  _space_group_symop_operation_xyz
  'x, y, z'

loop_
  _atom_site_type_symbol
  _atom_site_label
  _atom_site_symmetry_multiplicity
  _atom_site_fract_x
  _atom_site_fract_y
  _atom_site_fract_z
  _atom_site_occupancy
  Ga  Ga1       1.0  0.52026  0.5460199999999998  0.37865  1.0000
  Ga  Ga2       1.0  0.7348900000000003  0.4125299999999999  0.54592  1.0000
  Ga  Ga3       1.0  0.97538  0.8328699999999999  0.4541  1.0000
  Ga  Ga4       1.0  0.32326000000000005  0.13327999999999995  0.5875  1.0000
  Ga  Ga5       1.0  0.14162000000000005  0.62147  0.16746  1.0000
  Ga  Ga6       1.0  0.18972  0.4540799999999999  0.86667  1.0000
  Ga  Ga7       1.0  0.47974  0.4539699999999999  0.62134  1.0000
  Ga  Ga8       1.0  0.26511000000000007  0.58746  0.45408  1.0000
  Ga  Ga9       1.0  0.024619999999999972  0.16712999999999995  0.5459  1.0000
  Ga  Ga10      1.0  0.67674  0.8667099999999998  0.41250000000000003  1.0000
  Ga  Ga11      1.0  0.85838  0.37853  0.83254  1.0000
  Ga  Ga12      1.0  0.8102799999999999  0.54591  0.13332  1.0000
  P   P1        1.0  0.46040000000000003  0.3390199999999999  0.39381  1.0000
  P   P2        1.0  0.39491  0.6867399999999998  0.33212  1.0000
  P   P3        1.0  0.12158999999999998  0.054960000000000016  0.66085  1.0000
  P   P4        1.0  0.7081700000000002  0.64535  0.31299  1.0000
  P   P5        1.0  0.06733000000000003  0.6064  0.94574  1.0000
  P   P6        1.0  0.06323999999999998  0.66776  0.35486  1.0000
  P   P7        1.0  0.5396  0.6609699999999997  0.60618  1.0000
  P   P8        1.0  0.60509  0.31325  0.66788  1.0000
  P   P9        1.0  0.87841  0.94503  0.33914  1.0000
  P   P10       1.0  0.2918300000000001  0.35465  0.687  1.0000
  P   P11       1.0  0.93267  0.3936  0.05426000000000001  1.0000
  P   P12       1.0  0.93676  0.3322399999999999  0.64514  1.0000
  H   H1        1.0  0.71435  0.23058999999999993  0.39577  1.0000
  H   H2        1.0  0.58515  0.23675999999999994  0.34664  1.0000
  H   H3        1.0  0.7608100000000002  0.54108  0.45308  1.0000
  H   H4        1.0  0.86542  0.56381  0.76045  1.0000
  H   H5        1.0  0.7435799999999999  0.5754199999999999  0.7079799999999999  1.0000
  H   H6        1.0  0.72833  0.27299  0.25538  1.0000
  H   H7        1.0  0.6491700000000002  0.3501  0.27969  1.0000
  H   H8        1.0  0.9652699999999999  0.6850699999999997  0.58036  1.0000
  H   H9        1.0  0.9848700000000002  0.59154  0.63264  1.0000
  H   H10       1.0  0.86621  0.48448  0.35842  1.0000
  H   H11       1.0  0.9046  0.42484999999999995  0.44589  1.0000
  H   H12       1.0  0.9514300000000002  0.7316699999999999  0.76176  1.0000
  H   H13       1.0  0.81462  0.6894699999999998  0.64549  1.0000
  H   H14       1.0  0.48424999999999985  0.1650899999999999  0.7694999999999999  1.0000
  H   H15       1.0  0.3484999999999999  0.10983999999999992  0.76254  1.0000
  H   H16       1.0  0.2195999999999999  0.9114699999999998  0.4589  1.0000
  H   H17       1.0  0.30129  0.19667  0.43674  1.0000
  H   H18       1.0  0.1683  0.13175999999999993  0.42592  1.0000
  H   H19       1.0  0.45533999999999997  0.9818799999999998  0.72645  1.0000
  H   H20       1.0  0.29891999999999996  0.9288499999999998  0.64911  1.0000
  H   H21       1.0  0.28037999999999996  0.8947799999999998  0.3151  1.0000
  H   H22       1.0  0.39356  0.041040000000000014  0.40911  1.0000
  H   H23       1.0  0.38173  0.8731599999999998  0.51498  1.0000
  H   H24       1.0  0.4798900000000001  0.020759999999999983  0.57505  1.0000
  H   H25       1.0  0.22003  0.029899999999999986  0.26921  1.0000
  H   H26       1.0  0.12512999999999994  0.9554099999999998  0.31087  1.0000
  H   H27       1.0  0.31914  0.60384  0.83526  1.0000
  H   H28       1.0  0.23923999999999992  0.6531999999999999  0.89081  1.0000
  H   H29       1.0  0.30826  0.54759  0.08853999999999998  1.0000
  H   H30       1.0  0.10462000000000003  0.23961999999999994  0.80353  1.0000
  H   H31       1.0  0.03638000000000002  0.2935  0.86832  1.0000
  H   H32       1.0  0.47373999999999994  0.7449499999999999  0.01835  1.0000
  H   H33       1.0  0.37043999999999994  0.7206799999999998  0.07135  1.0000
  H   H34       1.0  0.38579  0.4204999999999999  0.10519  1.0000
  H   H35       1.0  0.3525900000000001  0.36783999999999983  0.95914  1.0000
  H   H36       1.0  0.50891  0.6423999999999997  0.12702  1.0000
  H   H37       1.0  0.4594400000000002  0.5543999999999999  0.9796  1.0000
  H   H38       1.0  0.18999999999999997  0.23898  0.97011  1.0000
  H   H39       1.0  0.16994000000000004  0.3555699999999999  0.04467999999999999  1.0000
  H   H40       1.0  0.28565  0.7694099999999998  0.60423  1.0000
  H   H41       1.0  0.41484999999999994  0.7632299999999997  0.65335  1.0000
  H   H42       1.0  0.23918999999999999  0.4589199999999999  0.54692  1.0000
  H   H43       1.0  0.13456999999999997  0.4361899999999999  0.23954999999999999  1.0000
  H   H44       1.0  0.25642  0.42457  0.29202  1.0000
  H   H45       1.0  0.27166  0.7270099999999998  0.74462  1.0000
  H   H46       1.0  0.35083  0.6498999999999998  0.72031  1.0000
  H   H47       1.0  0.034730000000000004  0.31492  0.41964000000000007  1.0000
  H   H48       1.0  0.01512999999999997  0.4084599999999999  0.3673600000000001  1.0000
  H   H49       1.0  0.13377999999999993  0.5155099999999998  0.64158  1.0000
  H   H50       1.0  0.09540000000000005  0.57514  0.55411  1.0000
  H   H51       1.0  0.04857000000000001  0.26833  0.23824  1.0000
  H   H52       1.0  0.18538000000000002  0.31052999999999986  0.35451  1.0000
  H   H53       1.0  0.51574  0.8349099999999998  0.23049  1.0000
  H   H54       1.0  0.6515  0.89016  0.23746  1.0000
  H   H55       1.0  0.7804  0.08853  0.5411  1.0000
  H   H56       1.0  0.69871  0.8033199999999999  0.56325  1.0000
  H   H57       1.0  0.8316999999999999  0.8682399999999998  0.57408  1.0000
  H   H58       1.0  0.54466  0.018120000000000004  0.27354  1.0000
  H   H59       1.0  0.7010800000000003  0.07114000000000002  0.35089000000000004  1.0000
  H   H60       1.0  0.7196100000000001  0.10520999999999996  0.6849  1.0000
  H   H61       1.0  0.60644  0.9589499999999997  0.59088  1.0000
  H   H62       1.0  0.6182699999999998  0.12683  0.48501  1.0000
  H   H63       1.0  0.52011  0.9792399999999998  0.42495  1.0000
  H   H64       1.0  0.7799599999999999  0.9700899999999997  0.7307799999999999  1.0000
  H   H65       1.0  0.87487  0.04458000000000002  0.68913  1.0000
  H   H66       1.0  0.68086  0.39615  0.16473  1.0000
  H   H67       1.0  0.76076  0.3467899999999999  0.10919  1.0000
  H   H68       1.0  0.69174  0.4523999999999999  0.91145  1.0000
  H   H69       1.0  0.89538  0.7603699999999999  0.19646  1.0000
  H   H70       1.0  0.96362  0.7065  0.13167  1.0000
  H   H71       1.0  0.5262599999999998  0.25503999999999993  0.9816499999999999  1.0000
  H   H72       1.0  0.62956  0.27931  0.92865  1.0000
  H   H73       1.0  0.6142100000000003  0.57949  0.8948  1.0000
  H   H74       1.0  0.6474100000000002  0.6321499999999998  0.04086  1.0000
  H   H75       1.0  0.49109  0.35759999999999986  0.87298  1.0000
  H   H76       1.0  0.54056  0.4456  0.0204  1.0000
  H   H77       1.0  0.8100000000000003  0.76101  0.02988  1.0000
  H   H78       1.0  0.8300600000000001  0.6444299999999998  0.95532  1.0000
  C   C1        1.0  0.71854  0.3320499999999999  0.32116  1.0000
  C   C2        1.0  0.8365700000000001  0.44316999999999995  0.40337000000000006  1.0000
  C   C3        1.0  0.9219100000000001  0.6179999999999998  0.59645  1.0000
  C   C4        1.0  0.87656  0.6609099999999999  0.67938  1.0000
  C   C5        1.0  0.38655  0.9885499999999998  0.66746  1.0000
  C   C6        1.0  0.39345  0.9595899999999998  0.5565  1.0000
  C   C7        1.0  0.3040399999999998  0.9780199999999996  0.38231  1.0000
  C   C8        1.0  0.21579000000000004  0.01805999999999999  0.33967  1.0000
  C   C9        1.0  0.39832  0.6791399999999997  0.0117  1.0000
  C   C10       1.0  0.43412999999999996  0.5971699999999998  0.04063  1.0000
  C   C11       1.0  0.3261099999999999  0.40428999999999987  0.02205  1.0000
  C   C12       1.0  0.1977300000000001  0.32142  0.98198  1.0000
  C   C13       1.0  0.28145  0.66795  0.67884  1.0000
  C   C14       1.0  0.16343  0.55682  0.59663  1.0000
  C   C15       1.0  0.07808999999999999  0.382  0.40354999999999996  1.0000
  C   C16       1.0  0.12344  0.3390899999999999  0.32061  1.0000
  C   C17       1.0  0.61345  0.011439999999999987  0.33253  1.0000
  C   C18       1.0  0.6065500000000001  0.04039999999999998  0.4435  1.0000
  C   C19       1.0  0.69596  0.021980000000000062  0.61769  1.0000
  C   C20       1.0  0.7842099999999999  0.9819399999999996  0.66033  1.0000
  C   C21       1.0  0.6016800000000003  0.32084999999999997  0.98829  1.0000
  C   C22       1.0  0.56587  0.4028199999999999  0.95937  1.0000
  C   C23       1.0  0.67389  0.59571  0.97795  1.0000
  C   C24       1.0  0.80227  0.6785799999999997  0.01802  1.0000
  N   N1        1.0  0.67775  0.28082  0.38456  1.0000
  N   N2        1.0  0.81823  0.5165999999999998  0.49136  1.0000
  N   N3        1.0  0.8104  0.5659899999999999  0.6929700000000001  1.0000
  N   N4        1.0  0.39734  0.10354999999999993  0.71887  1.0000
  N   N5        1.0  0.30168999999999996  0.9741899999999998  0.48339  1.0000
  N   N6        1.0  0.24469  0.12671999999999997  0.43479  1.0000
  N   N7        1.0  0.29393  0.6153899999999998  0.89688  1.0000
  N   N8        1.0  0.3276  0.50926  0.02586  1.0000
  N   N9        1.0  0.11790000000000005  0.30771999999999994  0.8734600000000001  1.0000
  N   N10       1.0  0.32225000000000004  0.71917  0.61544  1.0000
  N   N11       1.0  0.18177000000000001  0.4833899999999999  0.50864  1.0000
  N   N12       1.0  0.1896  0.4339999999999999  0.30703  1.0000
  N   N13       1.0  0.60266  0.89644  0.28113  1.0000
  N   N14       1.0  0.69831  0.025800000000000017  0.51661  1.0000
  N   N15       1.0  0.7553100000000003  0.8732699999999998  0.5652  1.0000
  N   N16       1.0  0.70607  0.3845999999999999  0.10311000000000001  1.0000
  N   N17       1.0  0.6724  0.49072999999999994  0.97413  1.0000
  N   N18       1.0  0.8820999999999999  0.6922699999999999  0.12654  1.0000
  O   O1        1.0  0.5927800000000001  0.4312  0.48185  1.0000
  O   O2        1.0  0.41534  0.39394999999999997  0.32149  1.0000
  O   O3        1.0  0.3925600000000001  0.3390799999999999  0.46823999999999993  1.0000
  O   O4        1.0  0.4373  0.22113999999999995  0.32144  1.0000
  O   O5        1.0  0.4115  0.57817  0.29292  1.0000
  O   O6        1.0  0.30649  0.67185  0.21772999999999998  1.0000
  O   O7        1.0  0.51045  0.7980899999999997  0.39414  1.0000
  O   O8        1.0  0.33516000000000007  0.6908799999999998  0.40823  1.0000
  O   O9        1.0  0.16209  0.049819999999999996  0.56893  1.0000
  O   O10       1.0  0.021229999999999874  0.92747  0.60586  1.0000
  O   O11       1.0  0.05372000000000001  0.12931  0.66064  1.0000
  O   O12       1.0  0.21639999999999993  0.10146999999999988  0.7789599999999999  1.0000
  O   O13       1.0  0.8336599999999998  0.7149899999999998  0.42107999999999995  1.0000
  O   O14       1.0  0.63491  0.5460699999999999  0.32849  1.0000
  O   O15       1.0  0.71146  0.5948499999999998  0.20134  1.0000
  O   O16       1.0  0.64441  0.7174199999999998  0.30892  1.0000
  O   O17       1.0  0.11120999999999996  0.5182099999999998  0.94963  1.0000
  O   O18       1.0  0.09465999999999991  0.6790999999999998  0.0732  1.0000
  O   O19       1.0  0.92499  0.53164  0.87083  1.0000
  O   O20       1.0  0.1172599999999999  0.6790099999999999  0.90089  1.0000
  O   O21       1.0  0.11965  0.70741  0.28619  1.0000
  O   O22       1.0  0.08979999999999995  0.7825599999999998  0.45479  1.0000
  O   O23       1.0  0.11647  0.60581  0.40419  1.0000
  O   O24       1.0  0.9271600000000002  0.5918899999999999  0.28265  1.0000
  O   O25       1.0  0.40721999999999997  0.5687899999999999  0.51815  1.0000
  O   O26       1.0  0.58466  0.6060399999999998  0.6785  1.0000
  O   O27       1.0  0.6074399999999999  0.6609099999999999  0.53176  1.0000
  O   O28       1.0  0.5627  0.7788499999999999  0.67856  1.0000
  O   O29       1.0  0.5885  0.4218299999999999  0.70708  1.0000
  O   O30       1.0  0.69351  0.32814  0.7822700000000001  1.0000
  O   O31       1.0  0.48955  0.2019099999999999  0.60586  1.0000
  O   O32       1.0  0.6648399999999999  0.30910999999999994  0.59177  1.0000
  O   O33       1.0  0.8379100000000003  0.9501699999999997  0.43107  1.0000
  O   O34       1.0  0.97877  0.07252  0.39414  1.0000
  O   O35       1.0  0.94628  0.8706799999999998  0.33936  1.0000
  O   O36       1.0  0.7836  0.89853  0.22104000000000001  1.0000
  O   O37       1.0  0.16634000000000002  0.285  0.57892  1.0000
  O   O38       1.0  0.3650900000000001  0.45392  0.67151  1.0000
  O   O39       1.0  0.28853999999999996  0.4051499999999999  0.7986599999999999  1.0000
  O   O40       1.0  0.35559000000000013  0.28256999999999993  0.6910800000000001  1.0000
  O   O41       1.0  0.8887900000000001  0.4817799999999999  0.05036  1.0000
  O   O42       1.0  0.9053400000000001  0.32089  0.9268  1.0000
  O   O43       1.0  0.07501000000000001  0.46836  0.12916  1.0000
  O   O44       1.0  0.88274  0.32097999999999993  0.09911  1.0000
  O   O45       1.0  0.88035  0.29258  0.71381  1.0000
  O   O46       1.0  0.9102  0.21742999999999996  0.5452  1.0000
  O   O47       1.0  0.88353  0.39417999999999986  0.5958  1.0000
  O   O48       1.0  0.07283999999999995  0.4080999999999999  0.71735  1.0000
