data_image0
_chemical_formula_structural       Cu6H60C76N8O28
_chemical_formula_sum              "Cu6 H60 C76 N8 O28"
_cell_length_a       12.17948
_cell_length_b       12.17916
_cell_length_c       19.63496
_cell_angle_alpha    83.96130000000001
_cell_angle_beta     83.9603
_cell_angle_gamma    62.00095

_symmetry_space_group_name_H-M    'P 1'
_symmetry_Int_Tables_number       1

loop_
  _symmetry_equiv_pos_as_xyz
  'x,y,z'

loop_
  _atom_site_type_symbol
  _atom_site_label
  _atom_site_symmetry_multiplicity
  _atom_site_fract_x
  _atom_site_fract_y
  _atom_site_fract_z
  _atom_site_occupancy
  Cu  Cu1       1.0  0.5542  0.06439999999999997  0.81399  1.0000
  Cu  Cu2       1.0  0.76604  0.019040000000000005  0.85065  1.0000
  Cu  Cu3       1.0  0.3565  0.68309  0.56152  1.0000
  Cu  Cu4       1.0  0.93558  0.44581  0.18602000000000002  1.0000
  Cu  Cu5       1.0  0.9809500000000001  0.23395999999999997  0.14936000000000002  1.0000
  Cu  Cu6       1.0  0.31693  0.64349  0.4384700000000001  1.0000
  H   H1        1.0  0.6280199999999999  0.87989  0.62515  1.0000
  H   H2        1.0  0.7452100000000003  0.37548999999999993  0.97934  1.0000
  H   H3        1.0  0.48918  0.45054999999999995  0.75961  1.0000
  H   H4        1.0  0.9524900000000001  0.69025  0.48904000000000003  1.0000
  H   H5        1.0  0.9814100000000001  0.8532499999999998  0.66496  1.0000
  H   H6        1.0  0.6189  0.6834699999999999  0.8270700000000001  1.0000
  H   H7        1.0  0.8176199999999999  0.68505  0.99534  1.0000
  H   H8        1.0  0.6697100000000001  0.6725899999999998  0.39143  1.0000
  H   H9        1.0  0.47587000000000007  0.8232499999999999  0.61185  1.0000
  H   H10       1.0  0.77793  0.51797  0.7677500000000003  1.0000
  H   H11       1.0  0.8424  0.35393  0.76255  1.0000
  H   H12       1.0  0.86766  0.52039  0.56587  1.0000
  H   H13       1.0  0.9526599999999998  0.51448  0.48639  1.0000
  H   H14       1.0  0.40722  0.8355199999999999  0.83206  1.0000
  H   H15       1.0  0.2937299999999999  0.63324  0.71122  1.0000
  H   H16       1.0  0.7093300000000002  0.29142999999999997  0.6689200000000001  1.0000
  H   H17       1.0  0.57397  0.42907  0.64432  1.0000
  H   H18       1.0  0.8468399999999999  0.4708399999999999  0.37854000000000004  1.0000
  H   H19       1.0  0.7299199999999998  0.42488  0.4042100000000001  1.0000
  H   H20       1.0  0.49394000000000005  0.8992799999999999  0.72297  1.0000
  H   H21       1.0  0.83264  0.19521  0.90014  1.0000
  H   H22       1.0  0.77989  0.39684  0.52574  1.0000
  H   H23       1.0  0.93038  0.32954999999999995  0.48196000000000006  1.0000
  H   H24       1.0  0.009419999999999972  0.20632  0.9486100000000001  1.0000
  H   H25       1.0  0.3097599999999999  0.69339  0.8265400000000002  1.0000
  H   H26       1.0  0.04172999999999996  0.81852  0.87399  1.0000
  H   H27       1.0  0.2301900000000001  0.81347  0.91826  1.0000
  H   H28       1.0  0.6635  0.56014  0.6651  1.0000
  H   H29       1.0  0.80353  0.42566999999999994  0.64304  1.0000
  H   H30       1.0  0.21547999999999998  0.01182999999999998  0.9546300000000002  1.0000
  H   H31       1.0  0.12011000000000001  0.37199  0.3748400000000001  1.0000
  H   H32       1.0  0.62449  0.2548  0.020670000000000004  1.0000
  H   H33       1.0  0.54943  0.5108299999999999  0.24039000000000002  1.0000
  H   H34       1.0  0.30974  0.0475  0.51095  1.0000
  H   H35       1.0  0.14674  0.018579999999999996  0.33504  1.0000
  H   H36       1.0  0.31654  0.38108  0.17295  1.0000
  H   H37       1.0  0.31495  0.18238  0.00467  1.0000
  H   H38       1.0  0.3274  0.33029  0.60857  1.0000
  H   H39       1.0  0.17675  0.52413  0.38815  1.0000
  H   H40       1.0  0.48203  0.22206  0.23225  1.0000
  H   H41       1.0  0.64606  0.15759  0.23744  1.0000
  H   H42       1.0  0.47961000000000004  0.13232999999999998  0.43413000000000007  1.0000
  H   H43       1.0  0.48553  0.04732999999999998  0.5136100000000001  1.0000
  H   H44       1.0  0.16448000000000002  0.5927699999999999  0.16794000000000003  1.0000
  H   H45       1.0  0.36676  0.70627  0.28878  1.0000
  H   H46       1.0  0.70855  0.29067000000000004  0.33108  1.0000
  H   H47       1.0  0.57092  0.42603  0.35568  1.0000
  H   H48       1.0  0.5291400000000003  0.15317  0.62146  1.0000
  H   H49       1.0  0.57509  0.2701  0.5957800000000001  1.0000
  H   H50       1.0  0.10070999999999998  0.50606  0.27703  1.0000
  H   H51       1.0  0.80479  0.16736  0.09986  1.0000
  H   H52       1.0  0.6031599999999999  0.2201  0.47425  1.0000
  H   H53       1.0  0.67044  0.06962  0.51803  1.0000
  H   H54       1.0  0.79367  0.9905699999999998  0.0514  1.0000
  H   H55       1.0  0.30659999999999993  0.69024  0.17346  1.0000
  H   H56       1.0  0.18147000000000008  0.9582799999999999  0.12601  1.0000
  H   H57       1.0  0.1865300000000001  0.7698099999999999  0.08173  1.0000
  H   H58       1.0  0.43984999999999996  0.33649999999999997  0.3349  1.0000
  H   H59       1.0  0.57432  0.19646  0.35696000000000006  1.0000
  H   H60       1.0  0.98817  0.78452  0.04536  1.0000
  C   C1        1.0  0.61473  0.26037  0.7839000000000002  1.0000
  C   C2        1.0  0.7904800000000001  0.52272  0.9925200000000002  1.0000
  C   C3        1.0  0.11196000000000002  0.7306399999999998  0.5504900000000001  1.0000
  C   C4        1.0  0.72689  0.8459399999999999  0.61169  1.0000
  C   C5        1.0  0.6797299999999997  0.52021  0.8974600000000001  1.0000
  C   C6        1.0  0.56166  0.61954  0.4655100000000001  1.0000
  C   C7        1.0  0.73947  0.46399  0.95799  1.0000
  C   C8        1.0  0.6211100000000002  0.45858999999999994  0.86238  1.0000
  C   C9        1.0  0.8558900000000002  0.45962999999999987  0.05639  1.0000
  C   C10       1.0  0.5902599999999999  0.39132  0.7558800000000001  1.0000
  C   C11       1.0  0.78193  0.7761999999999999  0.55398  1.0000
  C   C12       1.0  0.90744  0.7401499999999999  0.53493  1.0000
  C   C13       1.0  0.9253600000000002  0.8330499999999997  0.63365  1.0000
  C   C14       1.0  0.7412100000000001  0.9422299999999999  0.71553  1.0000
  C   C15       1.0  0.7155  0.69796  0.9085  1.0000
  C   C16       1.0  0.79859  0.87268  0.65221  1.0000
  C   C17       1.0  0.66723  0.63752  0.8733  1.0000
  C   C18       1.0  0.7039600000000001  0.7506599999999998  0.5099300000000001  1.0000
  C   C19       1.0  0.69613  0.82519  0.88241  1.0000
  C   C20       1.0  0.77892  0.6396  0.96781  1.0000
  C   C21       1.0  0.68863  0.60776  0.43703000000000003  1.0000
  C   C22       1.0  0.9787399999999999  0.76918  0.57405  1.0000
  C   C23       1.0  0.4395999999999999  0.79881  0.66103  1.0000
  C   C24       1.0  0.75966  0.44404  0.75335  1.0000
  C   C25       1.0  0.86453  0.52072  0.51031  1.0000
  C   C26       1.0  0.40038  0.80439  0.78341  1.0000
  C   C27       1.0  0.33824000000000004  0.69096  0.71674  1.0000
  C   C28       1.0  0.64713  0.38832999999999995  0.68095  1.0000
  C   C29       1.0  0.77916  0.47216999999999987  0.42047000000000007  1.0000
  C   C30       1.0  0.4486100000000001  0.84071  0.72261  1.0000
  C   C31       1.0  0.92275  0.11338999999999999  0.90524  1.0000
  C   C32       1.0  0.8429699999999999  0.41594  0.48798  1.0000
  C   C33       1.0  0.022169999999999985  0.11901999999999997  0.9310300000000001  1.0000
  C   C34       1.0  0.3456600000000001  0.7268499999999998  0.78046  1.0000
  C   C35       1.0  0.04013  0.90233  0.88981  1.0000
  C   C36       1.0  0.14430999999999977  0.9004700000000001  0.91432  1.0000
  C   C37       1.0  0.72201  0.4612799999999999  0.67962  1.0000
  C   C38       1.0  0.13565999999999998  0.010620000000000001  0.93504  1.0000
  C   C39       1.0  0.7396099999999999  0.38528  0.2161  1.0000
  C   C40       1.0  0.47727  0.20952  0.0074800000000000005  1.0000
  C   C41       1.0  0.26936000000000015  0.8880399999999999  0.44951  1.0000
  C   C42       1.0  0.15406  0.27310999999999996  0.3883  1.0000
  C   C43       1.0  0.47977999999999993  0.32027  0.10255  1.0000
  C   C44       1.0  0.38046  0.43834  0.53449  1.0000
  C   C45       1.0  0.53599  0.26053  0.04201  1.0000
  C   C46       1.0  0.5414  0.37889  0.13762  1.0000
  C   C47       1.0  0.54037  0.14411  0.94361  1.0000
  C   C48       1.0  0.60867  0.40973999999999994  0.24412  1.0000
  C   C49       1.0  0.22379999999999997  0.21807  0.4460100000000001  1.0000
  C   C50       1.0  0.25985  0.09255  0.46507  1.0000
  C   C51       1.0  0.16695  0.07463  0.36635  1.0000
  C   C52       1.0  0.057759999999999985  0.25878  0.28447000000000006  1.0000
  C   C53       1.0  0.30203  0.28449  0.09151000000000002  1.0000
  C   C54       1.0  0.12731999999999996  0.20140999999999995  0.34779  1.0000
  C   C55       1.0  0.36248  0.33276  0.12671  1.0000
  C   C56       1.0  0.24933999999999995  0.29602999999999996  0.49007  1.0000
  C   C57       1.0  0.17481  0.30388  0.11759000000000001  1.0000
  C   C58       1.0  0.36039  0.22107999999999997  0.0322  1.0000
  C   C59       1.0  0.39224  0.31137  0.56296  1.0000
  C   C60       1.0  0.23081  0.021259999999999994  0.42594000000000004  1.0000
  C   C61       1.0  0.20119000000000012  0.5603899999999998  0.3389700000000001  1.0000
  C   C62       1.0  0.55595  0.24032999999999996  0.24665000000000004  1.0000
  C   C63       1.0  0.47928  0.13545999999999997  0.48969000000000007  1.0000
  C   C64       1.0  0.19562000000000004  0.5996199999999999  0.21659  1.0000
  C   C65       1.0  0.30904000000000004  0.66176  0.28326  1.0000
  C   C66       1.0  0.6116600000000002  0.35287  0.3190500000000001  1.0000
  C   C67       1.0  0.5278099999999999  0.22084000000000004  0.57953  1.0000
  C   C68       1.0  0.15929  0.55138  0.27739  1.0000
  C   C69       1.0  0.8866  0.07725  0.09475000000000001  1.0000
  C   C70       1.0  0.58405  0.15703000000000003  0.51202  1.0000
  C   C71       1.0  0.88097  0.9778299999999999  0.06896  1.0000
  C   C72       1.0  0.27315  0.6543399999999999  0.21954  1.0000
  C   C73       1.0  0.09767000000000009  0.9598799999999998  0.11019  1.0000
  C   C74       1.0  0.09953  0.85569  0.08567  1.0000
  C   C75       1.0  0.53871  0.27798  0.32038  1.0000
  C   C76       1.0  0.9893699999999999  0.86434  0.06495  1.0000
  N   N1        1.0  0.3848499999999999  0.7257800000000001  0.6581  1.0000
  N   N2        1.0  0.7552199999999999  0.63508  0.4853100000000001  1.0000
  N   N3        1.0  0.65075  0.44345  0.79375  1.0000
  N   N4        1.0  0.9310199999999998  0.007300000000000001  0.88476  1.0000
  N   N5        1.0  0.27422  0.6151499999999999  0.3419  1.0000
  N   N6        1.0  0.36492  0.24476999999999996  0.51469  1.0000
  N   N7        1.0  0.5565400000000001  0.34924999999999995  0.20625  1.0000
  N   N8        1.0  0.9926899999999999  0.06898  0.11523  1.0000
  O   O1        1.0  0.17818000000000003  0.74397  0.59214  1.0000
  O   O2        1.0  0.49390999999999974  0.6218  0.41981  1.0000
  O   O3        1.0  0.7210199999999999  0.18955  0.80731  1.0000
  O   O4        1.0  0.8139299999999999  0.94419  0.75691  1.0000
  O   O5        1.0  0.6215100000000001  0.99488  0.72389  1.0000
  O   O6        1.0  0.53546  0.6225  0.52999  1.0000
  O   O7        1.0  0.14781000000000002  0.6884  0.49132000000000003  1.0000
  O   O8        1.0  0.89696  0.34208999999999995  0.06432  1.0000
  O   O9        1.0  0.7802300000000002  0.85535  0.8921400000000002  1.0000
  O   O10       1.0  0.5280099999999999  0.232  0.7778200000000002  1.0000
  O   O11       1.0  0.5950999999999999  0.89325  0.8521300000000002  1.0000
  O   O12       1.0  0.86633  0.52837  0.09776  1.0000
  O   O13       1.0  0.59905  0.83414  0.49485  1.0000
  O   O14       1.0  0.54612  0.42689  0.89477  1.0000
  O   O15       1.0  0.2560300000000001  0.8218199999999999  0.40786000000000006  1.0000
  O   O16       1.0  0.37818999999999997  0.5061  0.5801900000000001  1.0000
  O   O17       1.0  0.8104399999999999  0.27898  0.19269  1.0000
  O   O18       1.0  0.05579999999999997  0.18603  0.24309000000000003  1.0000
  O   O19       1.0  0.0051199999999999996  0.3784699999999999  0.2761  1.0000
  O   O20       1.0  0.37752  0.4645300000000001  0.47001  1.0000
  O   O21       1.0  0.3115899999999999  0.85221  0.50868  1.0000
  O   O22       1.0  0.6579099999999999  0.10303999999999999  0.9356800000000001  1.0000
  O   O23       1.0  0.14465  0.21977  0.10787000000000002  1.0000
  O   O24       1.0  0.76798  0.4719999999999999  0.22218000000000002  1.0000
  O   O25       1.0  0.10673000000000006  0.4049199999999999  0.14787  1.0000
  O   O26       1.0  0.47164  0.13365999999999995  0.90224  1.0000
  O   O27       1.0  0.16587000000000007  0.40094999999999986  0.50515  1.0000
  O   O28       1.0  0.57311  0.45388  0.10523  1.0000
