data_image0
_chemical_formula_structural       Y8H24C72S12O48
_chemical_formula_sum              "Y8 H24 C72 S12 O48"
_cell_length_a       10.57575
_cell_length_b       16.89338
_cell_length_c       17.58439
_cell_angle_alpha    90.0
_cell_angle_beta     90.0
_cell_angle_gamma    90.0

_space_group_name_H-M_alt    "P 1"
_space_group_IT_number       1

loop_
  _space_group_symop_operation_xyz
  'x, y, z'

loop_
  _atom_site_type_symbol
  _atom_site_label
  _atom_site_symmetry_multiplicity
  _atom_site_fract_x
  _atom_site_fract_y
  _atom_site_fract_z
  _atom_site_occupancy
  Y   Y1        1.0  0.14391  0.18215  0.7278200000000002  1.0000
  Y   Y2        1.0  0.18665  0.47546999999999995  0.7388600000000001  1.0000
  Y   Y3        1.0  0.8560899999999999  0.81786  0.22782000000000002  1.0000
  Y   Y4        1.0  0.8133499999999999  0.52453  0.23886000000000002  1.0000
  Y   Y5        1.0  0.35608999999999996  0.68215  0.7278200000000002  1.0000
  Y   Y6        1.0  0.31335  0.9754699999999998  0.7388600000000001  1.0000
  Y   Y7        1.0  0.6439099999999999  0.31785  0.22782000000000002  1.0000
  Y   Y8        1.0  0.68665  0.02453  0.23886000000000002  1.0000
  H   H1        1.0  0.9525699999999999  0.20064  0.55482  1.0000
  H   H2        1.0  0.1394  0.45418999999999987  0.9365900000000001  1.0000
  H   H3        1.0  0.03720999999999999  0.47147999999999995  0.07421000000000001  1.0000
  H   H4        1.0  0.96978  0.14871  0.9138900000000001  1.0000
  H   H5        1.0  0.86653  0.20982999999999993  0.41192  1.0000
  H   H6        1.0  0.8791599999999999  0.12903999999999993  0.05506  1.0000
  H   H7        1.0  0.04743  0.79936  0.054820000000000015  1.0000
  H   H8        1.0  0.8606  0.54581  0.43659000000000003  1.0000
  H   H9        1.0  0.96279  0.5285199999999998  0.57421  1.0000
  H   H10       1.0  0.030219999999999997  0.8513  0.4138900000000001  1.0000
  H   H11       1.0  0.13347  0.79017  0.91192  1.0000
  H   H12       1.0  0.12084  0.87096  0.5550600000000001  1.0000
  H   H13       1.0  0.54742  0.7006399999999998  0.55482  1.0000
  H   H14       1.0  0.3606  0.9541899999999999  0.9365900000000001  1.0000
  H   H15       1.0  0.46278999999999987  0.97149  0.07421000000000001  1.0000
  H   H16       1.0  0.53022  0.64871  0.9138900000000001  1.0000
  H   H17       1.0  0.6334699999999999  0.70983  0.41192  1.0000
  H   H18       1.0  0.6208399999999998  0.62904  0.05506  1.0000
  H   H19       1.0  0.4525699999999999  0.29936  0.054820000000000015  1.0000
  H   H20       1.0  0.63939  0.04580999999999998  0.43659000000000003  1.0000
  H   H21       1.0  0.53721  0.028519999999999997  0.57421  1.0000
  H   H22       1.0  0.4697799999999999  0.3513  0.4138900000000001  1.0000
  H   H23       1.0  0.36653  0.29016999999999993  0.91192  1.0000
  H   H24       1.0  0.37916  0.37096  0.5550600000000001  1.0000
  C   C1        1.0  0.06378  0.3213  0.84756  1.0000
  C   C2        1.0  0.053919999999999996  0.33991  0.62144  1.0000
  C   C3        1.0  0.007329999999999999  0.32396  0.5441200000000002  1.0000
  C   C4        1.0  0.95665  0.25262  0.5186  1.0000
  C   C5        1.0  0.025139999999999996  0.34803  0.9241900000000001  1.0000
  C   C6        1.0  0.8501399999999999  0.3570599999999999  0.11939  1.0000
  C   C7        1.0  0.8789899999999998  0.36242  0.34017  1.0000
  C   C8        1.0  0.07077999999999998  0.4144099999999999  0.96213  1.0000
  C   C9        1.0  0.04154999999999999  0.02891  0.92206  1.0000
  C   C10       1.0  0.017459999999999996  0.4233  0.03506000000000001  1.0000
  C   C11       1.0  0.9309099999999998  0.3641  0.05198  1.0000
  C   C12       1.0  0.10875  0.02016  0.84988  1.0000
  C   C13       1.0  0.9781  0.09553999999999997  0.9483500000000001  1.0000
  C   C14       1.0  0.9286899999999999  0.33267  0.41269  1.0000
  C   C15       1.0  0.9114799999999998  0.25747  0.44353  1.0000
  C   C16       1.0  0.9598199999999999  0.01058  0.05185  1.0000
  C   C17       1.0  0.9315899999999998  0.08519  0.022640000000000007  1.0000
  C   C18       1.0  0.9187499999999998  0.9790299999999998  0.12573000000000006  1.0000
  C   C19       1.0  0.9362199999999998  0.6787  0.3475600000000001  1.0000
  C   C20       1.0  0.9460799999999998  0.6601  0.12144000000000002  1.0000
  C   C21       1.0  0.99267  0.67605  0.04412  1.0000
  C   C22       1.0  0.04334999999999999  0.74739  0.0186  1.0000
  C   C23       1.0  0.97485  0.65197  0.42419  1.0000
  C   C24       1.0  0.14986  0.64294  0.61939  1.0000
  C   C25       1.0  0.12101  0.63759  0.84017  1.0000
  C   C26       1.0  0.92921  0.58559  0.46213  1.0000
  C   C27       1.0  0.95845  0.9711  0.42206  1.0000
  C   C28       1.0  0.9825399999999999  0.5767  0.53506  1.0000
  C   C29       1.0  0.06908  0.6359099999999998  0.55198  1.0000
  C   C30       1.0  0.89125  0.97984  0.34988  1.0000
  C   C31       1.0  0.021899999999999996  0.9044599999999999  0.44835  1.0000
  C   C32       1.0  0.07131  0.66734  0.91269  1.0000
  C   C33       1.0  0.08852  0.74253  0.9435300000000001  1.0000
  C   C34       1.0  0.04018  0.98942  0.55185  1.0000
  C   C35       1.0  0.06841  0.91481  0.52264  1.0000
  C   C36       1.0  0.08124999999999999  0.020969999999999992  0.62573  1.0000
  C   C37       1.0  0.43622  0.8213  0.84756  1.0000
  C   C38       1.0  0.4460799999999999  0.83991  0.62144  1.0000
  C   C39       1.0  0.49267  0.82396  0.5441200000000002  1.0000
  C   C40       1.0  0.54335  0.7526199999999997  0.5186  1.0000
  C   C41       1.0  0.47485999999999995  0.84804  0.9241900000000001  1.0000
  C   C42       1.0  0.64986  0.8570599999999999  0.11939  1.0000
  C   C43       1.0  0.6209999999999999  0.8624199999999997  0.34017  1.0000
  C   C44       1.0  0.4292099999999999  0.91441  0.96213  1.0000
  C   C45       1.0  0.45844999999999997  0.52891  0.92206  1.0000
  C   C46       1.0  0.48254  0.9232999999999998  0.03506000000000001  1.0000
  C   C47       1.0  0.5690799999999999  0.8640999999999998  0.05198  1.0000
  C   C48       1.0  0.39125  0.52016  0.84988  1.0000
  C   C49       1.0  0.5219  0.59554  0.9483500000000001  1.0000
  C   C50       1.0  0.5713099999999999  0.8326699999999998  0.41269  1.0000
  C   C51       1.0  0.58852  0.75747  0.44353  1.0000
  C   C52       1.0  0.54017  0.51058  0.05185  1.0000
  C   C53       1.0  0.56841  0.58519  0.022640000000000007  1.0000
  C   C54       1.0  0.58124  0.47903  0.12573000000000006  1.0000
  C   C55       1.0  0.56378  0.1787  0.3475600000000001  1.0000
  C   C56       1.0  0.55392  0.16009999999999994  0.12144000000000002  1.0000
  C   C57       1.0  0.50732  0.17604  0.04412  1.0000
  C   C58       1.0  0.45664999999999994  0.24738999999999997  0.0186  1.0000
  C   C59       1.0  0.5251399999999999  0.15197  0.42419  1.0000
  C   C60       1.0  0.35014  0.14293999999999998  0.61939  1.0000
  C   C61       1.0  0.37899  0.13759  0.84017  1.0000
  C   C62       1.0  0.57078  0.08559  0.46213  1.0000
  C   C63       1.0  0.54155  0.47109  0.42206  1.0000
  C   C64       1.0  0.51746  0.0767  0.53506  1.0000
  C   C65       1.0  0.43090999999999996  0.13589999999999994  0.55198  1.0000
  C   C66       1.0  0.6087499999999999  0.47984  0.34988  1.0000
  C   C67       1.0  0.4780999999999999  0.4044599999999999  0.44835  1.0000
  C   C68       1.0  0.42869  0.16733999999999993  0.91269  1.0000
  C   C69       1.0  0.41147999999999996  0.24253  0.9435300000000001  1.0000
  C   C70       1.0  0.45982  0.48941999999999997  0.55185  1.0000
  C   C71       1.0  0.43159  0.4148099999999999  0.52264  1.0000
  C   C72       1.0  0.4187499999999999  0.52097  0.62573  1.0000
  S   S1        1.0  0.9172599999999997  0.29628  0.9787900000000002  1.0000
  S   S2        1.0  0.00273  0.39619  0.47514  1.0000
  S   S3        1.0  0.04368  0.9533799999999999  0.98812  1.0000
  S   S4        1.0  0.08274  0.70372  0.47878000000000004  1.0000
  S   S5        1.0  0.9972699999999999  0.60382  0.9751400000000001  1.0000
  S   S6        1.0  0.95632  0.04662  0.48812000000000005  1.0000
  S   S7        1.0  0.58273  0.79628  0.9787900000000002  1.0000
  S   S8        1.0  0.49727  0.8961899999999998  0.47514  1.0000
  S   S9        1.0  0.45631999999999995  0.45338  0.98812  1.0000
  S   S10       1.0  0.41726  0.20372  0.47878000000000004  1.0000
  S   S11       1.0  0.50273  0.10382  0.9751400000000001  1.0000
  S   S12       1.0  0.54368  0.54662  0.48812000000000005  1.0000
  O   O1        1.0  0.10928  0.07853  0.8031  1.0000
  O   O2        1.0  0.9389499999999997  0.90577  0.1404  1.0000
  O   O3        1.0  0.04916  0.24863999999999997  0.8297  1.0000
  O   O4        1.0  0.7867399999999999  0.29369999999999996  0.1292  1.0000
  O   O5        1.0  0.05471  0.2811799999999999  0.66696  1.0000
  O   O6        1.0  0.11311999999999998  0.37287  0.8034900000000001  1.0000
  O   O7        1.0  0.08807  0.4101599999999999  0.63947  1.0000
  O   O8        1.0  0.8946599999999999  0.43611  0.32471  1.0000
  O   O9        1.0  0.8186599999999999  0.3129  0.29895000000000005  1.0000
  O   O10       1.0  0.84243  0.4158099999999999  0.16593  1.0000
  O   O11       1.0  0.16890999999999998  0.9561399999999999  0.8370100000000001  1.0000
  O   O12       1.0  0.8621  0.02784  0.16985  1.0000
  O   O13       1.0  0.8907199999999997  0.92147  0.3031000000000001  1.0000
  O   O14       1.0  0.06105  0.09423  0.6404  1.0000
  O   O15       1.0  0.9508399999999999  0.75137  0.3297  1.0000
  O   O16       1.0  0.21325999999999998  0.7063  0.62921  1.0000
  O   O17       1.0  0.9452899999999999  0.71882  0.16696  1.0000
  O   O18       1.0  0.8868699999999998  0.62713  0.30349  1.0000
  O   O19       1.0  0.91193  0.58984  0.13947  1.0000
  O   O20       1.0  0.10532999999999998  0.5638899999999998  0.82471  1.0000
  O   O21       1.0  0.18134  0.6870999999999999  0.79895  1.0000
  O   O22       1.0  0.15756999999999996  0.5841899999999999  0.66593  1.0000
  O   O23       1.0  0.8310899999999999  0.04385999999999999  0.33701  1.0000
  O   O24       1.0  0.13788999999999998  0.97216  0.66985  1.0000
  O   O25       1.0  0.39072  0.57853  0.8031  1.0000
  O   O26       1.0  0.56105  0.40577  0.1404  1.0000
  O   O27       1.0  0.45084  0.74864  0.8297  1.0000
  O   O28       1.0  0.71326  0.7937  0.1292  1.0000
  O   O29       1.0  0.44528999999999996  0.7811799999999999  0.66696  1.0000
  O   O30       1.0  0.38688  0.87287  0.8034900000000001  1.0000
  O   O31       1.0  0.41192999999999996  0.91016  0.63947  1.0000
  O   O32       1.0  0.60533  0.93611  0.32471  1.0000
  O   O33       1.0  0.68134  0.8129  0.29895000000000005  1.0000
  O   O34       1.0  0.65757  0.91581  0.16593  1.0000
  O   O35       1.0  0.33109  0.45614  0.8370100000000001  1.0000
  O   O36       1.0  0.63789  0.52784  0.16985  1.0000
  O   O37       1.0  0.60928  0.42146999999999996  0.3031000000000001  1.0000
  O   O38       1.0  0.43895  0.59423  0.6404  1.0000
  O   O39       1.0  0.5491599999999999  0.25137  0.3297  1.0000
  O   O40       1.0  0.28674  0.20629999999999996  0.62921  1.0000
  O   O41       1.0  0.5547  0.21882  0.16696  1.0000
  O   O42       1.0  0.6131199999999999  0.12713  0.30349  1.0000
  O   O43       1.0  0.58806  0.08984  0.13947  1.0000
  O   O44       1.0  0.39467  0.06388999999999999  0.82471  1.0000
  O   O45       1.0  0.31866  0.1871  0.79895  1.0000
  O   O46       1.0  0.34242999999999996  0.08419  0.66593  1.0000
  O   O47       1.0  0.66891  0.54386  0.33701  1.0000
  O   O48       1.0  0.36211  0.4721599999999999  0.66985  1.0000
