data_image0
_chemical_formula_structural       K2Co4Cu4Si2H40W20C48N16O68
_chemical_formula_sum              "K2 Co4 Cu4 Si2 H40 W20 C48 N16 O68"
_cell_length_a       10.71851
_cell_length_b       13.38793
_cell_length_c       22.48198
_cell_angle_alpha    96.89503
_cell_angle_beta     90.24831999999999
_cell_angle_gamma    113.81365

_space_group_name_H-M_alt    "P 1"
_space_group_IT_number       1

loop_
  _space_group_symop_operation_xyz
  'x, y, z'

loop_
  _atom_site_type_symbol
  _atom_site_label
  _atom_site_symmetry_multiplicity
  _atom_site_fract_x
  _atom_site_fract_y
  _atom_site_fract_z
  _atom_site_occupancy
  K   K1        1.0  0.35161999999999993  0.04190999999999993  0.7511699999999999  1.0000
  K   K2        1.0  0.6697799999999998  0.9937399999999997  0.25581  1.0000
  Co  Co1       1.0  0.12195999999999999  0.18417  0.71498  1.0000
  Co  Co2       1.0  0.71524  0.1924299999999999  0.7207799999999999  1.0000
  Co  Co3       1.0  0.89045  0.83248  0.28898  1.0000
  Co  Co4       1.0  0.3150899999999998  0.8557399999999997  0.28785  1.0000
  Cu  Cu1       1.0  0.39389  0.1321  0.96334  1.0000
  Cu  Cu2       1.0  0.26049999999999995  0.8719899999999999  0.53023  1.0000
  Cu  Cu3       1.0  0.58777  0.86465  0.03137  1.0000
  Cu  Cu4       1.0  0.74026  0.13724  0.46997  1.0000
  Si  Si1       1.0  0.8372400000000001  0.015150000000000014  0.74977  1.0000
  Si  Si2       1.0  0.17197  0.99929  0.2522  1.0000
  H   H1        1.0  0.63071  0.33537999999999996  0.9189199999999998  1.0000
  H   H2        1.0  0.6459  0.52112  0.08737  1.0000
  H   H3        1.0  0.42404000000000003  0.3174  0.07951  1.0000
  H   H4        1.0  0.74232  0.67061  0.030039999999999997  1.0000
  H   H5        1.0  0.8683899999999999  0.43287999999999993  0.93078  1.0000
  H   H6        1.0  0.10915999999999998  0.94065  0.9715  1.0000
  H   H7        1.0  0.28845000000000004  0.71417  0.92139  1.0000
  H   H8        1.0  0.48295999999999994  0.9273699999999999  0.92427  1.0000
  H   H9        1.0  0.9570399999999999  0.8194399999999997  0.01102  1.0000
  H   H10       1.0  0.07839  0.58397  0.90648  1.0000
  H   H11       1.0  0.29851999999999995  0.6715599999999999  0.5779  1.0000
  H   H12       1.0  0.09533  0.47295  0.41582  1.0000
  H   H13       1.0  0.08675999999999993  0.6782099999999999  0.42049  1.0000
  H   H14       1.0  0.06058999999999996  0.32942999999999995  0.46876999999999996  1.0000
  H   H15       1.0  0.4305199999999999  0.5689599999999999  0.56586  1.0000
  H   H16       1.0  0.16328  0.06251  0.52778  1.0000
  H   H17       1.0  0.5754  0.29229  0.56487  1.0000
  H   H18       1.0  0.56063  0.08136  0.56055  1.0000
  H   H19       1.0  0.13137  0.18261  0.48512  1.0000
  H   H20       1.0  0.49396  0.42073  0.58814  1.0000
  H   H21       1.0  0.34646  0.66649  0.07603  1.0000
  H   H22       1.0  0.35763  0.4664899999999999  0.91636  1.0000
  H   H23       1.0  0.5671099999999998  0.6750999999999998  0.9203299999999999  1.0000
  H   H24       1.0  0.24321999999999996  0.32303999999999994  0.96583  1.0000
  H   H25       1.0  0.12322999999999992  0.5591299999999999  0.07146  1.0000
  H   H26       1.0  0.8738899999999998  0.05329  0.02448  1.0000
  H   H27       1.0  0.6993500000000001  0.2836699999999999  0.07116  1.0000
  H   H28       1.0  0.49896  0.07132  0.06478  1.0000
  H   H29       1.0  0.02599999999999998  0.17556999999999998  0.98231  1.0000
  H   H30       1.0  0.91297  0.4097899999999998  0.09363  1.0000
  H   H31       1.0  0.7037699999999999  0.34079999999999994  0.42477  1.0000
  H   H32       1.0  0.8832000000000001  0.52703  0.59279  1.0000
  H   H33       1.0  0.9024299999999998  0.3255199999999999  0.58409  1.0000
  H   H34       1.0  0.9261000000000001  0.6772399999999997  0.54053  1.0000
  H   H35       1.0  0.56967  0.4382399999999999  0.43456  1.0000
  H   H36       1.0  0.8316399999999998  0.9452499999999999  0.47669  1.0000
  H   H37       1.0  0.42311999999999994  0.71556  0.43006  1.0000
  H   H38       1.0  0.44015000000000004  0.92643  0.43021999999999994  1.0000
  H   H39       1.0  0.8574599999999998  0.8241599999999998  0.52162  1.0000
  H   H40       1.0  0.50869  0.5881  0.41052  1.0000
  W   W1        1.0  0.9846799999999998  0.2709399999999999  0.8004999999999999  1.0000
  W   W2        1.0  0.7919300000000001  0.91798  0.8919999999999999  1.0000
  W   W3        1.0  0.11355999999999995  0.09001999999999995  0.85403  1.0000
  W   W4        1.0  0.67156  0.13573  0.85573  1.0000
  W   W5        1.0  0.9606599999999998  0.81366  0.78824  1.0000
  W   W6        1.0  0.5506699999999998  0.8392999999999998  0.77128  1.0000
  W   W7        1.0  0.7445199999999998  0.6931699999999998  0.6944  1.0000
  W   W8        1.0  0.8932500000000001  0.10412  0.60706  1.0000
  W   W9        1.0  0.03280999999999985  0.9323099999999998  0.64306  1.0000
  W   W10       1.0  0.54133  0.92256  0.64101  1.0000
  W   W11       1.0  0.009919999999999958  0.7186999999999999  0.16594  1.0000
  W   W12       1.0  0.19696  0.07370999999999998  0.10836  1.0000
  W   W13       1.0  0.87502  0.92031  0.14591  1.0000
  W   W14       1.0  0.3500699999999998  0.8876299999999998  0.15685  1.0000
  W   W15       1.0  0.040199999999999986  0.18462999999999996  0.20967  1.0000
  W   W16       1.0  0.4940699999999999  0.18741999999999998  0.21966  1.0000
  W   W17       1.0  0.31639  0.2766899999999999  0.31959  1.0000
  W   W18       1.0  0.10928999999999979  0.9038099999999997  0.39442  1.0000
  W   W19       1.0  0.96964  0.07572  0.35894  1.0000
  W   W20       1.0  0.4567  0.111  0.36213  1.0000
  C   C1        1.0  0.6025999999999999  0.35638999999999993  0.9632699999999998  1.0000
  C   C2        1.0  0.60659  0.4531999999999999  0.051430000000000003  1.0000
  C   C3        1.0  0.49904  0.35179  0.04723  1.0000
  C   C4        1.0  0.79215  0.54215  0.98231  1.0000
  C   C5        1.0  0.81608  0.65095  0.00361  1.0000
  C   C6        1.0  0.8862900000000001  0.51772  0.94723  1.0000
  C   C7        1.0  0.18520999999999999  0.90901  0.95988  1.0000
  C   C8        1.0  0.28015999999999996  0.7920399999999997  0.93169  1.0000
  C   C9        1.0  0.37645999999999996  0.89799  0.93429  1.0000
  C   C10       1.0  0.0328799999999999  0.7120599999999998  0.9576099999999999  1.0000
  C   C11       1.0  0.93724  0.73575  0.9918999999999998  1.0000
  C   C12       1.0  0.006140000000000021  0.60331  0.93418  1.0000
  C   C13       1.0  0.24318999999999993  0.6470099999999999  0.53456  1.0000
  C   C14       1.0  0.1343199999999999  0.5444099999999998  0.4496899999999999  1.0000
  C   C15       1.0  0.13175999999999993  0.6464199999999999  0.45253  1.0000
  C   C16       1.0  0.24108  0.4592399999999999  0.51622  1.0000
  C   C17       1.0  0.15623  0.35039  0.49421  1.0000
  C   C18       1.0  0.36254999999999993  0.48420999999999986  0.54979  1.0000
  C   C19       1.0  0.27255  0.09507000000000002  0.53674  1.0000
  C   C20       1.0  0.48874  0.21384999999999996  0.55722  1.0000
  C   C21       1.0  0.47992  0.10851999999999998  0.55457  1.0000
  C   C22       1.0  0.3166  0.29125999999999996  0.53768  1.0000
  C   C23       1.0  0.19511000000000003  0.26653  0.5043  1.0000
  C   C24       1.0  0.39972  0.3997099999999999  0.56141  1.0000
  C   C25       1.0  0.37958  0.64164  0.03361  1.0000
  C   C26       1.0  0.38828999999999997  0.5383199999999999  0.9498799999999997  1.0000
  C   C27       1.0  0.49081  0.64181  0.95227  1.0000
  C   C28       1.0  0.19759  0.45152  0.01693  1.0000
  C   C29       1.0  0.17107999999999998  0.34316999999999986  0.99319  1.0000
  C   C30       1.0  0.10463999999999996  0.47505  0.05326  1.0000
  C   C31       1.0  0.79794  0.08561  0.03498  1.0000
  C   C32       1.0  0.70523  0.20481999999999997  0.06112999999999999  1.0000
  C   C33       1.0  0.60656  0.09936  0.05693  1.0000
  C   C34       1.0  0.95445  0.28199  0.03915  1.0000
  C   C35       1.0  0.04838999999999997  0.25858999999999993  0.00355  1.0000
  C   C36       1.0  0.98359  0.38968  0.06519  1.0000
  C   C37       1.0  0.75651  0.3628499999999999  0.46858  1.0000
  C   C38       1.0  0.85391  0.45986  0.55644  1.0000
  C   C39       1.0  0.8604  0.35913  0.55183  1.0000
  C   C40       1.0  0.75225  0.54783  0.48888  1.0000
  C   C41       1.0  0.83376  0.6564899999999998  0.51262  1.0000
  C   C42       1.0  0.63484  0.52301  0.4522999999999999  1.0000
  C   C43       1.0  0.7235799999999999  0.9127599999999999  0.46458999999999995  1.0000
  C   C44       1.0  0.50981  0.79393  0.43866  1.0000
  C   C45       1.0  0.5193199999999999  0.8993199999999999  0.43981  1.0000
  C   C46       1.0  0.6790699999999998  0.7163199999999997  0.4645599999999999  1.0000
  C   C47       1.0  0.7962299999999999  0.7405099999999998  0.50109  1.0000
  C   C48       1.0  0.5993299999999999  0.6078199999999999  0.43947  1.0000
  N   N1        1.0  0.49842  0.2920199999999999  0.9922499999999999  1.0000
  N   N2        1.0  0.6716899999999999  0.4550299999999999  0.99784  1.0000
  N   N3        1.0  0.31581  0.9698099999999997  0.9522899999999999  1.0000
  N   N4        1.0  0.15892  0.79979  0.94841  1.0000
  N   N5        1.0  0.20071  0.70976  0.50542  1.0000
  N   N6        1.0  0.20565  0.54578  0.50192  1.0000
  N   N7        1.0  0.34475  0.03542999999999999  0.54176  1.0000
  N   N8        1.0  0.35642  0.20427999999999993  0.54546  1.0000
  N   N9        1.0  0.48392  0.70551  0.00454  1.0000
  N   N10       1.0  0.31797999999999993  0.5390899999999998  0.0017899999999999997  1.0000
  N   N11       1.0  0.66575  0.026019999999999998  0.04031  1.0000
  N   N12       1.0  0.82643  0.19517  0.04679  1.0000
  N   N13       1.0  0.79859  0.29905999999999994  0.49704999999999994  1.0000
  N   N14       1.0  0.78749  0.4613099999999999  0.50338  1.0000
  N   N15       1.0  0.65309  0.97262  0.45619  1.0000
  N   N16       1.0  0.6402899999999998  0.8033299999999999  0.45474  1.0000
  O   O1        1.0  0.8175500000000001  0.25751999999999997  0.8785699999999999  1.0000
  O   O2        1.0  0.88127  0.32199  0.76188  1.0000
  O   O3        1.0  0.6199799999999999  0.8132999999999999  0.83943  1.0000
  O   O4        1.0  0.60489  0.17467  0.79163  1.0000
  O   O5        1.0  0.1438  0.32366  0.76712  1.0000
  O   O6        1.0  0.8562799999999998  0.8036599999999998  0.85441  1.0000
  O   O7        1.0  0.17813  0.05632999999999999  0.66406  1.0000
  O   O8        1.0  0.72463  0.026000000000000006  0.88669  1.0000
  O   O9        1.0  0.8957100000000001  0.9739  0.80379  1.0000
  O   O10       1.0  0.18720999999999996  0.13632999999999992  0.7857099999999999  1.0000
  O   O11       1.0  0.9660500000000001  0.01196999999999998  0.9164899999999999  1.0000
  O   O12       1.0  0.5100999999999999  0.9477999999999998  0.80337  1.0000
  O   O13       1.0  0.8068500000000001  0.12054  0.77997  1.0000
  O   O14       1.0  0.02626999999999999  0.19095999999999996  0.85814  1.0000
  O   O15       1.0  0.55063  0.1352  0.90768  1.0000
  O   O16       1.0  0.73316  0.86581  0.95798  1.0000
  O   O17       1.0  0.24852999999999995  0.15353999999999998  0.90816  1.0000
  O   O18       1.0  0.68479  0.5667699999999999  0.64923  1.0000
  O   O19       1.0  0.60071  0.70816  0.7289  1.0000
  O   O20       1.0  0.8015399999999999  0.17368999999999998  0.64906  1.0000
  O   O21       1.0  0.45096999999999987  0.8128999999999998  0.6898  1.0000
  O   O22       1.0  0.8741499999999999  0.6713799999999998  0.7474499999999998  1.0000
  O   O23       1.0  0.06266  0.20011  0.63155  1.0000
  O   O24       1.0  0.11170999999999982  0.9484699999999998  0.8365699999999999  1.0000
  O   O25       1.0  0.70304  0.9608999999999998  0.60626  1.0000
  O   O26       1.0  0.9337999999999999  0.04107999999999998  0.6941199999999998  1.0000
  O   O27       1.0  0.04223999999999985  0.8781999999999998  0.72163  1.0000
  O   O28       1.0  0.9523799999999999  0.9792599999999998  0.58526  1.0000
  O   O29       1.0  0.54264  0.04805000000000001  0.67595  1.0000
  O   O30       1.0  0.6872200000000002  0.9244200000000001  0.72003  1.0000
  O   O31       1.0  0.82831  0.7963599999999997  0.64715  1.0000
  O   O32       1.0  0.41924000000000006  0.87471  0.58001  1.0000
  O   O33       1.0  0.87451  0.1294  0.53305  1.0000
  O   O34       1.0  0.09891999999999992  0.8523799999999999  0.5986  1.0000
  O   O35       1.0  0.1867999999999999  0.7471499999999999  0.13976  1.0000
  O   O36       1.0  0.91775  0.58514  0.13361  1.0000
  O   O37       1.0  0.36234  0.16682  0.15792  1.0000
  O   O38       1.0  0.4071299999999999  0.8329199999999998  0.21675999999999998  1.0000
  O   O39       1.0  0.95677  0.7242899999999998  0.24070999999999998  1.0000
  O   O40       1.0  0.1302  0.19035999999999997  0.13974  1.0000
  O   O41       1.0  0.8238899999999999  0.95142  0.33623  1.0000
  O   O42       1.0  0.24989999999999993  0.9587799999999997  0.11262  1.0000
  O   O43       1.0  0.09941  0.028639999999999995  0.19675  1.0000
  O   O44       1.0  0.8253099999999999  0.86852  0.21643  1.0000
  O   O45       1.0  0.01258  0.98439  0.08588  1.0000
  O   O46       1.0  0.46848000000000006  0.04024  0.18776  1.0000
  O   O47       1.0  0.2051199999999999  0.8942999999999998  0.22602  1.0000
  O   O48       1.0  0.9483900000000001  0.80292  0.12848  1.0000
  O   O49       1.0  0.44221000000000005  0.86333  0.09818  1.0000
  O   O50       1.0  0.25655  0.12118999999999999  0.04133  1.0000
  O   O51       1.0  0.7265799999999999  0.8547299999999998  0.1007  1.0000
  O   O52       1.0  0.44448  0.25540999999999997  0.36922999999999995  1.0000
  O   O53       1.0  0.45674999999999993  0.30239  0.2569  1.0000
  O   O54       1.0  0.1995899999999999  0.8331  0.35134  1.0000
  O   O55       1.0  0.57638  0.17736  0.28841  1.0000
  O   O56       1.0  0.19943  0.27925  0.25573  1.0000
  O   O57       1.0  0.9388199999999999  0.8079399999999997  0.36922  1.0000
  O   O58       1.0  0.87591  0.06074  0.16691  1.0000
  O   O59       1.0  0.29986999999999997  0.04318999999999996  0.39851999999999993  1.0000
  O   O60       1.0  0.07331999999999993  0.9720499999999999  0.30837  1.0000
  O   O61       1.0  0.9668900000000001  0.13037  0.28009  1.0000
  O   O62       1.0  0.044589999999999984  0.025159999999999978  0.41724  1.0000
  O   O63       1.0  0.46207999999999994  0.98519  0.32421  1.0000
  O   O64       1.0  0.31281  0.10235999999999999  0.28043  1.0000
  O   O65       1.0  0.17091  0.20787  0.35994999999999994  1.0000
  O   O66       1.0  0.58843  0.14642999999999998  0.41702  1.0000
  O   O67       1.0  0.12503999999999987  0.8746199999999997  0.46751  1.0000
  O   O68       1.0  0.9020499999999999  0.15673999999999993  0.40146999999999994  1.0000
