data_image0
_chemical_formula_structural       Ni4H60C80N8O18
_chemical_formula_sum              "Ni4 H60 C80 N8 O18"
_cell_length_a       13.98792
_cell_length_b       13.98729
_cell_length_c       18.03242
_cell_angle_alpha    103.33160999999998
_cell_angle_beta     103.33907
_cell_angle_gamma    113.46105

_symmetry_space_group_name_H-M    'P 1'
_symmetry_Int_Tables_number       1

loop_
  _symmetry_equiv_pos_as_xyz
  'x,y,z'

loop_
  _atom_site_type_symbol
  _atom_site_label
  _atom_site_symmetry_multiplicity
  _atom_site_fract_x
  _atom_site_fract_y
  _atom_site_fract_z
  _atom_site_occupancy
  Ni  Ni1       1.0  0.18380999999999997  0.7078499999999999  0.17245  1.0000
  Ni  Ni2       1.0  0.98644  0.46433  0.1727  1.0000
  Ni  Ni3       1.0  0.95897  0.9355199999999999  0.67274  1.0000
  Ni  Ni4       1.0  0.7138700000000002  0.7357799999999999  0.67275  1.0000
  H   H1        1.0  0.08354000000000002  0.6480299999999998  0.28735  1.0000
  H   H2        1.0  0.33672  0.9509  0.2614  1.0000
  H   H3        1.0  0.3361800000000001  0.12223000000000002  0.34073  1.0000
  H   H4        1.0  0.9887200000000003  0.91397  0.29839  1.0000
  H   H5        1.0  0.0038099999999999293  0.7516799999999998  0.21955  1.0000
  H   H6        1.0  0.06943999999999997  0.10958999999999999  0.36846  1.0000
  H   H7        1.0  0.3028300000000001  0.17184999999999997  0.47791  1.0000
  H   H8        1.0  0.12135  0.25305  0.56761  1.0000
  H   H9        1.0  0.01446000000000001  0.14650000000000002  0.64132  1.0000
  H   H10       1.0  0.08077  0.88638  0.56336  1.0000
  H   H11       1.0  0.19288000000000002  0.9811499999999997  0.48719  1.0000
  H   H12       1.0  0.7119200000000002  0.46043  0.02311  1.0000
  H   H13       1.0  0.55817  0.43687  0.90481  1.0000
  H   H14       1.0  0.60614  0.53978  0.81109  1.0000
  H   H15       1.0  0.9546800000000001  0.69016  0.95454  1.0000
  H   H16       1.0  0.19799999999999998  0.63709  0.28803  1.0000
  H   H17       1.0  0.9231600000000001  0.31076  0.26166  1.0000
  H   H18       1.0  0.005530000000000011  0.22057  0.3413400000000001  1.0000
  H   H19       1.0  0.30830000000000013  0.38905  0.29602  1.0000
  H   H20       1.0  0.21237  0.4715699999999999  0.21786  1.0000
  H   H21       1.0  0.29927  0.26184  0.36634  1.0000
  H   H22       1.0  0.17794000000000001  0.31043999999999994  0.47841  1.0000
  H   H23       1.0  0.44758  0.31664  0.56581  1.0000
  H   H24       1.0  0.6275100000000002  0.49519  0.64012  1.0000
  H   H25       1.0  0.48500000000000004  0.6804  0.56484  1.0000
  H   H26       1.0  0.2979700000000001  0.5109  0.48709  1.0000
  H   H27       1.0  0.3077  0.55899  0.02376  1.0000
  H   H28       1.0  0.34297  0.46499  0.90436  1.0000
  H   H29       1.0  0.20137  0.26920000000000005  0.8117  1.0000
  H   H30       1.0  0.9987800000000002  0.26127  0.95837  1.0000
  H   H31       1.0  0.89747  0.83383  0.78733  1.0000
  H   H32       1.0  0.20191000000000006  0.08785  0.76199  1.0000
  H   H33       1.0  0.3730400000000001  0.08705  0.84128  1.0000
  H   H34       1.0  0.1643200000000002  0.7395000000000003  0.7985500000000002  1.0000
  H   H35       1.0  0.0021999999999999637  0.7549  0.71974  1.0000
  H   H36       1.0  0.35972000000000004  0.8198499999999999  0.86864  1.0000
  H   H37       1.0  0.4222700000000001  0.05323000000000001  0.9783100000000001  1.0000
  H   H38       1.0  0.5026500000000003  0.87113  0.0679  1.0000
  H   H39       1.0  0.39536000000000004  0.76407  0.14119  1.0000
  H   H40       1.0  0.13574  0.83087  0.06268  1.0000
  H   H41       1.0  0.23139000000000004  0.94326  0.98702  1.0000
  H   H42       1.0  0.7104600000000001  0.4626700000000001  0.5228500000000001  1.0000
  H   H43       1.0  0.6873900000000001  0.30893  0.40488000000000013  1.0000
  H   H44       1.0  0.79091  0.35708  0.31141000000000013  1.0000
  H   H45       1.0  0.94095  0.70556  0.45469  1.0000
  H   H46       1.0  0.88599  0.94773  0.7869  1.0000
  H   H47       1.0  0.56  0.67237  0.76203  1.0000
  H   H48       1.0  0.47035  0.75545  0.84186  1.0000
  H   H49       1.0  0.6393900000000002  0.05769999999999999  0.79613  1.0000
  H   H50       1.0  0.72121  0.96106  0.71783  1.0000
  H   H51       1.0  0.5125200000000001  0.04945000000000002  0.86654  1.0000
  H   H52       1.0  0.5608500000000002  0.9283600000000001  0.9788900000000001  1.0000
  H   H53       1.0  0.56717  0.19825  0.06622  1.0000
  H   H54       1.0  0.7459999999999999  0.37784  0.14069  1.0000
  H   H55       1.0  0.93063  0.23487  0.06504000000000003  1.0000
  H   H56       1.0  0.76087  0.04813999999999999  0.9871  1.0000
  H   H57       1.0  0.80906  0.05795999999999998  0.52346  1.0000
  H   H58       1.0  0.7150600000000003  0.09292  0.40412  1.0000
  H   H59       1.0  0.51918  0.95181  0.31161  1.0000
  H   H60       1.0  0.5108900000000001  0.74975  0.45888  1.0000
  C   C1        1.0  0.2612400000000001  0.9478700000000001  0.26994  1.0000
  C   C2        1.0  0.25983  0.04236  0.31427  1.0000
  C   C3        1.0  0.16073000000000004  0.03296  0.32502  1.0000
  C   C4        1.0  0.06709999999999985  0.9266099999999998  0.29035  1.0000
  C   C5        1.0  0.07469  0.8356  0.24639  1.0000
  C   C6        1.0  0.15639000000000003  0.13041  0.37632  1.0000
  C   C7        1.0  0.22612000000000007  0.17905000000000001  0.4706800000000001  1.0000
  C   C8        1.0  0.1670600000000001  0.12613000000000008  0.5211500000000002  1.0000
  C   C9        1.0  0.11534000000000004  0.17223  0.56485  1.0000
  C   C10       1.0  0.05527000000000004  0.11392000000000001  0.60589  1.0000
  C   C11       1.0  0.09366999999999995  0.9682099999999999  0.56291  1.0000
  C   C12       1.0  0.15544  0.021589999999999988  0.52083  1.0000
  C   C13       1.0  0.8425500000000001  0.57597  0.9961800000000001  1.0000
  C   C14       1.0  0.7303300000000003  0.50481  0.98177  1.0000
  C   C15       1.0  0.6450800000000002  0.49179  0.91558  1.0000
  C   C16       1.0  0.6712600000000003  0.5495400000000001  0.86336  1.0000
  C   C17       1.0  0.7830000000000003  0.62228  0.87742  1.0000
  C   C18       1.0  0.8680900000000001  0.63473  0.94388  1.0000
  C   C19       1.0  0.9337300000000002  0.5884100000000001  0.06751000000000003  1.0000
  C   C20       1.0  0.8087000000000002  0.68728  0.82199  1.0000
  C   C21       1.0  0.0073100000000000075  0.3234  0.26964  1.0000
  C   C22       1.0  0.05448000000000006  0.2741700000000001  0.31419000000000014  1.0000
  C   C23       1.0  0.16437  0.2953999999999999  0.32426  1.0000
  C   C24       1.0  0.22195000000000006  0.3674  0.28876  1.0000
  C   C25       1.0  0.16913  0.41381  0.24492  1.0000
  C   C26       1.0  0.22105999999999998  0.24976999999999994  0.3756  1.0000
  C   C27       1.0  0.24710000000000001  0.29589999999999994  0.47035  1.0000
  C   C28       1.0  0.3564600000000001  0.39853  0.52026  1.0000
  C   C29       1.0  0.4511500000000002  0.3950300000000001  0.5636200000000002  1.0000
  C   C30       1.0  0.55196  0.49358999999999986  0.60512  1.0000
  C   C31       1.0  0.4717600000000001  0.59787  0.56352  1.0000
  C   C32       1.0  0.36831000000000025  0.50315  0.5206500000000002  1.0000
  C   C33       1.0  0.15131000000000003  0.41667000000000004  0.9979200000000001  1.0000
  C   C34       1.0  0.24866999999999995  0.47352  0.98275  1.0000
  C   C35       1.0  0.26757  0.4209  0.91618  1.0000
  C   C36       1.0  0.18941000000000002  0.31143  0.86463  1.0000
  C   C37       1.0  0.09254000000000001  0.25231  0.87966  1.0000
  C   C38       1.0  0.0740000000000001  0.30575  0.9465900000000003  1.0000
  C   C39       1.0  0.13183999999999998  0.47707999999999995  0.06885  1.0000
  C   C40       1.0  0.012570000000000048  0.13247000000000006  0.8236600000000001  1.0000
  C   C41       1.0  0.19873000000000005  0.012249999999999992  0.77037  1.0000
  C   C42       1.0  0.2931300000000001  0.010710000000000011  0.81471  1.0000
  C   C43       1.0  0.28352  0.91146  0.82529  1.0000
  C   C44       1.0  0.17709000000000003  0.81794  0.79057  1.0000
  C   C45       1.0  0.08618000000000002  0.82569  0.74662  1.0000
  C   C46       1.0  0.38077000000000005  0.90686  0.87658  1.0000
  C   C47       1.0  0.42935  0.97645  0.97097  1.0000
  C   C48       1.0  0.3760899999999999  0.9171699999999999  0.021230000000000006  1.0000
  C   C49       1.0  0.42178000000000004  0.8651599999999999  0.06489  1.0000
  C   C50       1.0  0.36297999999999997  0.8048799999999999  0.10564  1.0000
  C   C51       1.0  0.21757000000000004  0.8435199999999999  0.0624  1.0000
  C   C52       1.0  0.27146  0.90553  0.02062  1.0000
  C   C53       1.0  0.8264800000000001  0.59341  0.49628  1.0000
  C   C54       1.0  0.7551000000000002  0.48114  0.4816800000000001  1.0000
  C   C55       1.0  0.7423000000000002  0.39585  0.41562  1.0000
  C   C56       1.0  0.80033  0.42209  0.36358  1.0000
  C   C57       1.0  0.8728900000000003  0.5338399999999998  0.3776  1.0000
  C   C58       1.0  0.88539  0.61899  0.44406  1.0000
  C   C59       1.0  0.8391800000000003  0.68458  0.56784  1.0000
  C   C60       1.0  0.93757  0.55922  0.32195  1.0000
  C   C61       1.0  0.5728599999999999  0.7565799999999999  0.76998  1.0000
  C   C62       1.0  0.5239500000000002  0.80413  0.81459  1.0000
  C   C63       1.0  0.54548  0.9140899999999998  0.82456  1.0000
  C   C64       1.0  0.6174900000000002  0.9713199999999997  0.78893  1.0000
  C   C65       1.0  0.66351  0.9180999999999999  0.74501  1.0000
  C   C66       1.0  0.50017  0.9712300000000001  0.8758900000000002  1.0000
  C   C67       1.0  0.5462100000000001  0.9973999999999998  0.97068  1.0000
  C   C68       1.0  0.64879  0.10681999999999997  0.020510000000000007  1.0000
  C   C69       1.0  0.64545  0.20158  0.06395000000000002  1.0000
  C   C70       1.0  0.7441700000000001  0.30222  0.10557  1.0000
  C   C71       1.0  0.84817  0.22181  0.06377  1.0000
  C   C72       1.0  0.7533100000000001  0.11853  0.02078  1.0000
  C   C73       1.0  0.6667100000000001  0.9020699999999999  0.49829999999999997  1.0000
  C   C74       1.0  0.7235000000000003  0.99898  0.48264  1.0000
  C   C75       1.0  0.67078  0.017629999999999982  0.41598  1.0000
  C   C76       1.0  0.56121  0.93962  0.36452  1.0000
  C   C77       1.0  0.5022600000000002  0.8430499999999999  0.3799700000000001  1.0000
  C   C78       1.0  0.55576  0.82484  0.44708  1.0000
  C   C79       1.0  0.7273700000000002  0.8833299999999998  0.56961  1.0000
  C   C80       1.0  0.38228999999999996  0.76279  0.3245  1.0000
  N   N1        1.0  0.17016000000000003  0.84599  0.23590000000000005  1.0000
  N   N2        1.0  0.04479999999999998  0.013739999999999971  0.60517  1.0000
  N   N3        1.0  0.06300999999999993  0.3917199999999999  0.23489  1.0000
  N   N4        1.0  0.5622900000000001  0.59364  0.60552  1.0000
  N   N5        1.0  0.09679000000000001  0.92127  0.73622  1.0000
  N   N6        1.0  0.26272  0.7944099999999998  0.10467000000000001  1.0000
  N   N7        1.0  0.6411300000000002  0.81194  0.7350700000000001  1.0000
  N   N8        1.0  0.84414  0.31236  0.10596  1.0000
  O   O1        1.0  0.03379999999999999  0.65351  0.07661  1.0000
  O   O2        1.0  0.9036800000000003  0.53474  0.11353  1.0000
  O   O3        1.0  0.9075200000000002  0.76422  0.84099  1.0000
  O   O4        1.0  0.7246300000000002  0.65944  0.75868  1.0000
  O   O5        1.0  0.03970000000000005  0.42484  0.07798  1.0000
  O   O6        1.0  0.20991000000000012  0.57524  0.11459  1.0000
  O   O7        1.0  0.9328400000000002  0.07277999999999997  0.84205  1.0000
  O   O8        1.0  0.034710000000000116  0.09987000000000011  0.7601500000000002  1.0000
  O   O9        1.0  0.9048200000000002  0.7846699999999999  0.57722  1.0000
  O   O10       1.0  0.7853000000000002  0.65442  0.61369  1.0000
  O   O11       1.0  0.01418999999999992  0.6580799999999999  0.34061  1.0000
  O   O12       1.0  0.9099699999999998  0.4750099999999999  0.25885  1.0000
  O   O13       1.0  0.6752500000000002  0.79186  0.57955  1.0000
  O   O14       1.0  0.82578  0.9615200000000002  0.61478  1.0000
  O   O15       1.0  0.3228900000000001  0.68453  0.34433000000000014  1.0000
  O   O16       1.0  0.34931  0.78311  0.2601600000000001  1.0000
  O   O17       1.0  0.12195000000000006  0.62253  0.24982000000000001  1.0000
  O   O18       1.0  0.8719400000000003  0.87157  0.74929  1.0000
