data_image0
_chemical_formula_structural       Co12H32C72O52
_chemical_formula_sum              "Co12 H32 C72 O52"
_cell_length_a       17.00273
_cell_length_b       16.94718
_cell_length_c       16.99631
_cell_angle_alpha    104.34283
_cell_angle_beta     115.83551
_cell_angle_gamma    108.59092

_space_group_name_H-M_alt    "P 1"
_space_group_IT_number       1

loop_
  _space_group_symop_operation_xyz
  'x, y, z'

loop_
  _atom_site_type_symbol
  _atom_site_label
  _atom_site_symmetry_multiplicity
  _atom_site_fract_x
  _atom_site_fract_y
  _atom_site_fract_z
  _atom_site_occupancy
  Co  Co1       1.0  0.9689800000000001  0.3914  0.09951  1.0000
  Co  Co2       1.0  0.87566  0.5178800000000002  0.05246  1.0000
  Co  Co3       1.0  0.09306000000000005  0.6621  0.24288000000000007  1.0000
  Co  Co4       1.0  0.7080000000000001  0.60842  0.5774  1.0000
  Co  Co5       1.0  0.53455  0.48221  0.35784000000000005  1.0000
  Co  Co6       1.0  0.57984  0.3371100000000001  0.4309000000000001  1.0000
  Co  Co7       1.0  0.46768  0.86748  0.0766  1.0000
  Co  Co8       1.0  0.37386000000000025  0.8211600000000004  0.8560500000000002  1.0000
  Co  Co9       1.0  0.5909400000000002  0.8484200000000003  0.9310200000000001  1.0000
  Co  Co10      1.0  0.20948000000000008  0.13284  0.6008200000000001  1.0000
  Co  Co11      1.0  0.03453999999999999  0.17849  0.5525  1.0000
  Co  Co12      1.0  0.08238000000000004  0.15175  0.74258  1.0000
  H   H1        1.0  0.7664500000000001  0.3909500000000001  0.7589300000000001  1.0000
  H   H2        1.0  0.010310000000000017  0.3303600000000001  0.85882  1.0000
  H   H3        1.0  0.95964  0.60146  0.6488800000000001  1.0000
  H   H4        1.0  0.85344  0.3009400000000001  0.56528  1.0000
  H   H5        1.0  0.8986600000000001  0.63332  0.8739000000000001  1.0000
  H   H6        1.0  0.21087  0.72038  0.06457  1.0000
  H   H7        1.0  0.09433000000000019  0.6834200000000004  0.7705100000000003  1.0000
  H   H8        1.0  0.05374  0.53727  0.11339000000000002  1.0000
  H   H9        1.0  0.3676600000000001  0.6085600000000002  0.3756000000000001  1.0000
  H   H10       1.0  0.5285700000000001  0.6699100000000002  0.68049  1.0000
  H   H11       1.0  0.04774000000000005  0.39892  0.3587900000000001  1.0000
  H   H12       1.0  0.2640100000000001  0.6982700000000002  0.55267  1.0000
  H   H13       1.0  0.24082000000000006  0.36723000000000006  0.26607000000000003  1.0000
  H   H14       1.0  0.3437600000000001  0.27934000000000003  0.4906300000000001  1.0000
  H   H15       1.0  0.0872  0.31676  0.4114500000000001  1.0000
  H   H16       1.0  0.57611  0.46281  0.51659  1.0000
  H   H17       1.0  0.2667600000000001  0.007770000000000121  0.8747300000000002  1.0000
  H   H18       1.0  0.5090800000000001  0.15051000000000006  0.18032000000000006  1.0000
  H   H19       1.0  0.46114000000000027  0.31186000000000025  0.8599000000000002  1.0000
  H   H20       1.0  0.35542  0.2896  0.05333  1.0000
  H   H21       1.0  0.3973500000000001  0.02407000000000011  0.7659000000000002  1.0000
  H   H22       1.0  0.7099700000000001  0.1443400000000002  0.9892400000000002  1.0000
  H   H23       1.0  0.5959  0.3238800000000001  0.91043  1.0000
  H   H24       1.0  0.55149  0.93928  0.01593  1.0000
  H   H25       1.0  0.8675400000000003  0.9921  0.2593  1.0000
  H   H26       1.0  0.029740000000000086  0.8492100000000004  0.3590300000000001  1.0000
  H   H27       1.0  0.54934  0.6888500000000002  0.14874  1.0000
  H   H28       1.0  0.7639200000000002  0.71028  0.06577  1.0000
  H   H29       1.0  0.7418000000000002  0.9757700000000004  0.3730500000000001  1.0000
  H   H30       1.0  0.8443800000000004  0.8556400000000004  0.5657800000000001  1.0000
  H   H31       1.0  0.5859600000000001  0.6760400000000002  0.27172  1.0000
  H   H32       1.0  0.07688000000000002  0.06097000000000005  0.61249  1.0000
  C   C1        1.0  0.7141  0.34306  0.57452  1.0000
  C   C2        1.0  0.8015600000000004  0.3462600000000001  0.6543800000000002  1.0000
  C   C3        1.0  0.8163200000000002  0.3709500000000001  0.7464900000000002  1.0000
  C   C4        1.0  0.9410700000000001  0.31517000000000006  0.7112200000000002  1.0000
  C   C5        1.0  0.95358  0.33721000000000007  0.8025500000000002  1.0000
  C   C6        1.0  0.8923500000000002  0.36633000000000004  0.8207200000000001  1.0000
  C   C7        1.0  0.9041300000000002  0.3885900000000001  0.9168000000000002  1.0000
  C   C8        1.0  0.86528  0.3201900000000001  0.63709  1.0000
  C   C9        1.0  0.98504  0.65543  0.81017  1.0000
  C   C10       1.0  0.9717999999999999  0.6530200000000003  0.88577  1.0000
  C   C11       1.0  0.05276000000000014  0.6744100000000001  0.9765900000000002  1.0000
  C   C12       1.0  0.14754  0.7009400000000002  0.99287  1.0000
  C   C13       1.0  0.16067000000000023  0.7019600000000004  0.9170800000000002  1.0000
  C   C14       1.0  0.0793200000000001  0.67859  0.8257800000000001  1.0000
  C   C15       1.0  0.8998200000000001  0.63434  0.7158600000000002  1.0000
  C   C16       1.0  0.03511000000000001  0.66275  0.05343000000000001  1.0000
  C   C17       1.0  0.0021100000000000493  0.27643000000000006  0.6923200000000002  1.0000
  C   C18       1.0  0.2618900000000003  0.7344300000000004  0.9339100000000002  1.0000
  C   C19       1.0  0.2312500000000001  0.65638  0.37111  1.0000
  C   C20       1.0  0.3078700000000001  0.6531700000000003  0.45542  1.0000
  C   C21       1.0  0.3754200000000001  0.6287500000000003  0.44559  1.0000
  C   C22       1.0  0.39585000000000004  0.6842700000000002  0.6260600000000002  1.0000
  C   C23       1.0  0.4653500000000002  0.6626300000000002  0.6166400000000002  1.0000
  C   C24       1.0  0.45436  0.63342  0.52622  1.0000
  C   C25       1.0  0.5281900000000003  0.6113800000000003  0.5155500000000001  1.0000
  C   C26       1.0  0.31663  0.6791800000000002  0.54524  1.0000
  C   C27       1.0  0.15489000000000006  0.3448500000000001  0.33014  1.0000
  C   C28       1.0  0.23299000000000003  0.3474400000000001  0.31948000000000004  1.0000
  C   C29       1.0  0.30223  0.3258000000000001  0.37881  1.0000
  C   C30       1.0  0.29179000000000005  0.29907  0.44690000000000013  1.0000
  C   C31       1.0  0.21505000000000007  0.2981000000000001  0.45906000000000013  1.0000
  C   C32       1.0  0.14726000000000009  0.3216200000000001  0.4012300000000001  1.0000
  C   C33       1.0  0.08157000000000003  0.3657600000000001  0.26588  1.0000
  C   C34       1.0  0.39049000000000006  0.33721  0.3725500000000001  1.0000
  C   C35       1.0  0.41590000000000016  0.7232900000000001  0.7259500000000002  1.0000
  C   C36       1.0  0.19939000000000007  0.26560000000000006  0.5277800000000001  1.0000
  C   C37       1.0  0.21589000000000014  0.1404000000000001  0.8704500000000002  1.0000
  C   C38       1.0  0.30275000000000013  0.14793000000000003  0.9553500000000001  1.0000
  C   C39       1.0  0.3166800000000001  0.06996000000000004  0.9451400000000001  1.0000
  C   C40       1.0  0.4416000000000001  0.23018000000000008  0.12657000000000002  1.0000
  C   C41       1.0  0.45318000000000014  0.15061  0.11664000000000002  1.0000
  C   C42       1.0  0.3918800000000001  0.07107000000000002  0.025820000000000006  1.0000
  C   C43       1.0  0.40262000000000003  0.9859000000000002  0.014570000000000003  1.0000
  C   C44       1.0  0.36662  0.22911  0.04558  1.0000
  C   C45       1.0  0.48531  0.17474  0.82984  1.0000
  C   C46       1.0  0.47100000000000003  0.08531999999999997  0.81895  1.0000
  C   C47       1.0  0.55174  0.0749  0.87781  1.0000
  C   C48       1.0  0.64712  0.15334000000000012  0.9456600000000002  1.0000
  C   C49       1.0  0.66129  0.2428100000000001  0.9578200000000002  1.0000
  C   C50       1.0  0.58021  0.2533200000000001  0.90057  1.0000
  C   C51       1.0  0.40062  0.18461999999999995  0.76618  1.0000
  C   C52       1.0  0.5332500000000001  0.97998  0.8717500000000002  1.0000
  C   C53       1.0  0.50197  0.30986000000000014  0.22690000000000005  1.0000
  C   C54       1.0  0.7628700000000002  0.32731  0.025820000000000006  1.0000
  C   C55       1.0  0.73014  0.8594200000000002  0.07552  1.0000
  C   C56       1.0  0.80764  0.8518900000000003  0.15482  1.0000
  C   C57       1.0  0.8754900000000001  0.92984  0.24689  1.0000
  C   C58       1.0  0.8964200000000001  0.76966  0.21168000000000006  1.0000
  C   C59       1.0  0.96611  0.8492200000000001  0.30295000000000005  1.0000
  C   C60       1.0  0.95498  0.92876  0.32117  1.0000
  C   C61       1.0  0.028860000000000007  0.013970000000000005  0.41722  1.0000
  C   C62       1.0  0.81667  0.77075  0.13756  1.0000
  C   C63       1.0  0.6548800000000001  0.8252400000000003  0.3104200000000001  1.0000
  C   C64       1.0  0.7334200000000001  0.9146400000000002  0.38565  1.0000
  C   C65       1.0  0.8025900000000002  0.9250300000000002  0.47689  1.0000
  C   C66       1.0  0.79188  0.8466100000000002  0.49382  1.0000
  C   C67       1.0  0.71453  0.7571200000000002  0.41832000000000014  1.0000
  C   C68       1.0  0.64669  0.7466100000000003  0.32669000000000004  1.0000
  C   C69       1.0  0.5816500000000002  0.81556  0.21573  1.0000
  C   C70       1.0  0.89141  0.02003  0.55339  1.0000
  C   C71       1.0  0.9169600000000002  0.6899500000000003  0.19261000000000006  1.0000
  C   C72       1.0  0.69822  0.6726700000000002  0.4354500000000001  1.0000
  O   O1        1.0  0.6963600000000001  0.31500000000000017  0.4874300000000001  1.0000
  O   O2        1.0  0.65613  0.36606  0.58985  1.0000
  O   O3        1.0  0.8531900000000003  0.4235200000000001  0.9325700000000002  1.0000
  O   O4        1.0  0.96408  0.3696800000000001  0.97779  1.0000
  O   O5        1.0  0.8247400000000001  0.63925  0.7063300000000001  1.0000
  O   O6        1.0  0.90134  0.60946  0.6351300000000002  1.0000
  O   O7        1.0  0.11108000000000011  0.6932600000000002  0.13970000000000002  1.0000
  O   O8        1.0  0.94353  0.61898  0.0241  1.0000
  O   O9        1.0  0.2679300000000002  0.7278100000000003  0.8607800000000002  1.0000
  O   O10       1.0  0.008090000000000033  0.27272  0.61925  1.0000
  O   O11       1.0  0.014120000000000028  0.52502  0.14115  1.0000
  O   O12       1.0  0.043289999999999974  0.24711999999999998  0.75272  1.0000
  O   O13       1.0  0.33611000000000013  0.7696300000000003  0.02321  1.0000
  O   O14       1.0  0.1717500000000001  0.6837100000000002  0.38127  1.0000
  O   O15       1.0  0.22389000000000003  0.63381  0.2902600000000001  1.0000
  O   O16       1.0  0.50865  0.57628  0.42949000000000004  1.0000
  O   O17       1.0  0.60834  0.63057  0.59434  1.0000
  O   O18       1.0  0.06704  0.36075  0.18575  1.0000
  O   O19       1.0  0.02565999999999997  0.39047999999999994  0.29228  1.0000
  O   O20       1.0  0.44578000000000007  0.30617000000000005  0.4175900000000001  1.0000
  O   O21       1.0  0.4051400000000002  0.3810800000000002  0.3249100000000001  1.0000
  O   O22       1.0  0.13281  0.27205  0.54038  1.0000
  O   O23       1.0  0.34644000000000025  0.7266300000000004  0.7356600000000002  1.0000
  O   O24       1.0  0.61593  0.4747300000000001  0.48898  1.0000
  O   O25       1.0  0.5057800000000001  0.75318  0.7964800000000001  1.0000
  O   O26       1.0  0.2536400000000001  0.23055000000000014  0.5667900000000002  1.0000
  O   O27       1.0  0.19816000000000009  0.20994000000000004  0.8809500000000002  1.0000
  O   O28       1.0  0.15872000000000014  0.06718000000000013  0.7890500000000003  1.0000
  O   O29       1.0  0.3518100000000001  0.91939  0.9283000000000002  1.0000
  O   O30       1.0  0.46165000000000017  0.98408  0.09329000000000003  1.0000
  O   O31       1.0  0.32513  0.11909  0.68579  1.0000
  O   O32       1.0  0.40305000000000013  0.26754000000000006  0.7931700000000003  1.0000
  O   O33       1.0  0.6087900000000003  0.9694800000000003  0.9178800000000003  1.0000
  O   O34       1.0  0.4414400000000002  0.9174800000000002  0.8228900000000002  1.0000
  O   O35       1.0  0.76918  0.40691  0.039020000000000006  1.0000
  O   O36       1.0  0.50857  0.38951  0.23743  1.0000
  O   O37       1.0  0.51195  0.8715200000000002  0.98801  1.0000
  O   O38       1.0  0.54173  0.2898  0.29697  1.0000
  O   O39       1.0  0.83687  0.31186000000000014  0.06353  1.0000
  O   O40       1.0  0.6710700000000002  0.7900300000000002  0.9880500000000001  1.0000
  O   O41       1.0  0.72181  0.9325000000000002  0.09181  1.0000
  O   O42       1.0  0.00916000000000006  0.08051000000000005  0.43253000000000014  1.0000
  O   O43       1.0  0.10922000000000007  0.01581000000000005  0.4784700000000001  1.0000
  O   O44       1.0  0.56613  0.88077  0.20599  1.0000
  O   O45       1.0  0.52713  0.73319  0.13476  1.0000
  O   O46       1.0  0.9479500000000001  0.030730000000000104  0.6396000000000002  1.0000
  O   O47       1.0  0.90529  0.08237000000000001  0.52397  1.0000
  O   O48       1.0  0.63198  0.59294  0.36214  1.0000
  O   O49       1.0  0.8478  0.61023  0.11957000000000002  1.0000
  O   O50       1.0  0.11659000000000014  0.12875000000000011  0.6407500000000003  1.0000
  O   O51       1.0  0.007070000000000082  0.7100500000000002  0.25268  1.0000
  O   O52       1.0  0.7515900000000001  0.6882200000000003  0.52495  1.0000
