data_image0
_chemical_formula_structural       Zn8H64C92O34
_chemical_formula_sum              "Zn8 H64 C92 O34"
_cell_length_a       17.25744
_cell_length_b       17.3632
_cell_length_c       17.3746
_cell_angle_alpha    90.20182
_cell_angle_beta     89.95889999999999
_cell_angle_gamma    90.48816

_symmetry_space_group_name_H-M    'P 1'
_symmetry_Int_Tables_number       1

loop_
  _symmetry_equiv_pos_as_xyz
  'x,y,z'

loop_
  _atom_site_type_symbol
  _atom_site_label
  _atom_site_symmetry_multiplicity
  _atom_site_fract_x
  _atom_site_fract_y
  _atom_site_fract_z
  _atom_site_occupancy
  Zn  Zn1       1.0  0.05239  0.9348099999999999  0.43172  1.0000
  Zn  Zn2       1.0  0.0527  0.06627  0.56489  1.0000
  Zn  Zn3       1.0  0.17882  0.9346599999999999  0.56493  1.0000
  Zn  Zn4       1.0  0.18183  0.06518999999999998  0.43206  1.0000
  Zn  Zn5       1.0  0.94714  0.43293  0.06454  1.0000
  Zn  Zn6       1.0  0.9477099999999999  0.56485  0.93226  1.0000
  Zn  Zn7       1.0  0.8215399999999999  0.56459  0.06457  1.0000
  Zn  Zn8       1.0  0.81836  0.43164  0.9314900000000002  1.0000
  H   H1        1.0  0.04472  0.8968399999999997  0.19267  1.0000
  H   H2        1.0  0.04800999999999999  0.89761  0.04861  1.0000
  H   H3        1.0  0.18514  0.10182  0.1973  1.0000
  H   H4        1.0  0.49247  0.88087  0.68243  1.0000
  H   H5        1.0  0.25339  0.21493  0.03741  1.0000
  H   H6        1.0  0.27732  0.1559  0.11846  1.0000
  H   H7        1.0  0.18729  0.207  0.11669  1.0000
  H   H8        1.0  0.04725  0.10306999999999997  0.80308  1.0000
  H   H9        1.0  0.05083  0.10481  0.9472100000000001  1.0000
  H   H10       1.0  0.18463  0.89819  0.80144  1.0000
  H   H11       1.0  0.23727999999999996  0.7810499999999998  0.96614  1.0000
  H   H12       1.0  0.27994  0.84253  0.8946200000000001  1.0000
  H   H13       1.0  0.18791  0.79662  0.8770800000000002  1.0000
  H   H14       1.0  0.05067  0.30368  0.60176  1.0000
  H   H15       1.0  0.049769999999999995  0.4477799999999999  0.60077  1.0000
  H   H16       1.0  0.18387  0.3034699999999999  0.39317  1.0000
  H   H17       1.0  0.5763  0.82067  0.68078  1.0000
  H   H18       1.0  0.18952  0.37754  0.29012  1.0000
  H   H19       1.0  0.27859  0.39677  0.34046  1.0000
  H   H20       1.0  0.23947999999999997  0.46732  0.27629  1.0000
  H   H21       1.0  0.04973  0.69668  0.3914  1.0000
  H   H22       1.0  0.05186  0.55304  0.38789  1.0000
  H   H23       1.0  0.17439  0.69609  0.605  1.0000
  H   H24       1.0  0.81361  0.0833  0.58967  1.0000
  H   H25       1.0  0.6683199999999999  0.08151  0.58992  1.0000
  H   H26       1.0  0.81454  0.90908  0.41421  1.0000
  H   H27       1.0  0.66918  0.90671  0.41420000000000007  1.0000
  H   H28       1.0  0.41507  0.9090999999999998  0.58315  1.0000
  H   H29       1.0  0.49912000000000006  0.80403  0.61338  1.0000
  H   H30       1.0  0.42236  0.08904  0.4151  1.0000
  H   H31       1.0  0.9538999999999999  0.19582  0.10078  1.0000
  H   H32       1.0  0.9505099999999999  0.05167  0.10217  1.0000
  H   H33       1.0  0.81619  0.19498  0.89537  1.0000
  H   H34       1.0  0.50481  0.68916  0.11609000000000001  1.0000
  H   H35       1.0  0.8110399999999999  0.11687  0.79209  1.0000
  H   H36       1.0  0.72135  0.10945999999999997  0.8443800000000001  1.0000
  H   H37       1.0  0.75179  0.03203  0.7828300000000002  1.0000
  H   H38       1.0  0.9533900000000001  0.80368  0.89501  1.0000
  H   H39       1.0  0.9500900000000001  0.9478499999999999  0.89492  1.0000
  H   H40       1.0  0.81946  0.80041  0.10284  1.0000
  H   H41       1.0  0.81765  0.88713  0.21103000000000002  1.0000
  H   H42       1.0  0.73027  0.8747099999999999  0.15599  1.0000
  H   H43       1.0  0.74551  0.9609499999999999  0.21118  1.0000
  H   H44       1.0  0.9504699999999999  0.6075499999999999  0.69546  1.0000
  H   H45       1.0  0.9477099999999999  0.61104  0.55182  1.0000
  H   H46       1.0  0.82347  0.3939399999999999  0.69305  1.0000
  H   H47       1.0  0.4237  0.68043  0.18023  1.0000
  H   H48       1.0  0.94959  0.39577999999999997  0.3036  1.0000
  H   H49       1.0  0.9489700000000001  0.39853  0.44769  1.0000
  H   H50       1.0  0.8188499999999999  0.6045699999999998  0.30016  1.0000
  H   H51       1.0  0.72991  0.6577  0.37581  1.0000
  H   H52       1.0  0.81694  0.7144199999999998  0.38625  1.0000
  H   H53       1.0  0.74553  0.71379  0.46134  1.0000
  H   H54       1.0  0.18671  0.5902299999999998  0.91602  1.0000
  H   H55       1.0  0.33204  0.59138  0.91655  1.0000
  H   H56       1.0  0.1852  0.41502  0.08915  1.0000
  H   H57       1.0  0.33053  0.41567  0.0902  1.0000
  H   H58       1.0  0.58498  0.58612  0.08754  1.0000
  H   H59       1.0  0.50404  0.61616  0.18907  1.0000
  H   H60       1.0  0.57788  0.41168  0.91244  1.0000
  H   H61       1.0  0.17258  0.5520599999999998  0.60446  1.0000
  H   H62       1.0  0.5677699999999999  0.08556999999999997  0.41629  1.0000
  H   H63       1.0  0.82471  0.3944299999999999  0.549  1.0000
  H   H64       1.0  0.43254  0.41485999999999995  0.91404  1.0000
  C   C1        1.0  0.11499  0.9989099999999999  0.2882900000000001  1.0000
  C   C2        1.0  0.11465  0.9998099999999999  0.20264  1.0000
  C   C3        1.0  0.07556  0.94179  0.16162  1.0000
  C   C4        1.0  0.07767  0.94234  0.08147  1.0000
  C   C5        1.0  0.11658  0.0007499999999999998  0.041190000000000004  1.0000
  C   C6        1.0  0.15572  0.05925  0.08311  1.0000
  C   C7        1.0  0.15484  0.05840999999999999  0.1635  1.0000
  C   C8        1.0  0.23003  0.17613  0.08145  1.0000
  C   C9        1.0  0.11543  0.9998399999999998  0.70898  1.0000
  C   C10       1.0  0.11558  0.0002  0.79465  1.0000
  C   C11       1.0  0.07743  0.058739999999999994  0.83491  1.0000
  C   C12       1.0  0.07955  0.05943999999999999  0.91504  1.0000
  C   C13       1.0  0.11664000000000001  0.0011400000000000002  0.95602  1.0000
  C   C14       1.0  0.15363  0.9413  0.91492  1.0000
  C   C15       1.0  0.1545  0.94182  0.83455  1.0000
  C   C16       1.0  0.22521  0.82335  0.92114  1.0000
  C   C17       1.0  0.11865000000000002  0.20956  0.49775  1.0000
  C   C18       1.0  0.11718999999999999  0.29557  0.49712  1.0000
  C   C19       1.0  0.07928  0.33567  0.55609  1.0000
  C   C20       1.0  0.07911  0.41597  0.55535  1.0000
  C   C21       1.0  0.11374  0.45769  0.49544  1.0000
  C   C22       1.0  0.1509  0.4165399999999999  0.43536  1.0000
  C   C23       1.0  0.15377  0.33613  0.43721  1.0000
  C   C24       1.0  0.22505  0.4224  0.31822  1.0000
  C   C25       1.0  0.11393  0.79081  0.4983000000000001  1.0000
  C   C26       1.0  0.11238  0.705  0.49817999999999996  1.0000
  C   C27       1.0  0.07713  0.66445  0.43728000000000006  1.0000
  C   C28       1.0  0.07843  0.5842899999999998  0.43548  1.0000
  C   C29       1.0  0.11273  0.54302  0.49584  1.0000
  C   C30       1.0  0.14594  0.58387  0.5577100000000002  1.0000
  C   C31       1.0  0.14690999999999999  0.6640999999999998  0.5584  1.0000
  C   C32       1.0  0.78125  0.04507  0.55158  1.0000
  C   C33       1.0  0.70055  0.04397  0.55148  1.0000
  C   C34       1.0  0.78168  0.94644  0.45227  1.0000
  C   C35       1.0  0.70095  0.94542  0.45239  1.0000
  C   C36       1.0  0.53064  0.9456799999999999  0.54822  1.0000
  C   C37       1.0  0.44974  0.9471  0.54732  1.0000
  C   C38       1.0  0.5321  0.84822  0.64531  1.0000
  C   C39       1.0  0.53404  0.04704  0.45268  1.0000
  C   C40       1.0  0.45324  0.04914  0.45174000000000003  1.0000
  C   C41       1.0  0.90853  0.99894  0.50043  1.0000
  C   C42       1.0  0.82222  0.99664  0.50158  1.0000
  C   C43       1.0  0.65969  0.9946999999999999  0.50147  1.0000
  C   C44       1.0  0.57365  0.99582  0.50027  1.0000
  C   C45       1.0  0.41114  0.9988900000000001  0.49905  1.0000
  C   C46       1.0  0.32459  0.99971  0.4984  1.0000
  C   C47       1.0  0.88482  0.2888899999999999  0.9974500000000001  1.0000
  C   C48       1.0  0.8853  0.20316  0.9976599999999999  1.0000
  C   C49       1.0  0.92365  0.16346  0.05624  1.0000
  C   C50       1.0  0.9213299999999998  0.08325  0.05681  1.0000
  C   C51       1.0  0.88346  0.04139  0.9986900000000001  1.0000
  C   C52       1.0  0.8461  0.0821  0.9388999999999998  1.0000
  C   C53       1.0  0.84618  0.16250999999999993  0.93932  1.0000
  C   C54       1.0  0.77149  0.07736  0.82248  1.0000
  C   C55       1.0  0.8855  0.70864  0.99868  1.0000
  C   C56       1.0  0.88642  0.79444  0.99921  1.0000
  C   C57       1.0  0.9238  0.8351599999999999  0.94027  1.0000
  C   C58       1.0  0.92145  0.9153199999999998  0.9403500000000001  1.0000
  C   C59       1.0  0.88373  0.9561  0.9989199999999999  1.0000
  C   C60       1.0  0.84669  0.9143299999999998  0.05863  1.0000
  C   C61       1.0  0.84811  0.83393  0.05847  1.0000
  C   C62       1.0  0.77383  0.9167299999999998  0.1762  1.0000
  C   C63       1.0  0.88523  0.501  0.78846  1.0000
  C   C64       1.0  0.88639  0.5009499999999998  0.70276  1.0000
  C   C65       1.0  0.9222  0.56184  0.66279  1.0000
  C   C66       1.0  0.92047  0.56361  0.58269  1.0000
  C   C67       1.0  0.8852  0.50321  0.54112  1.0000
  C   C68       1.0  0.85169  0.44124  0.58134  1.0000
  C   C69       1.0  0.85112  0.44063  0.6615  1.0000
  C   C70       1.0  0.88374  0.50003  0.20854  1.0000
  C   C71       1.0  0.88454  0.50068  0.2942600000000001  1.0000
  C   C72       1.0  0.9211299999999998  0.4417999999999999  0.33494  1.0000
  C   C73       1.0  0.9201  0.44336  0.41515  1.0000
  C   C74       1.0  0.88442  0.5031299999999999  0.45593  1.0000
  C   C75       1.0  0.84708  0.5621499999999998  0.41414  1.0000
  C   C76       1.0  0.84739  0.56062  0.33382000000000006  1.0000
  C   C77       1.0  0.77371  0.679  0.41682  1.0000
  C   C78       1.0  0.21905  0.55242  0.95374  1.0000
  C   C79       1.0  0.29977  0.55277  0.9542  1.0000
  C   C80       1.0  0.21816999999999998  0.4532099999999999  0.05173  1.0000
  C   C81       1.0  0.29891  0.45368  0.05203000000000001  1.0000
  C   C82       1.0  0.46953  0.55082  0.05105  1.0000
  C   C83       1.0  0.55044  0.54915  0.05031  1.0000
  C   C84       1.0  0.46803999999999996  0.6486  0.14848  1.0000
  C   C85       1.0  0.46617  0.45217  0.95204  1.0000
  C   C86       1.0  0.54701  0.45014  0.9509  1.0000
  C   C87       1.0  0.09144  0.50092  0.0008100000000000001  1.0000
  C   C88       1.0  0.1778  0.50238  0.00229  1.0000
  C   C89       1.0  0.34043  0.50305  0.00285  1.0000
  C   C90       1.0  0.42652  0.5018  0.00167  1.0000
  C   C91       1.0  0.58915  0.49863999999999997  0.00026  1.0000
  C   C92       1.0  0.67577  0.49701999999999996  0.99998  1.0000
  O   O1        1.0  0.07039  0.94964  0.32109  1.0000
  O   O2        1.0  0.16007  0.04712  0.32242000000000004  1.0000
  O   O3        1.0  0.19445  0.11353  0.04012  1.0000
  O   O4        1.0  0.07031  0.04725  0.6753500000000001  1.0000
  O   O5        1.0  0.16053  0.9519599999999999  0.67545  1.0000
  O   O6        1.0  0.18748  0.88594  0.9595600000000001  1.0000
  O   O7        1.0  0.07442  0.17605  0.54679  1.0000
  O   O8        1.0  0.16351  0.17619  0.44941  1.0000
  O   O9        1.0  0.18355  0.46083999999999997  0.3785700000000001  1.0000
  O   O10       1.0  0.07036  0.82434  0.44928  1.0000
  O   O11       1.0  0.15891  0.8240899999999999  0.54696  1.0000
  O   O12       1.0  0.9418099999999999  0.95323  0.45317  1.0000
  O   O13       1.0  0.94161  0.04657  0.54647  1.0000
  O   O14       1.0  0.2896699999999999  0.9528799999999998  0.54354  1.0000
  O   O15       1.0  0.57384  0.8982399999999998  0.59396  1.0000
  O   O16       1.0  0.29253  0.0473  0.45263000000000003  1.0000
  O   O17       1.0  0.11666000000000001  0.0004200000000000002  0.4985800000000001  1.0000
  O   O18       1.0  0.9291900000000001  0.3230999999999999  0.04616  1.0000
  O   O19       1.0  0.83997  0.32156  0.94893  1.0000
  O   O20       1.0  0.8104099999999999  0.038019999999999984  0.88348  1.0000
  O   O21       1.0  0.9294199999999999  0.67543  0.9497500000000001  1.0000
  O   O22       1.0  0.84033  0.67533  0.047050000000000015  1.0000
  O   O23       1.0  0.80893  0.95728  0.11325000000000002  1.0000
  O   O24       1.0  0.9295499999999999  0.55012  0.8220600000000001  1.0000
  O   O25       1.0  0.83989  0.45249  0.82138  1.0000
  O   O26       1.0  0.92573  0.4495599999999999  0.17495  1.0000
  O   O27       1.0  0.84092  0.55002  0.17544  1.0000
  O   O28       1.0  0.8098099999999999  0.61696  0.4572  1.0000
  O   O29       1.0  0.05804  0.45369  0.04676  1.0000
  O   O30       1.0  0.05841  0.54655  0.9536  1.0000
  O   O31       1.0  0.71058  0.54282  0.04659  1.0000
  O   O32       1.0  0.42624  0.59783  0.0977  1.0000
  O   O33       1.0  0.70755  0.4497099999999999  0.9531400000000001  1.0000
  O   O34       1.0  0.88324  0.49801  0.9975200000000001  1.0000
