data_image0
_chemical_formula_structural       Zn8H72C72O26
_chemical_formula_sum              "Zn8 H72 C72 O26"
_cell_length_a       18.37208
_cell_length_b       18.36888
_cell_length_c       18.36946
_cell_angle_alpha    60.05752
_cell_angle_beta     60.04925
_cell_angle_gamma    60.05187000000001

_space_group_name_H-M_alt    "P 1"
_space_group_IT_number       1

loop_
  _space_group_symop_operation_xyz
  'x, y, z'

loop_
  _atom_site_type_symbol
  _atom_site_label
  _atom_site_symmetry_multiplicity
  _atom_site_fract_x
  _atom_site_fract_y
  _atom_site_fract_z
  _atom_site_occupancy
  Zn  Zn1       1.0  0.7059000000000001  0.7063100000000002  0.88155  1.0000
  Zn  Zn2       1.0  0.7062400000000001  0.7067800000000002  0.70621  1.0000
  Zn  Zn3       1.0  0.7067899999999999  0.88137  0.70603  1.0000
  Zn  Zn4       1.0  0.8812899999999999  0.7058900000000002  0.70666  1.0000
  Zn  Zn5       1.0  0.2939099999999999  0.2942400000000001  0.29383  1.0000
  Zn  Zn6       1.0  0.29317  0.29389  0.11903000000000002  1.0000
  Zn  Zn7       1.0  0.29410000000000003  0.11890000000000002  0.29374  1.0000
  Zn  Zn8       1.0  0.11888999999999995  0.2931400000000001  0.29405  1.0000
  H   H1        1.0  0.9071899999999999  0.7173000000000003  0.00096  1.0000
  H   H2        1.0  0.90037  0.72718  0.90354  1.0000
  H   H3        1.0  0.001879999999999766  0.7166000000000003  0.90307  1.0000
  H   H4        1.0  0.7188200000000001  0.99969  0.3727  1.0000
  H   H5        1.0  0.7186200000000001  0.89868  0.38255  1.0000
  H   H6        1.0  0.7272299999999999  0.9062800000000001  0.47013  1.0000
  H   H7        1.0  0.39096999999999993  0.8914000000000001  0.71982  1.0000
  H   H8        1.0  0.36695  0.99806  0.7191  1.0000
  H   H9        1.0  0.4698699999999998  0.9142000000000005  0.72675  1.0000
  H   H10       1.0  0.8709099999999996  0.4610300000000001  0.9440900000000002  1.0000
  H   H11       1.0  0.9437799999999998  0.35280000000000006  0.9813900000000002  1.0000
  H   H12       1.0  0.98096  0.42511000000000015  0.87175  1.0000
  H   H13       1.0  0.35213000000000017  0.9800100000000002  0.94595  1.0000
  H   H14       1.0  0.4276600000000004  0.8710399999999999  0.97867  1.0000
  H   H15       1.0  0.4595799999999999  0.9470600000000003  0.86989  1.0000
  H   H16       1.0  0.9038499999999999  0.7273400000000004  0.47004  1.0000
  H   H17       1.0  0.9016699999999999  0.7189800000000002  0.37944  1.0000
  H   H18       1.0  0.0007199999999999145  0.7180800000000003  0.37524  1.0000
  H   H19       1.0  0.9161299999999999  0.3666400000000001  0.71876  1.0000
  H   H20       1.0  0.88883  0.46963  0.7268  1.0000
  H   H21       1.0  0.9974500000000001  0.39105000000000006  0.7201  1.0000
  H   H22       1.0  0.7173899999999999  0.0009900000000000115  0.90092  1.0000
  H   H23       1.0  0.7271799999999996  0.8973800000000003  0.90692  1.0000
  H   H24       1.0  0.7161100000000001  0.9099200000000002  0.00186  1.0000
  H   H25       1.0  0.7272000000000001  0.46997  0.8987  1.0000
  H   H26       1.0  0.71857  0.3743200000000001  0.9071200000000001  1.0000
  H   H27       1.0  0.71806  0.3803600000000001  0.00078  1.0000
  H   H28       1.0  0.8745199999999997  0.9863800000000004  0.4179000000000001  1.0000
  H   H29       1.0  0.9371799999999996  0.8741700000000001  0.46389  1.0000
  H   H30       1.0  0.98549  0.9384900000000002  0.35468  1.0000
  H   H31       1.0  0.9147999999999997  0.8898300000000003  0.72666  1.0000
  H   H32       1.0  0.8916000000000001  0.9993000000000001  0.71807  1.0000
  H   H33       1.0  0.9981799999999998  0.9183300000000001  0.71792  1.0000
  H   H34       1.0  0.39733  0.72055  0.99546  1.0000
  H   H35       1.0  0.36314  0.7193599999999999  0.9212900000000003  1.0000
  H   H36       1.0  0.46902999999999995  0.72626  0.8845500000000001  1.0000
  H   H37       1.0  0.03306999999999997  0.27708  0.55907  1.0000
  H   H38       1.0  0.03740000000000003  0.28099  0.65139  1.0000
  H   H39       1.0  0.13173000000000004  0.27807  0.55347  1.0000
  H   H40       1.0  0.27803  0.02929  0.04254  1.0000
  H   H41       1.0  0.27694  0.13139  0.03156  1.0000
  H   H42       1.0  0.27788  0.04054000000000002  0.1327  1.0000
  H   H43       1.0  0.60934  0.0006300000000000066  0.10793000000000001  1.0000
  H   H44       1.0  0.5326999999999998  0.11051000000000002  0.08382000000000003  1.0000
  H   H45       1.0  0.63546  0.08019000000000003  0.0005  1.0000
  H   H46       1.0  0.01891  0.64979  0.28205  1.0000
  H   H47       1.0  0.05122999999999999  0.54401  0.27617  1.0000
  H   H48       1.0  0.12795999999999985  0.5735500000000002  0.27892  1.0000
  H   H49       1.0  0.54396  0.12835000000000002  0.276  1.0000
  H   H50       1.0  0.5727300000000001  0.01944000000000001  0.27921  1.0000
  H   H51       1.0  0.6497200000000001  0.04879000000000001  0.28162000000000004  1.0000
  H   H52       1.0  0.03453999999999996  0.2778400000000001  0.03723  1.0000
  H   H53       1.0  0.039529999999999975  0.2766200000000001  0.13176  1.0000
  H   H54       1.0  0.13282999999999995  0.2785100000000001  0.03236  1.0000
  H   H55       1.0  0.08193  0.53287  0.11202000000000002  1.0000
  H   H56       1.0  0.00161999999999988  0.6368600000000002  0.07809  1.0000
  H   H57       1.0  0.10992000000000003  0.60681  0.00115  1.0000
  H   H58       1.0  0.2788399999999999  0.027379999999999915  0.5623200000000003  1.0000
  H   H59       1.0  0.27657  0.13029000000000002  0.55053  1.0000
  H   H60       1.0  0.28080000000000005  0.03941000000000001  0.65111  1.0000
  H   H61       1.0  0.27652  0.5522800000000002  0.040360000000000014  1.0000
  H   H62       1.0  0.2802499999999999  0.6510700000000003  0.03163  1.0000
  H   H63       1.0  0.2787399999999998  0.5593200000000003  0.13198  1.0000
  H   H64       1.0  0.019519999999999954  0.12968000000000005  0.27924  1.0000
  H   H65       1.0  0.05106000000000001  0.021770000000000005  0.2786  1.0000
  H   H66       1.0  0.12882  0.05374999999999999  0.27591  1.0000
  H   H67       1.0  0.07292000000000003  0.004950000000000001  0.63994  1.0000
  H   H68       1.0  0.003619999999999954  0.11514000000000002  0.59989  1.0000
  H   H69       1.0  0.11619000000000002  0.07685  0.5333  1.0000
  H   H70       1.0  0.5403700000000001  0.2753999999999999  0.05817000000000001  1.0000
  H   H71       1.0  0.58031  0.27973  0.12571  1.0000
  H   H72       1.0  0.64797  0.28213  0.01471  1.0000
  C   C1        1.0  0.8889800000000002  0.6101100000000002  0.88986  1.0000
  C   C2        1.0  0.9464399999999998  0.5522400000000001  0.9479  1.0000
  C   C3        1.0  0.61066  0.88976  0.6107400000000002  1.0000
  C   C4        1.0  0.5529099999999999  0.9476700000000003  0.55303  1.0000
  C   C5        1.0  0.6101199999999999  0.8896100000000001  0.88922  1.0000
  C   C6        1.0  0.5522099999999998  0.9475500000000003  0.94682  1.0000
  C   C7        1.0  0.88917  0.6107199999999999  0.6107900000000002  1.0000
  C   C8        1.0  0.9466  0.55292  0.55309  1.0000
  C   C9        1.0  0.6105699999999996  0.6108  0.8891100000000001  1.0000
  C   C10       1.0  0.5527699999999999  0.5530999999999999  0.9463700000000003  1.0000
  C   C11       1.0  0.8900499999999996  0.8888300000000003  0.6102800000000003  1.0000
  C   C12       1.0  0.94831  0.9460800000000004  0.5524300000000002  1.0000
  C   C13       1.0  0.11025999999999989  0.3894500000000002  0.38962  1.0000
  C   C14       1.0  0.05226000000000002  0.44725  0.44744  1.0000
  C   C15       1.0  0.38894  0.11078000000000002  0.11049  1.0000
  C   C16       1.0  0.44661999999999996  0.05311  0.05256  1.0000
  C   C17       1.0  0.3895  0.11098000000000004  0.38967  1.0000
  C   C18       1.0  0.44730000000000003  0.05338  0.44746  1.0000
  C   C19       1.0  0.11006999999999995  0.3890000000000001  0.11102  1.0000
  C   C20       1.0  0.05200999999999999  0.4467  0.05352000000000001  1.0000
  C   C21       1.0  0.3893499999999999  0.38969  0.11012  1.0000
  C   C22       1.0  0.44713999999999987  0.4475000000000001  0.05201000000000001  1.0000
  C   C23       1.0  0.11122000000000001  0.10984000000000001  0.38923  1.0000
  C   C24       1.0  0.05389000000000003  0.051599999999999986  0.44693  1.0000
  C   C25       1.0  0.9724200000000002  0.5935799999999999  0.97336  1.0000
  C   C26       1.0  0.9438600000000003  0.6937299999999998  0.94353  1.0000
  C   C27       1.0  0.5944000000000002  0.9733100000000001  0.46008000000000004  1.0000
  C   C28       1.0  0.6948199999999999  0.9428700000000001  0.41948  1.0000
  C   C29       1.0  0.4598900000000001  0.97344  0.59462  1.0000
  C   C30       1.0  0.4199199999999999  0.9427300000000001  0.6951300000000002  1.0000
  C   C31       1.0  0.97194  0.45899  0.9738100000000002  1.0000
  C   C32       1.0  0.9405000000000001  0.42208000000000007  0.94137  1.0000
  C   C33       1.0  0.45895999999999976  0.9735300000000003  0.97229  1.0000
  C   C34       1.0  0.4221199999999999  0.9415200000000001  0.94034  1.0000
  C   C35       1.0  0.9725599999999996  0.5943500000000003  0.46015  1.0000
  C   C36       1.0  0.9431799999999998  0.6947500000000002  0.4193100000000001  1.0000
  C   C37       1.0  0.9721599999999999  0.45988000000000007  0.59463  1.0000
  C   C38       1.0  0.94209  0.41981  0.69515  1.0000
  C   C39       1.0  0.5934899999999999  0.9729800000000001  0.9728600000000002  1.0000
  C   C40       1.0  0.6936099999999998  0.9435800000000004  0.94405  1.0000
  C   C41       1.0  0.5941999999999998  0.4602  0.9723200000000001  1.0000
  C   C42       1.0  0.69456  0.41933  0.94321  1.0000
  C   C43       1.0  0.9740499999999997  0.9716800000000004  0.45927  1.0000
  C   C44       1.0  0.9413800000000001  0.9412299999999999  0.42167  1.0000
  C   C45       1.0  0.9738799999999999  0.9719000000000001  0.5939  1.0000
  C   C46       1.0  0.9430099999999999  0.94324  0.6941800000000002  1.0000
  C   C47       1.0  0.45969999999999994  0.59472  0.9719100000000002  1.0000
  C   C48       1.0  0.42026999999999987  0.6952900000000004  0.94178  1.0000
  C   C49       1.0  0.026710000000000057  0.4058  0.54042  1.0000
  C   C50       1.0  0.05854999999999995  0.30525  0.57861  1.0000
  C   C51       1.0  0.4048900000000001  0.027050000000000015  0.02699  1.0000
  C   C52       1.0  0.30422  0.058420000000000014  0.059750000000000004  1.0000
  C   C53       1.0  0.53927  0.027659999999999997  0.026620000000000008  1.0000
  C   C54       1.0  0.581  0.05649  0.05628  1.0000
  C   C55       1.0  0.02627999999999997  0.54012  0.40605  1.0000
  C   C56       1.0  0.05742999999999997  0.57923  0.30559  1.0000
  C   C57       1.0  0.54018  0.027729999999999998  0.40599  1.0000
  C   C58       1.0  0.57902  0.057580000000000006  0.30551000000000006  1.0000
  C   C59       1.0  0.026400000000000014  0.40493  0.02755  1.0000
  C   C60       1.0  0.059589999999999956  0.3042600000000001  0.05861000000000001  1.0000
  C   C61       1.0  0.026269999999999877  0.5393600000000002  0.02793  1.0000
  C   C62       1.0  0.05649999999999986  0.5808100000000003  0.05651  1.0000
  C   C63       1.0  0.40581  0.027440000000000013  0.54042  1.0000
  C   C64       1.0  0.30528  0.05754  0.57858  1.0000
  C   C65       1.0  0.4056199999999999  0.54053  0.02639  1.0000
  C   C66       1.0  0.3050599999999999  0.5783100000000002  0.05888  1.0000
  C   C67       1.0  0.028079999999999963  0.02590999999999997  0.4051800000000001  1.0000
  C   C68       1.0  0.05833000000000002  0.05909  0.30458  1.0000
  C   C69       1.0  0.02823000000000001  0.025969999999999986  0.5397  1.0000
  C   C70       1.0  0.056900000000000076  0.057250000000000016  0.58012  1.0000
  C   C71       1.0  0.53997  0.4060800000000001  0.02612  1.0000
  C   C72       1.0  0.57939  0.30566  0.057550000000000004  1.0000
  O   O1        1.0  0.7500999999999998  0.75015  0.75028  1.0000
  O   O2        1.0  0.25011  0.25013  0.25024  1.0000
  O   O3        1.0  0.8048700000000002  0.6327699999999999  0.92976  1.0000
  O   O4        1.0  0.6323699999999999  0.80572  0.6327700000000002  1.0000
  O   O5        1.0  0.63292  0.92981  0.63262  1.0000
  O   O6        1.0  0.9293900000000002  0.6316100000000001  0.80587  1.0000
  O   O7        1.0  0.63154  0.8056  0.92955  1.0000
  O   O8        1.0  0.92961  0.6323100000000003  0.63286  1.0000
  O   O9        1.0  0.80507  0.63317  0.63255  1.0000
  O   O10       1.0  0.63291  0.92958  0.80512  1.0000
  O   O11       1.0  0.6321900000000001  0.63266  0.9296900000000001  1.0000
  O   O12       1.0  0.80611  0.9293800000000001  0.63179  1.0000
  O   O13       1.0  0.9297800000000002  0.80466  0.63291  1.0000
  O   O14       1.0  0.6329999999999999  0.6327500000000001  0.80496  1.0000
  O   O15       1.0  0.19429999999999997  0.3680200000000001  0.3674  1.0000
  O   O16       1.0  0.3665499999999999  0.19489000000000006  0.07048  1.0000
  O   O17       1.0  0.36752  0.07059  0.19454  1.0000
  O   O18       1.0  0.0703099999999999  0.3669500000000001  0.36787  1.0000
  O   O19       1.0  0.36731  0.19512000000000002  0.36777  1.0000
  O   O20       1.0  0.07024999999999997  0.3667500000000001  0.19517  1.0000
  O   O21       1.0  0.19407999999999997  0.3674000000000001  0.07065  1.0000
  O   O22       1.0  0.3677599999999999  0.07066999999999996  0.3676100000000001  1.0000
  O   O23       1.0  0.36778999999999995  0.36769  0.19415  1.0000
  O   O24       1.0  0.19538999999999992  0.07011999999999999  0.3671500000000001  1.0000
  O   O25       1.0  0.07071999999999994  0.1938300000000001  0.36745  1.0000
  O   O26       1.0  0.3669499999999999  0.3677200000000001  0.07025  1.0000
