data_image0
_chemical_formula_structural       Ag16H40C60N50
_chemical_formula_sum              "Ag16 H40 C60 N50"
_cell_length_a       10.18397
_cell_length_b       13.77694
_cell_length_c       21.09586
_cell_angle_alpha    83.17322
_cell_angle_beta     104.5775
_cell_angle_gamma    114.59787

_space_group_name_H-M_alt    "P 1"
_space_group_IT_number       1

loop_
  _space_group_symop_operation_xyz
  'x, y, z'

loop_
  _atom_site_type_symbol
  _atom_site_label
  _atom_site_symmetry_multiplicity
  _atom_site_fract_x
  _atom_site_fract_y
  _atom_site_fract_z
  _atom_site_occupancy
  Ag  Ag1       1.0  0.30786  0.0018799999999999986  0.74862  1.0000
  Ag  Ag2       1.0  0.12479999999999991  0.33979  0.56128  1.0000
  Ag  Ag3       1.0  0.012559999999999977  0.83662  0.70993  1.0000
  Ag  Ag4       1.0  0.4763200000000001  0.07184000000000001  0.8726399999999999  1.0000
  Ag  Ag5       1.0  0.1726400000000001  0.9991800000000001  0.84834  1.0000
  Ag  Ag6       1.0  0.11731999999999994  0.6375499999999998  0.97337  1.0000
  Ag  Ag7       1.0  0.5053999999999997  0.91289  0.8102099999999999  1.0000
  Ag  Ag8       1.0  0.66374  0.14327  0.06901  1.0000
  Ag  Ag9       1.0  0.6921399999999999  0.9981099999999999  0.25138  1.0000
  Ag  Ag10      1.0  0.8752000000000001  0.6602  0.43871999999999994  1.0000
  Ag  Ag11      1.0  0.9874400000000001  0.16336999999999993  0.29007  1.0000
  Ag  Ag12      1.0  0.52369  0.92815  0.12735999999999997  1.0000
  Ag  Ag13      1.0  0.82736  0.0008099999999999996  0.15166  1.0000
  Ag  Ag14      1.0  0.88268  0.36244  0.026629999999999997  1.0000
  Ag  Ag15      1.0  0.4946  0.0871  0.18978999999999996  1.0000
  Ag  Ag16      1.0  0.33626  0.85672  0.93099  1.0000
  H   H1        1.0  0.4016  0.39771999999999996  0.05892  1.0000
  H   H2        1.0  0.24963999999999995  0.3948799999999999  0.84867  1.0000
  H   H3        1.0  0.7776100000000001  0.83332  0.88162  1.0000
  H   H4        1.0  0.98268  0.48427999999999993  0.56739  1.0000
  H   H5        1.0  0.9700099999999999  0.88317  0.08885  1.0000
  H   H6        1.0  0.4066999999999999  0.60655  0.7558299999999999  1.0000
  H   H7        1.0  0.9943100000000001  0.6160499999999999  0.64052  1.0000
  H   H8        1.0  0.29239  0.80991  0.56889  1.0000
  H   H9        1.0  0.7263499999999999  0.7275399999999999  0.6653  1.0000
  H   H10       1.0  0.53561  0.6326399999999998  0.56933  1.0000
  H   H11       1.0  0.09627000000000006  0.76653  0.08343  1.0000
  H   H12       1.0  0.47461  0.91523  0.66478  1.0000
  H   H13       1.0  0.06837999999999998  0.03235  0.65628  1.0000
  H   H14       1.0  0.13234000000000007  0.51701  0.86026  1.0000
  H   H15       1.0  0.32023  0.06479999999999997  0.5122  1.0000
  H   H16       1.0  0.27886  0.51947  0.06280999999999999  1.0000
  H   H17       1.0  0.37638999999999995  0.47176999999999997  0.67845  1.0000
  H   H18       1.0  0.24064  0.21763999999999994  0.69115  1.0000
  H   H19       1.0  0.47526  0.25162  0.5494099999999998  1.0000
  H   H20       1.0  0.92358  0.72582  0.88277  1.0000
  H   H21       1.0  0.5983999999999999  0.60227  0.9410799999999999  1.0000
  H   H22       1.0  0.7503600000000001  0.60511  0.15133  1.0000
  H   H23       1.0  0.22240000000000001  0.16667  0.11837999999999997  1.0000
  H   H24       1.0  0.017319999999999957  0.51572  0.43259999999999993  1.0000
  H   H25       1.0  0.029990000000000003  0.11683  0.91115  1.0000
  H   H26       1.0  0.5933  0.39344  0.24416  1.0000
  H   H27       1.0  0.0056899999999999425  0.38395  0.35948  1.0000
  H   H28       1.0  0.70761  0.19008  0.43111  1.0000
  H   H29       1.0  0.27365  0.27246  0.3347  1.0000
  H   H30       1.0  0.4643900000000001  0.36736  0.43066  1.0000
  H   H31       1.0  0.9037299999999998  0.23347  0.91657  1.0000
  H   H32       1.0  0.52539  0.08476  0.33522  1.0000
  H   H33       1.0  0.9316200000000001  0.9676499999999998  0.34372  1.0000
  H   H34       1.0  0.8676600000000001  0.48298999999999986  0.13973  1.0000
  H   H35       1.0  0.67977  0.93519  0.4878  1.0000
  H   H36       1.0  0.7211400000000001  0.48052  0.93719  1.0000
  H   H37       1.0  0.62361  0.52822  0.32154  1.0000
  H   H38       1.0  0.75936  0.78236  0.30885  1.0000
  H   H39       1.0  0.5247399999999999  0.7483699999999998  0.45059  1.0000
  H   H40       1.0  0.07642999999999997  0.27417  0.11722999999999999  1.0000
  C   C1        1.0  0.40860999999999986  0.31668999999999997  0.95143  1.0000
  C   C2        1.0  0.34280999999999995  0.42291999999999996  0.014199999999999999  1.0000
  C   C3        1.0  0.25875  0.42146  0.89677  1.0000
  C   C4        1.0  0.61842  0.83138  0.67293  1.0000
  C   C5        1.0  0.7819499999999999  0.9342399999999998  0.9831699999999998  1.0000
  C   C6        1.0  0.84808  0.8204999999999999  0.92685  1.0000
  C   C7        1.0  0.07409999999999996  0.51272  0.60988  1.0000
  C   C8        1.0  0.95218  0.8472599999999999  0.04250999999999999  1.0000
  C   C9        1.0  0.31105  0.58099  0.71484  1.0000
  C   C10       1.0  0.85987  0.86676  0.98512  1.0000
  C   C11       1.0  0.1991099999999999  0.61999  0.7068399999999999  1.0000
  C   C12       1.0  0.19456000000000015  0.6812  0.75636  1.0000
  C   C13       1.0  0.08098  0.58604  0.65098  1.0000
  C   C14       1.0  0.33617  0.38682  0.95335  1.0000
  C   C15       1.0  0.3905300000000001  0.7942  0.5914  1.0000
  C   C16       1.0  0.6325000000000002  0.74936  0.64533  1.0000
  C   C17       1.0  0.52464  0.69582  0.59134  1.0000
  C   C18       1.0  0.08852000000000003  0.92135  0.5632699999999999  1.0000
  C   C19       1.0  0.18547999999999998  0.03071  0.58343  1.0000
  C   C20       1.0  0.024559999999999898  0.7826999999999997  0.03972  1.0000
  C   C21       1.0  0.49208999999999997  0.8527799999999998  0.64533  1.0000
  C   C22       1.0  0.16416000000000003  0.07566000000000002  0.63474  1.0000
  C   C23       1.0  0.73214  0.8941799999999998  0.72705  1.0000
  C   C24       1.0  0.19296999999999992  0.48901  0.9030299999999999  1.0000
  C   C25       1.0  0.3000300000000001  0.09541999999999999  0.55242  1.0000
  C   C26       1.0  0.27452  0.4901  0.0164  1.0000
  C   C27       1.0  0.29508  0.50624  0.67191  1.0000
  C   C28       1.0  0.25681  0.18166999999999994  0.65189  1.0000
  C   C29       1.0  0.38636  0.20026999999999998  0.57339  1.0000
  C   C30       1.0  0.9264400000000002  0.75921  0.92752  1.0000
  C   C31       1.0  0.59139  0.6833  0.048569999999999995  1.0000
  C   C32       1.0  0.6571900000000002  0.5770799999999999  0.9858  1.0000
  C   C33       1.0  0.74125  0.57854  0.10323  1.0000
  C   C34       1.0  0.38158999999999993  0.16861  0.32706  1.0000
  C   C35       1.0  0.21805000000000002  0.06575  0.01683  1.0000
  C   C36       1.0  0.15192000000000003  0.17949  0.07314  1.0000
  C   C37       1.0  0.9259099999999998  0.48727  0.39011999999999997  1.0000
  C   C38       1.0  0.04782000000000001  0.15273  0.95749  1.0000
  C   C39       1.0  0.68895  0.419  0.28516  1.0000
  C   C40       1.0  0.14013  0.13323  0.01488  1.0000
  C   C41       1.0  0.80089  0.38  0.29315  1.0000
  C   C42       1.0  0.80545  0.31878999999999996  0.24364  1.0000
  C   C43       1.0  0.91902  0.41395  0.34901999999999994  1.0000
  C   C44       1.0  0.66383  0.61317  0.04665  1.0000
  C   C45       1.0  0.60947  0.20578999999999997  0.4086  1.0000
  C   C46       1.0  0.3675  0.25063  0.35467  1.0000
  C   C47       1.0  0.47536000000000006  0.30418  0.40866  1.0000
  C   C48       1.0  0.91148  0.07864  0.43672999999999995  1.0000
  C   C49       1.0  0.81453  0.96929  0.41656  1.0000
  C   C50       1.0  0.97545  0.21729999999999997  0.96028  1.0000
  C   C51       1.0  0.50791  0.14722  0.35467  1.0000
  C   C52       1.0  0.8358400000000001  0.9243299999999998  0.36526  1.0000
  C   C53       1.0  0.26785999999999993  0.10581  0.27295  1.0000
  C   C54       1.0  0.80703  0.51099  0.09697  1.0000
  C   C55       1.0  0.69997  0.90457  0.4475799999999999  1.0000
  C   C56       1.0  0.7254799999999999  0.5098899999999998  0.9836  1.0000
  C   C57       1.0  0.70492  0.49375  0.32809  1.0000
  C   C58       1.0  0.74319  0.81833  0.3481  1.0000
  C   C59       1.0  0.61364  0.79972  0.42660999999999993  1.0000
  C   C60       1.0  0.07356  0.24078  0.07248  1.0000
  N   N1        1.0  0.06220999999999988  0.8810399999999999  0.50411  1.0000
  N   N2        1.0  0.71248  0.9536899999999999  0.76784  1.0000
  N   N3        1.0  0.06750000000000006  0.69111  0.75954  1.0000
  N   N4        1.0  0.013089999999999918  0.7382699999999999  0.9832399999999999  1.0000
  N   N5        1.0  0.94199  0.97598  0.79235  1.0000
  N   N6        1.0  0.23305999999999988  0.7450399999999999  0.85008  1.0000
  N   N7        1.0  0.008889999999999825  0.8463699999999998  0.60246  1.0000
  N   N8        1.0  0.09494  0.72882  0.8197599999999999  1.0000
  N   N9        1.0  0.87489  0.90648  0.74215  1.0000
  N   N10       1.0  0.7831699999999998  0.9854299999999998  0.03454  1.0000
  N   N11       1.0  0.17675000000000007  0.46943000000000007  0.62023  1.0000
  N   N12       1.0  0.7000300000000002  0.9581499999999998  0.92722  1.0000
  N   N13       1.0  0.49305999999999994  0.21789  0.9197599999999999  1.0000
  N   N14       1.0  0.3017099999999999  0.71898  0.8116099999999999  1.0000
  N   N15       1.0  0.65249  0.025700000000000004  0.94492  1.0000
  N   N16       1.0  0.4054000000000001  0.71756  0.5633  1.0000
  N   N17       1.0  0.7010799999999999  0.041499999999999995  0.0089  1.0000
  N   N18       1.0  0.8455599999999999  0.004559999999999996  0.80788  1.0000
  N   N19       1.0  0.53069  0.22072  0.98601  1.0000
  N   N20       1.0  0.4151999999999999  0.2776799999999999  0.8969299999999999  1.0000
  N   N21       1.0  0.93015  0.75778  0.56732  1.0000
  N   N22       1.0  0.47961  0.28242  0.0067  1.0000
  N   N23       1.0  0.36712  0.24441  0.62227  1.0000
  N   N24       1.0  0.96297  0.7801  0.5085  1.0000
  N   N25       1.0  0.19952999999999996  0.52352  0.9618699999999999  1.0000
  N   N26       1.0  0.9377899999999998  0.11895999999999997  0.49589  1.0000
  N   N27       1.0  0.28752  0.046299999999999994  0.23215999999999998  1.0000
  N   N28       1.0  0.9325  0.30889  0.24046  1.0000
  N   N29       1.0  0.9869099999999997  0.26171999999999995  0.01676  1.0000
  N   N30       1.0  0.05802000000000001  0.02401  0.20764999999999997  1.0000
  N   N31       1.0  0.76694  0.25495  0.14991  1.0000
  N   N32       1.0  0.9911100000000002  0.15363000000000002  0.39753999999999995  1.0000
  N   N33       1.0  0.9050600000000001  0.27118  0.18023  1.0000
  N   N34       1.0  0.12511  0.09350999999999997  0.25785  1.0000
  N   N35       1.0  0.21682999999999997  0.014560000000000003  0.9654599999999999  1.0000
  N   N36       1.0  0.82325  0.53056  0.37976  1.0000
  N   N37       1.0  0.29997  0.04184999999999999  0.07278  1.0000
  N   N38       1.0  0.50694  0.7821  0.08024  1.0000
  N   N39       1.0  0.6982900000000001  0.28101  0.18837999999999996  1.0000
  N   N40       1.0  0.34750999999999993  0.97429  0.05507999999999999  1.0000
  N   N41       1.0  0.5945999999999999  0.28243  0.4366999999999999  1.0000
  N   N42       1.0  0.2989200000000001  0.9585  0.99109  1.0000
  N   N43       1.0  0.15443999999999994  0.99543  0.19211999999999999  1.0000
  N   N44       1.0  0.46931  0.77928  0.013989999999999999  1.0000
  N   N45       1.0  0.5848  0.72232  0.10307  1.0000
  N   N46       1.0  0.06984999999999995  0.24220999999999998  0.43266999999999994  1.0000
  N   N47       1.0  0.5203900000000002  0.71758  0.9933  1.0000
  N   N48       1.0  0.63288  0.75558  0.37772  1.0000
  N   N49       1.0  0.03702999999999991  0.21989999999999996  0.49149999999999994  1.0000
  N   N50       1.0  0.80047  0.47647  0.03812  1.0000
