data_image0
_chemical_formula_structural       Cd10H60C30N90
_chemical_formula_sum              "Cd10 H60 C30 N90"
_cell_length_a       13.30753
_cell_length_b       13.30782
_cell_length_c       13.6562
_cell_angle_alpha    90.0
_cell_angle_beta     90.0
_cell_angle_gamma    120.06807000000002

_space_group_name_H-M_alt    "P 1"
_space_group_IT_number       1

loop_
  _space_group_symop_operation_xyz
  'x, y, z'

loop_
  _atom_site_type_symbol
  _atom_site_label
  _atom_site_symmetry_multiplicity
  _atom_site_fract_x
  _atom_site_fract_y
  _atom_site_fract_z
  _atom_site_occupancy
  Cd  Cd1       1.0  0.33302  0.66697  0.59343  1.0000
  Cd  Cd2       1.0  0.66698  0.33303  0.09343  1.0000
  Cd  Cd3       1.0  0.5  0.5  0.0  1.0000
  Cd  Cd4       1.0  0.0  0.5  0.5  1.0000
  Cd  Cd5       1.0  0.33302  0.66697  0.90657  1.0000
  Cd  Cd6       1.0  0.66698  0.33303  0.40657  1.0000
  Cd  Cd7       1.0  0.0  0.5  0.0  1.0000
  Cd  Cd8       1.0  0.5  0.0  0.0  1.0000
  Cd  Cd9       1.0  0.5  0.5  0.5  1.0000
  Cd  Cd10      1.0  0.5  0.0  0.5  1.0000
  H   H1        1.0  0.00367000000000004  0.18490000000000006  0.13818  1.0000
  H   H2        1.0  0.004000000000000088  0.8188700000000002  0.13752  1.0000
  H   H3        1.0  0.8192300000000001  0.8155500000000001  0.86259  1.0000
  H   H4        1.0  0.18077000000000001  0.18445  0.36259  1.0000
  H   H5        1.0  0.18077000000000001  0.18445  0.13741  1.0000
  H   H6        1.0  0.0556  0.31997  0.90159  1.0000
  H   H7        1.0  0.996  0.18113000000000004  0.86249  1.0000
  H   H8        1.0  0.05534999999999999  0.73597  0.90171  1.0000
  H   H9        1.0  0.00367000000000004  0.18490000000000006  0.36182  1.0000
  H   H10       1.0  0.9963300000000003  0.81511  0.63818  1.0000
  H   H11       1.0  0.83168  0.42861  0.68719  1.0000
  H   H12       1.0  0.5713900000000001  0.16831000000000002  0.68718  1.0000
  H   H13       1.0  0.9963300000000003  0.81511  0.86182  1.0000
  H   H14       1.0  0.4149200000000001  0.5857500000000001  0.18537  1.0000
  H   H15       1.0  0.26432  0.31961  0.59831  1.0000
  H   H16       1.0  0.5713900000000001  0.16831000000000002  0.81282  1.0000
  H   H17       1.0  0.8155500000000001  0.8192300000000001  0.13742  1.0000
  H   H18       1.0  0.9444  0.68003  0.40159  1.0000
  H   H19       1.0  0.8155500000000001  0.8192300000000001  0.36258  1.0000
  H   H20       1.0  0.26432  0.31961  0.90169  1.0000
  H   H21       1.0  0.16832000000000005  0.57139  0.18719000000000002  1.0000
  H   H22       1.0  0.16832000000000005  0.57139  0.31281  1.0000
  H   H23       1.0  0.31997  0.05559  0.40159  1.0000
  H   H24       1.0  0.83168  0.42861  0.81281  1.0000
  H   H25       1.0  0.05534999999999999  0.73597  0.59829  1.0000
  H   H26       1.0  0.996  0.18113000000000004  0.63752  1.0000
  H   H27       1.0  0.0556  0.31997  0.59841  1.0000
  H   H28       1.0  0.42861000000000005  0.83169  0.18718  1.0000
  H   H29       1.0  0.31997  0.05559  0.09840999999999998  1.0000
  H   H30       1.0  0.8192300000000001  0.8155500000000001  0.63741  1.0000
  H   H31       1.0  0.42861000000000005  0.83169  0.31282  1.0000
  H   H32       1.0  0.73568  0.68039  0.09831  1.0000
  H   H33       1.0  0.81887  0.004  0.86249  1.0000
  H   H34       1.0  0.58508  0.41424  0.81463  1.0000
  H   H35       1.0  0.68038  0.73568  0.90169  1.0000
  H   H36       1.0  0.18112000000000011  0.996  0.13751  1.0000
  H   H37       1.0  0.94464  0.26403  0.40171  1.0000
  H   H38       1.0  0.18488  0.003660000000000001  0.86182  1.0000
  H   H39       1.0  0.18445  0.18077  0.86258  1.0000
  H   H40       1.0  0.6800300000000002  0.9444100000000002  0.90159  1.0000
  H   H41       1.0  0.2640300000000001  0.9446500000000001  0.59829  1.0000
  H   H42       1.0  0.2640300000000001  0.9446500000000001  0.90171  1.0000
  H   H43       1.0  0.81512  0.99634  0.13818  1.0000
  H   H44       1.0  0.7359700000000001  0.05535  0.40171  1.0000
  H   H45       1.0  0.18112000000000011  0.996  0.36249  1.0000
  H   H46       1.0  0.6800300000000002  0.9444100000000002  0.59841  1.0000
  H   H47       1.0  0.18445  0.18077  0.63742  1.0000
  H   H48       1.0  0.73568  0.68039  0.40169  1.0000
  H   H49       1.0  0.31961000000000006  0.26432  0.09831  1.0000
  H   H50       1.0  0.18488  0.003660000000000001  0.63818  1.0000
  H   H51       1.0  0.9444  0.68003  0.09840999999999998  1.0000
  H   H52       1.0  0.004000000000000088  0.8188700000000002  0.36249  1.0000
  H   H53       1.0  0.68038  0.73568  0.59831  1.0000
  H   H54       1.0  0.31961000000000006  0.26432  0.40169  1.0000
  H   H55       1.0  0.58508  0.41424  0.68537  1.0000
  H   H56       1.0  0.7359700000000001  0.05535  0.09829  1.0000
  H   H57       1.0  0.81512  0.99634  0.36182  1.0000
  H   H58       1.0  0.94464  0.26403  0.09829  1.0000
  H   H59       1.0  0.81887  0.004  0.63751  1.0000
  H   H60       1.0  0.4149200000000001  0.5857500000000001  0.3146300000000001  1.0000
  C   C1        1.0  0.22487000000000007  0.34451000000000004  0.41417  1.0000
  C   C2        1.0  0.48952  0.98829  0.25  1.0000
  C   C3        1.0  0.65548  0.77513  0.08584999999999998  1.0000
  C   C4        1.0  0.6551200000000004  0.8802900000000001  0.08651  1.0000
  C   C5        1.0  0.8802900000000002  0.65511  0.9135  1.0000
  C   C6        1.0  0.51047  0.01171  0.75  1.0000
  C   C7        1.0  0.11971  0.34489  0.4135  1.0000
  C   C8        1.0  0.8802900000000002  0.65511  0.58651  1.0000
  C   C9        1.0  0.7751300000000001  0.65549  0.5858300000000001  1.0000
  C   C10       1.0  0.9882700000000001  0.48951000000000006  0.75  1.0000
  C   C11       1.0  0.34488  0.11971  0.58651  1.0000
  C   C12       1.0  0.22486000000000006  0.88057  0.41527000000000003  1.0000
  C   C13       1.0  0.11943  0.77514  0.08473  1.0000
  C   C14       1.0  0.22486000000000006  0.88057  0.08473  1.0000
  C   C15       1.0  0.88057  0.22486  0.58473  1.0000
  C   C16       1.0  0.34488  0.11971  0.91349  1.0000
  C   C17       1.0  0.65548  0.77513  0.41415  1.0000
  C   C18       1.0  0.6551200000000004  0.8802900000000001  0.41349  1.0000
  C   C19       1.0  0.3445200000000001  0.22487000000000001  0.9141500000000001  1.0000
  C   C20       1.0  0.22487000000000007  0.34451000000000004  0.08583  1.0000
  C   C21       1.0  0.49464  0.50517  0.25  1.0000
  C   C22       1.0  0.7751400000000002  0.11943000000000002  0.58473  1.0000
  C   C23       1.0  0.11943  0.77514  0.41527000000000003  1.0000
  C   C24       1.0  0.5053600000000001  0.49483000000000005  0.75  1.0000
  C   C25       1.0  0.11971  0.34489  0.08651  1.0000
  C   C26       1.0  0.7751400000000002  0.11943000000000002  0.91527  1.0000
  C   C27       1.0  0.7751300000000001  0.65549  0.91417  1.0000
  C   C28       1.0  0.3445200000000001  0.22487000000000001  0.58585  1.0000
  C   C29       1.0  0.011730000000000025  0.51049  0.25  1.0000
  C   C30       1.0  0.88057  0.22486  0.91527  1.0000
  N   N1        1.0  0.86343  0.30243  0.96619  1.0000
  N   N2        1.0  0.24989000000000008  0.49973000000000006  0.49263000000000007  1.0000
  N   N3        1.0  0.58356  0.1663  0.29825  1.0000
  N   N4        1.0  0.41644  0.8337  0.70175  1.0000
  N   N5        1.0  0.98475  0.25097  0.87106  1.0000
  N   N6        1.0  0.73423  0.7494500000000001  0.12908  1.0000
  N   N7        1.0  0.55963  0.6969500000000001  0.03616  1.0000
  N   N8        1.0  0.7338600000000002  0.98486  0.12987  1.0000
  N   N9        1.0  0.47191000000000005  0.52816  0.66874  1.0000
  N   N10       1.0  0.3030300000000002  0.44033000000000005  0.0361  1.0000
  N   N11       1.0  0.7501  0.50028  0.50737  1.0000
  N   N12       1.0  0.24989000000000008  0.49973000000000006  0.00737  1.0000
  N   N13       1.0  0.52482  0.05521000000000001  0.33112  1.0000
  N   N14       1.0  0.015139999999999994  0.26615  0.37013  1.0000
  N   N15       1.0  0.42386  0.87006  0.25  1.0000
  N   N16       1.0  0.13657  0.69757  0.46619  1.0000
  N   N17       1.0  0.44139  0.13777  0.96229  1.0000
  N   N18       1.0  0.5586100000000002  0.86223  0.46229000000000003  1.0000
  N   N19       1.0  0.015239999999999957  0.74903  0.12895  1.0000
  N   N20       1.0  0.7490400000000003  0.015250000000000003  0.87106  1.0000
  N   N21       1.0  0.26577  0.25055  0.62908  1.0000
  N   N22       1.0  0.5838000000000001  0.41628000000000004  0.29830000000000007  1.0000
  N   N23       1.0  0.69756  0.13656  0.53381  1.0000
  N   N24       1.0  0.05519999999999998  0.52482  0.83112  1.0000
  N   N25       1.0  0.69696  0.55967  0.5361  1.0000
  N   N26       1.0  0.83371  0.41643  0.29825  1.0000
  N   N27       1.0  0.5002500000000002  0.7501000000000002  0.0074  1.0000
  N   N28       1.0  0.5644900000000003  0.4365400000000001  0.75  1.0000
  N   N29       1.0  0.47518000000000005  0.9448000000000002  0.83112  1.0000
  N   N30       1.0  0.25055  0.26577  0.12906  1.0000
  N   N31       1.0  0.16629000000000008  0.5835700000000001  0.70175  1.0000
  N   N32       1.0  0.26577  0.25055  0.87092  1.0000
  N   N33       1.0  0.7490400000000003  0.015250000000000003  0.62894  1.0000
  N   N34       1.0  0.3030300000000002  0.44033000000000005  0.46390000000000003  1.0000
  N   N35       1.0  0.44139  0.13777  0.53771  1.0000
  N   N36       1.0  0.73423  0.7494500000000001  0.37092  1.0000
  N   N37       1.0  0.5280900000000001  0.4718500000000001  0.33127  1.0000
  N   N38       1.0  0.47191000000000005  0.52816  0.8312699999999998  1.0000
  N   N39       1.0  0.7501  0.50028  0.99263  1.0000
  N   N40       1.0  0.47518000000000005  0.9448000000000002  0.66888  1.0000
  N   N41       1.0  0.25055  0.26577  0.37094  1.0000
  N   N42       1.0  0.98475  0.25097  0.6289500000000001  1.0000
  N   N43       1.0  0.41644  0.8337  0.79825  1.0000
  N   N44       1.0  0.3024300000000002  0.86344  0.03381  1.0000
  N   N45       1.0  0.55963  0.6969500000000001  0.46384  1.0000
  N   N46       1.0  0.25096  0.98475  0.37106  1.0000
  N   N47       1.0  0.86343  0.30243  0.53381  1.0000
  N   N48       1.0  0.7494500000000001  0.73423  0.87094  1.0000
  N   N49       1.0  0.015239999999999957  0.74903  0.37105  1.0000
  N   N50       1.0  0.8700400000000001  0.42383  0.75  1.0000
  N   N51       1.0  0.13657  0.69757  0.03381  1.0000
  N   N52       1.0  0.75139  0.2486  0.99636  1.0000
  N   N53       1.0  0.24861000000000008  0.7514000000000001  0.49636  1.0000
  N   N54       1.0  0.5002500000000002  0.7501000000000002  0.4926  1.0000
  N   N55       1.0  0.52482  0.05521000000000001  0.16888  1.0000
  N   N56       1.0  0.86222  0.5586100000000002  0.5377  1.0000
  N   N57       1.0  0.44037  0.30305  0.53616  1.0000
  N   N58       1.0  0.4162000000000001  0.58372  0.7017  1.0000
  N   N59       1.0  0.24861000000000008  0.7514000000000001  0.00364  1.0000
  N   N60       1.0  0.4355200000000001  0.56347  0.25  1.0000
  N   N61       1.0  0.7338600000000002  0.98486  0.37013  1.0000
  N   N62       1.0  0.05519999999999998  0.52482  0.66888  1.0000
  N   N63       1.0  0.26614  0.01514  0.8701300000000001  1.0000
  N   N64       1.0  0.5586100000000002  0.86223  0.03771  1.0000
  N   N65       1.0  0.9848600000000001  0.73385  0.62988  1.0000
  N   N66       1.0  0.13777  0.44139  0.0377  1.0000
  N   N67       1.0  0.13777  0.44139  0.4623  1.0000
  N   N68       1.0  0.83371  0.41643  0.20175  1.0000
  N   N69       1.0  0.9448  0.47518  0.33112  1.0000
  N   N70       1.0  0.69756  0.13656  0.96619  1.0000
  N   N71       1.0  0.5280900000000001  0.4718500000000001  0.16873  1.0000
  N   N72       1.0  0.49975000000000014  0.24990000000000004  0.50741  1.0000
  N   N73       1.0  0.16629000000000008  0.5835700000000001  0.79825  1.0000
  N   N74       1.0  0.69696  0.55967  0.9639  1.0000
  N   N75       1.0  0.3024300000000002  0.86344  0.46619  1.0000
  N   N76       1.0  0.4162000000000001  0.58372  0.7983  1.0000
  N   N77       1.0  0.58356  0.1663  0.20175  1.0000
  N   N78       1.0  0.5761400000000001  0.12994  0.75  1.0000
  N   N79       1.0  0.9848600000000001  0.73385  0.8701300000000001  1.0000
  N   N80       1.0  0.25096  0.98475  0.12894  1.0000
  N   N81       1.0  0.26614  0.01514  0.62987  1.0000
  N   N82       1.0  0.9448  0.47518  0.16888  1.0000
  N   N83       1.0  0.49975000000000014  0.24990000000000004  0.9926  1.0000
  N   N84       1.0  0.44037  0.30305  0.96384  1.0000
  N   N85       1.0  0.86222  0.5586100000000002  0.9623  1.0000
  N   N86       1.0  0.12996  0.57617  0.25  1.0000
  N   N87       1.0  0.75139  0.2486  0.50364  1.0000
  N   N88       1.0  0.5838000000000001  0.41628000000000004  0.2017  1.0000
  N   N89       1.0  0.015139999999999994  0.26615  0.12987  1.0000
  N   N90       1.0  0.7494500000000001  0.73423  0.6290599999999998  1.0000
