data_image0
_chemical_formula_structural       Zn2H60C88O24
_chemical_formula_sum              "Zn2 H60 C88 O24"
_cell_length_a       15.90072
_cell_length_b       15.932939999999999
_cell_length_c       18.47272
_cell_angle_alpha    106.17423999999998
_cell_angle_beta     110.68314
_cell_angle_gamma    104.63019000000001

_space_group_name_H-M_alt    "P 1"
_space_group_IT_number       1

loop_
  _space_group_symop_operation_xyz
  'x, y, z'

loop_
  _atom_site_type_symbol
  _atom_site_label
  _atom_site_symmetry_multiplicity
  _atom_site_fract_x
  _atom_site_fract_y
  _atom_site_fract_z
  _atom_site_occupancy
  Zn  Zn1       1.0  0.21278999999999978  0.029829999999999853  0.9377299999999997  1.0000
  Zn  Zn2       1.0  0.7872099999999997  0.97017  0.06227  1.0000
  H   H1        1.0  0.31119  0.62622  0.14765  1.0000
  H   H2        1.0  0.7153699999999997  0.82832  0.76897  1.0000
  H   H3        1.0  0.74909  0.92104  0.5789  1.0000
  H   H4        1.0  0.52437  0.98673  0.76294  1.0000
  H   H5        1.0  0.8948499999999998  0.90203  0.85788  1.0000
  H   H6        1.0  0.44254  0.028339999999999997  0.85167  1.0000
  H   H7        1.0  0.2423499999999999  0.43787000000000004  0.2660099999999999  1.0000
  H   H8        1.0  0.5947899999999998  0.8851200000000001  0.7309699999999998  1.0000
  H   H9        1.0  0.18428  0.26858  0.17189  1.0000
  H   H10       1.0  0.39298999999999995  0.5191400000000003  0.12731  1.0000
  H   H11       1.0  0.38689000000000007  0.7555400000000002  0.12336  1.0000
  H   H12       1.0  0.2747699999999999  0.87208  0.29148  1.0000
  H   H13       1.0  0.19679999999999992  0.76328  0.69063  1.0000
  H   H14       1.0  0.33608  0.34796  0.03444  1.0000
  H   H15       1.0  0.92991  0.9943500000000001  0.6688  1.0000
  H   H16       1.0  0.2758899999999999  0.72151  0.5983199999999997  1.0000
  H   H17       1.0  0.20657999999999996  0.95024  0.19956  1.0000
  H   H18       1.0  0.19241999999999995  0.79467  0.4507199999999999  1.0000
  H   H19       1.0  0.2976599999999999  0.8688800000000001  0.44953  1.0000
  H   H20       1.0  0.29462  0.88082  0.54855  1.0000
  H   H21       1.0  0.5097899999999997  0.015860000000000006  0.43379  1.0000
  H   H22       1.0  0.49798  0.9355200000000002  0.33746  1.0000
  H   H23       1.0  0.5748  0.9383900000000002  0.43743  1.0000
  H   H24       1.0  0.32412000000000013  0.8404000000000003  0.03514  1.0000
  H   H25       1.0  0.6846199999999998  0.7004800000000002  0.44297  1.0000
  H   H26       1.0  0.58752  0.6315900000000002  0.45623  1.0000
  H   H27       1.0  0.6998699999999998  0.71755  0.54775  1.0000
  H   H28       1.0  0.4433299999999999  0.61405  0.51127  1.0000
  H   H29       1.0  0.3624  0.49194999999999994  0.44521  1.0000
  H   H30       1.0  0.3172399999999999  0.5845900000000003  0.4442099999999999  1.0000
  H   H31       1.0  0.6887900000000001  0.3737800000000001  0.85234  1.0000
  H   H32       1.0  0.28467  0.1717  0.23104  1.0000
  H   H33       1.0  0.25093  0.07895  0.42109  1.0000
  H   H34       1.0  0.4756  0.013260000000000001  0.23703  1.0000
  H   H35       1.0  0.10517  0.098  0.14211  1.0000
  H   H36       1.0  0.55742  0.97167  0.14828  1.0000
  H   H37       1.0  0.75766  0.56212  0.73398  1.0000
  H   H38       1.0  0.4052099999999999  0.11487  0.26902  1.0000
  H   H39       1.0  0.8157299999999997  0.7314300000000001  0.8281  1.0000
  H   H40       1.0  0.60702  0.48087  0.87268  1.0000
  H   H41       1.0  0.6131  0.24445999999999996  0.87663  1.0000
  H   H42       1.0  0.72521  0.12792  0.70851  1.0000
  H   H43       1.0  0.8031599999999998  0.23673  0.30933  1.0000
  H   H44       1.0  0.6639499999999998  0.6520400000000002  0.96556  1.0000
  H   H45       1.0  0.07009999999999994  0.005649999999999987  0.33117  1.0000
  H   H46       1.0  0.7241  0.27849  0.40166  1.0000
  H   H47       1.0  0.7934199999999999  0.04977000000000002  0.80043  1.0000
  H   H48       1.0  0.8075799999999997  0.20533  0.54927  1.0000
  H   H49       1.0  0.7023399999999997  0.13112000000000001  0.55046  1.0000
  H   H50       1.0  0.7053899999999999  0.11915999999999995  0.4514499999999999  1.0000
  H   H51       1.0  0.4902099999999999  0.98414  0.56621  1.0000
  H   H52       1.0  0.50202  0.06447999999999995  0.66254  1.0000
  H   H53       1.0  0.4252000000000001  0.06161000000000004  0.56257  1.0000
  H   H54       1.0  0.67586  0.15961000000000003  0.96485  1.0000
  H   H55       1.0  0.31538  0.29951  0.55702  1.0000
  H   H56       1.0  0.4124899999999999  0.3684  0.54376  1.0000
  H   H57       1.0  0.30013  0.28244  0.45224  1.0000
  H   H58       1.0  0.5566700000000002  0.38596000000000014  0.48872  1.0000
  H   H59       1.0  0.6376  0.50806  0.55478  1.0000
  H   H60       1.0  0.68276  0.41542  0.55578  1.0000
  C   C1        1.0  0.46085999999999994  0.7672500000000001  0.48654  1.0000
  C   C2        1.0  0.3434599999999999  0.6547  0.21637  1.0000
  C   C3        1.0  0.39918  0.78395  0.35011  1.0000
  C   C4        1.0  0.6121299999999997  0.83516  0.61894  1.0000
  C   C5        1.0  0.56168  0.7909200000000004  0.52938  1.0000
  C   C6        1.0  0.3342799999999999  0.80683  0.21325  1.0000
  C   C7        1.0  0.0317099999999999  0.9951699999999999  0.8199999999999997  1.0000
  C   C8        1.0  0.26237  0.90089  0.11276  1.0000
  C   C9        1.0  0.32264999999999994  0.49070000000000014  0.20387  1.0000
  C   C10       1.0  0.41142999999999996  0.7239399999999999  0.39246  1.0000
  C   C11       1.0  0.45606  0.8283999999999999  0.62172  1.0000
  C   C12       1.0  0.9234099999999997  0.95087  0.76746  1.0000
  C   C13       1.0  0.38688999999999996  0.62761  0.3449299999999999  1.0000
  C   C14       1.0  0.40851  0.78647  0.53206  1.0000
  C   C15       1.0  0.35278  0.59179  0.2555199999999999  1.0000
  C   C16       1.0  0.7618600000000001  0.8640000000000002  0.7462299999999997  1.0000
  C   C17       1.0  0.7810299999999998  0.9160900000000001  0.63936  1.0000
  C   C18       1.0  0.45242  0.93738  0.74629  1.0000
  C   C19       1.0  0.25897  0.29812  0.09904  1.0000
  C   C20       1.0  0.8628  0.9043300000000002  0.79606  1.0000
  C   C21       1.0  0.7192  0.86958  0.6675  1.0000
  C   C22       1.0  0.40705  0.96126  0.7964  1.0000
  C   C23       1.0  0.2642899999999999  0.41872999999999994  0.21641  1.0000
  C   C24       1.0  0.22548999999999994  0.19542  0.04493  1.0000
  C   C25       1.0  0.55694  0.8513400000000004  0.66214  1.0000
  C   C26       1.0  0.23182  0.32391  0.16402  1.0000
  C   C27       1.0  0.3471599999999999  0.46415999999999996  0.13687  1.0000
  C   C28       1.0  0.3140999999999998  0.89864  0.77569  1.0000
  C   C29       1.0  0.34762  0.79833  0.14009999999999995  1.0000
  C   C30       1.0  0.40574999999999994  0.85117  0.67363  1.0000
  C   C31       1.0  0.36208  0.7499500000000002  0.26065  1.0000
  C   C32       1.0  0.2857999999999999  0.86501  0.2357  1.0000
  C   C33       1.0  0.26797  0.8116900000000002  0.70462  1.0000
  C   C34       1.0  0.3160699999999999  0.36911  0.08522  1.0000
  C   C35       1.0  0.8816899999999998  0.95667  0.68906  1.0000
  C   C36       1.0  0.3125899999999999  0.78847  0.6536899999999999  1.0000
  C   C37       1.0  0.22096000000000005  0.9481800000000002  0.05809  1.0000
  C   C38       1.0  0.24821000000000004  0.9093600000000002  0.18494  1.0000
  C   C39       1.0  0.2720999999999998  0.8311299999999999  0.4840399999999999  1.0000
  C   C40       1.0  0.2641  0.9230200000000002  0.8287399999999998  1.0000
  C   C41       1.0  0.5073800000000002  0.9457000000000002  0.40145  1.0000
  C   C42       1.0  0.3129899999999999  0.84537  0.09081  1.0000
  C   C43       1.0  0.6474699999999997  0.70107  0.48295  1.0000
  C   C44       1.0  0.38007999999999986  0.56516  0.45028  1.0000
  C   C45       1.0  0.5391499999999999  0.23274999999999993  0.5134499999999997  1.0000
  C   C46       1.0  0.65653  0.3453  0.78362  1.0000
  C   C47       1.0  0.6008199999999998  0.21605000000000002  0.64988  1.0000
  C   C48       1.0  0.38787999999999995  0.16483999999999993  0.3810499999999999  1.0000
  C   C49       1.0  0.4383199999999999  0.20907  0.47061  1.0000
  C   C50       1.0  0.66571  0.19317  0.78674  1.0000
  C   C51       1.0  0.9683099999999998  0.004860000000000013  0.18  1.0000
  C   C52       1.0  0.7376399999999996  0.09913  0.8872499999999998  1.0000
  C   C53       1.0  0.6773400000000002  0.5093  0.79612  1.0000
  C   C54       1.0  0.5885799999999998  0.27606  0.60753  1.0000
  C   C55       1.0  0.54394  0.17159  0.37827  1.0000
  C   C56       1.0  0.07661000000000001  0.04915000000000001  0.23253  1.0000
  C   C57       1.0  0.6131099999999998  0.37239  0.65506  1.0000
  C   C58       1.0  0.5914899999999997  0.21353  0.46793  1.0000
  C   C59       1.0  0.64721  0.40821  0.74447  1.0000
  C   C60       1.0  0.23817  0.13601  0.25376  1.0000
  C   C61       1.0  0.21899000000000005  0.08391000000000004  0.36063  1.0000
  C   C62       1.0  0.5475499999999999  0.06260999999999994  0.2536699999999999  1.0000
  C   C63       1.0  0.74104  0.70189  0.90094  1.0000
  C   C64       1.0  0.13721999999999995  0.0957  0.20393  1.0000
  C   C65       1.0  0.28082  0.13043  0.33249  1.0000
  C   C66       1.0  0.59291  0.03874999999999998  0.20356999999999997  1.0000
  C   C67       1.0  0.7357200000000003  0.5812800000000002  0.78358  1.0000
  C   C68       1.0  0.7744799999999998  0.8045899999999999  0.9550099999999998  1.0000
  C   C69       1.0  0.44306  0.14865  0.33785  1.0000
  C   C70       1.0  0.7681699999999996  0.6760699999999998  0.8359699999999998  1.0000
  C   C71       1.0  0.65284  0.53583  0.86312  1.0000
  C   C72       1.0  0.6858599999999998  0.10136  0.22428  1.0000
  C   C73       1.0  0.6523699999999998  0.20167  0.85989  1.0000
  C   C74       1.0  0.59423  0.14883  0.32635  1.0000
  C   C75       1.0  0.63791  0.25005  0.73935  1.0000
  C   C76       1.0  0.7141899999999999  0.13498999999999986  0.7642899999999998  1.0000
  C   C77       1.0  0.7320099999999998  0.18830999999999995  0.29534999999999995  1.0000
  C   C78       1.0  0.6839299999999998  0.6309  0.9147799999999998  1.0000
  C   C79       1.0  0.11833  0.04334  0.31092  1.0000
  C   C80       1.0  0.68739  0.21153  0.34629  1.0000
  C   C81       1.0  0.77908  0.05187000000000002  0.94192  1.0000
  C   C82       1.0  0.75179  0.09066  0.81505  1.0000
  C   C83       1.0  0.7278999999999998  0.16887000000000002  0.51595  1.0000
  C   C84       1.0  0.7358699999999998  0.07696  0.17125  1.0000
  C   C85       1.0  0.4926199999999999  0.054299999999999904  0.5985399999999997  1.0000
  C   C86       1.0  0.6870099999999998  0.15464000000000006  0.90919  1.0000
  C   C87       1.0  0.35253999999999996  0.29892  0.51704  1.0000
  C   C88       1.0  0.61992  0.43485  0.54971  1.0000
  O   O1        1.0  0.60842  0.7737600000000001  0.47996  1.0000
  O   O2        1.0  0.08271000000000003  0.06292000000000005  0.81174  1.0000
  O   O3        1.0  0.40179  0.56473  0.38026  1.0000
  O   O4        1.0  0.30911  0.7568300000000001  0.48504  1.0000
  O   O5        1.0  0.06921999999999998  0.96043  0.87259  1.0000
  O   O6        1.0  0.42513  0.87755  0.39935  1.0000
  O   O7        1.0  0.2730799999999999  0.17166  0.00442  1.0000
  O   O8        1.0  0.1386000000000001  0.9487000000000002  0.04659  1.0000
  O   O9        1.0  0.2725  0.98359  0.02561  1.0000
  O   O10       1.0  0.15272  0.13706  0.04155  1.0000
  O   O11       1.0  0.2887999999999999  0.012089999999999962  0.87201  1.0000
  O   O12       1.0  0.20134999999999992  0.85744  0.8293699999999999  1.0000
  O   O13       1.0  0.39158999999999977  0.2262299999999999  0.5200199999999998  1.0000
  O   O14       1.0  0.9173099999999995  0.93711  0.18827  1.0000
  O   O15       1.0  0.5981999999999997  0.43526999999999993  0.61973  1.0000
  O   O16       1.0  0.6908900000000001  0.24317  0.51494  1.0000
  O   O17       1.0  0.9307899999999998  0.0396  0.12742  1.0000
  O   O18       1.0  0.57487  0.12244000000000005  0.60065  1.0000
  O   O19       1.0  0.7269199999999998  0.8283400000000002  0.99558  1.0000
  O   O20       1.0  0.8614599999999998  0.051410000000000004  0.95345  1.0000
  O   O21       1.0  0.7275299999999998  0.01642000000000001  0.97439  1.0000
  O   O22       1.0  0.8471500000000001  0.8629600000000002  0.9583  1.0000
  O   O23       1.0  0.7112000000000002  0.9879200000000001  0.12798  1.0000
  O   O24       1.0  0.7986299999999997  0.14259  0.17061  1.0000
