data_image0
_chemical_formula_structural       Cd4H48C92Br16N24O16
_chemical_formula_sum              "Cd4 H48 C92 Br16 N24 O16"
_cell_length_a       13.285
_cell_length_b       14.03694
_cell_length_c       18.91091
_cell_angle_alpha    90.70155999999999
_cell_angle_beta     108.56977
_cell_angle_gamma    94.03535999999998

_symmetry_space_group_name_H-M    'P 1'
_symmetry_Int_Tables_number       1

loop_
  _symmetry_equiv_pos_as_xyz
  'x,y,z'

loop_
  _atom_site_type_symbol
  _atom_site_label
  _atom_site_symmetry_multiplicity
  _atom_site_fract_x
  _atom_site_fract_y
  _atom_site_fract_z
  _atom_site_occupancy
  Cd  Cd1       1.0  0.9331600000000002  0.46452  0.19538  1.0000
  Cd  Cd2       1.0  0.47191  0.88997  0.58074  1.0000
  Cd  Cd3       1.0  0.06684000000000001  0.53547  0.80463  1.0000
  Cd  Cd4       1.0  0.52809  0.11003  0.41926  1.0000
  H   H1        1.0  0.18069  0.4368  0.17231  1.0000
  H   H2        1.0  0.87667  0.40077  0.01027  1.0000
  H   H3        1.0  0.02378000000000006  0.3267  0.9510100000000001  1.0000
  H   H4        1.0  0.19678000000000012  0.3561000000000001  0.9423100000000001  1.0000
  H   H5        1.0  0.48493  0.22208  0.05676  1.0000
  H   H6        1.0  0.28059000000000006  0.30841000000000013  0.17834  1.0000
  H   H7        1.0  0.35101  0.16377  0.24260000000000004  1.0000
  H   H8        1.0  0.61401  0.27793  0.17908  1.0000
  H   H9        1.0  0.68563  0.20153  0.3205  1.0000
  H   H10       1.0  0.20522000000000007  0.28641  0.84282  1.0000
  H   H11       1.0  0.4974300000000001  0.24223  0.8089500000000001  1.0000
  H   H12       1.0  0.5324300000000001  0.25757  0.96047  1.0000
  H   H13       1.0  0.05973000000000005  0.44667  0.3746500000000001  1.0000
  H   H14       1.0  0.11404  0.2636  0.21485  1.0000
  H   H15       1.0  0.2669200000000001  0.23949000000000004  0.35235  1.0000
  H   H16       1.0  0.27928  0.61438  0.5946  1.0000
  H   H17       1.0  0.18680000000000005  0.69002  0.69381  1.0000
  H   H18       1.0  0.15576  0.39033000000000007  0.70078  1.0000
  H   H19       1.0  0.19085000000000005  0.48794  0.4887  1.0000
  H   H20       1.0  0.25493000000000005  0.19525  0.46035000000000004  1.0000
  H   H21       1.0  0.31086000000000014  0.3164800000000001  0.6817600000000001  1.0000
  H   H22       1.0  0.39006  0.10868999999999998  0.5178  1.0000
  H   H23       1.0  0.28998  0.15816  0.70645  1.0000
  H   H24       1.0  0.36292  0.9769900000000001  0.71092  1.0000
  H   H25       1.0  0.8193100000000003  0.5631900000000001  0.8276900000000001  1.0000
  H   H26       1.0  0.12333000000000012  0.59923  0.98973  1.0000
  H   H27       1.0  0.9762200000000001  0.6732900000000003  0.04899000000000001  1.0000
  H   H28       1.0  0.8032199999999999  0.6439  0.05769  1.0000
  H   H29       1.0  0.5150700000000001  0.7779100000000001  0.9432400000000001  1.0000
  H   H30       1.0  0.71941  0.6915800000000002  0.82166  1.0000
  H   H31       1.0  0.64899  0.8362200000000001  0.7574  1.0000
  H   H32       1.0  0.38599  0.72206  0.82092  1.0000
  H   H33       1.0  0.31437  0.79846  0.6795  1.0000
  H   H34       1.0  0.79478  0.71359  0.15719  1.0000
  H   H35       1.0  0.50257  0.75777  0.19105  1.0000
  H   H36       1.0  0.46757000000000004  0.74242  0.03953  1.0000
  H   H37       1.0  0.9402699999999999  0.55333  0.62536  1.0000
  H   H38       1.0  0.8859600000000002  0.7364  0.78515  1.0000
  H   H39       1.0  0.73308  0.7605  0.64765  1.0000
  H   H40       1.0  0.72072  0.3856200000000001  0.4054  1.0000
  H   H41       1.0  0.8132  0.30998  0.3061900000000001  1.0000
  H   H42       1.0  0.84424  0.60967  0.29922  1.0000
  H   H43       1.0  0.8091500000000003  0.51206  0.5113  1.0000
  H   H44       1.0  0.74507  0.80474  0.5396500000000001  1.0000
  H   H45       1.0  0.6891400000000002  0.6835200000000002  0.31824  1.0000
  H   H46       1.0  0.6099400000000001  0.8913000000000002  0.4822000000000001  1.0000
  H   H47       1.0  0.71002  0.84183  0.29355  1.0000
  H   H48       1.0  0.63708  0.02301  0.28908  1.0000
  C   C1        1.0  0.11682  0.41615  0.12132  1.0000
  C   C2        1.0  0.9617  0.39631000000000005  0.03486  1.0000
  C   C3        1.0  0.03289  0.35929  0.00517  1.0000
  C   C4        1.0  0.22709  0.3326900000000001  0.05948  1.0000
  C   C5        1.0  0.24882000000000007  0.32636  0.99228  1.0000
  C   C6        1.0  0.34156000000000003  0.28544  0.9913400000000001  1.0000
  C   C7        1.0  0.4129900000000002  0.25399  0.05700000000000001  1.0000
  C   C8        1.0  0.38984  0.26299  0.1236  1.0000
  C   C9        1.0  0.29699  0.30173  0.12587  1.0000
  C   C10       1.0  0.43244  0.185  0.24617  1.0000
  C   C11       1.0  0.57178  0.24201000000000006  0.21314  1.0000
  C   C12       1.0  0.6055299999999998  0.20417  0.28251  1.0000
  C   C13       1.0  0.28881  0.27669  0.85231  1.0000
  C   C14       1.0  0.44069000000000014  0.25204  0.83826  1.0000
  C   C15       1.0  0.45992000000000005  0.25862  0.9138000000000001  1.0000
  C   C16       1.0  0.09448000000000001  0.39450000000000013  0.34885  1.0000
  C   C17       1.0  0.12583  0.29856  0.26854  1.0000
  C   C18       1.0  0.20083000000000006  0.28439  0.3358700000000001  1.0000
  C   C19       1.0  0.2384400000000001  0.58001  0.6301700000000001  1.0000
  C   C20       1.0  0.19383  0.6163500000000001  0.68005  1.0000
  C   C21       1.0  0.17749999999999994  0.46195  0.6875  1.0000
  C   C22       1.0  0.24765  0.40859  0.5891  1.0000
  C   C23       1.0  0.21937  0.42078  0.51206  1.0000
  C   C24       1.0  0.22322000000000006  0.3430000000000001  0.46631  1.0000
  C   C25       1.0  0.25831000000000004  0.2566200000000001  0.49666000000000005  1.0000
  C   C26       1.0  0.29240000000000016  0.24855000000000005  0.5739300000000003  1.0000
  C   C27       1.0  0.28700000000000003  0.32393000000000005  0.62136  1.0000
  C   C28       1.0  0.37059  0.09458  0.56817  1.0000
  C   C29       1.0  0.3188000000000001  0.11925  0.66779  1.0000
  C   C30       1.0  0.3558200000000002  0.030440000000000012  0.6692800000000002  1.0000
  C   C31       1.0  0.4641  0.69488  0.53926  1.0000
  C   C32       1.0  0.4831100000000001  0.59431  0.5188700000000002  1.0000
  C   C33       1.0  0.52032  0.52807  0.57427  1.0000
  C   C34       1.0  0.5368  0.43461999999999995  0.556  1.0000
  C   C35       1.0  0.7009000000000002  0.42432  0.08962  1.0000
  C   C36       1.0  0.5971  0.46333  0.042760000000000006  1.0000
  C   C37       1.0  0.52497  0.49382  0.07700000000000003  1.0000
  C   C38       1.0  0.42913  0.52922  0.03468  1.0000
  C   C39       1.0  0.017339999999999994  0.66762  0.23048  1.0000
  C   C40       1.0  0.09286  0.753  0.26892  1.0000
  C   C41       1.0  0.18250000000000005  0.7776600000000001  0.24716000000000002  1.0000
  C   C42       1.0  0.25997  0.84863  0.28648  1.0000
  C   C43       1.0  0.24963000000000002  0.89683  0.34887000000000007  1.0000
  C   C44       1.0  0.15691000000000005  0.87687  0.36788  1.0000
  C   C45       1.0  0.07935  0.80583  0.32823  1.0000
  C   C46       1.0  0.34124  0.96379  0.39673  1.0000
  C   C47       1.0  0.8831800000000002  0.58385  0.87868  1.0000
  C   C48       1.0  0.03830000000000012  0.6036800000000002  0.9651500000000001  1.0000
  C   C49       1.0  0.96711  0.6407100000000001  0.9948300000000001  1.0000
  C   C50       1.0  0.77291  0.6673000000000002  0.94052  1.0000
  C   C51       1.0  0.7511800000000002  0.67363  0.00772  1.0000
  C   C52       1.0  0.6584400000000001  0.71455  0.008660000000000003  1.0000
  C   C53       1.0  0.58701  0.746  0.9430000000000001  1.0000
  C   C54       1.0  0.61016  0.73701  0.8764000000000001  1.0000
  C   C55       1.0  0.7030100000000001  0.69827  0.87413  1.0000
  C   C56       1.0  0.56756  0.8150000000000001  0.75384  1.0000
  C   C57       1.0  0.42822  0.75798  0.78686  1.0000
  C   C58       1.0  0.39447  0.79583  0.71749  1.0000
  C   C59       1.0  0.7111900000000002  0.72331  0.14769  1.0000
  C   C60       1.0  0.55931  0.74795  0.16174  1.0000
  C   C61       1.0  0.54008  0.74137  0.0862  1.0000
  C   C62       1.0  0.9055200000000002  0.60549  0.65115  1.0000
  C   C63       1.0  0.87417  0.7014399999999998  0.73146  1.0000
  C   C64       1.0  0.7991700000000002  0.7156  0.66413  1.0000
  C   C65       1.0  0.76156  0.41999000000000003  0.36983000000000005  1.0000
  C   C66       1.0  0.8061700000000002  0.38364  0.31995  1.0000
  C   C67       1.0  0.8225  0.53804  0.3125  1.0000
  C   C68       1.0  0.75235  0.5914  0.4109  1.0000
  C   C69       1.0  0.78063  0.57921  0.48794  1.0000
  C   C70       1.0  0.7767800000000002  0.6569900000000002  0.53369  1.0000
  C   C71       1.0  0.7416900000000001  0.7433800000000002  0.50334  1.0000
  C   C72       1.0  0.7076  0.7514400000000001  0.42607  1.0000
  C   C73       1.0  0.713  0.67607  0.37864  1.0000
  C   C74       1.0  0.6294100000000002  0.90542  0.43184000000000006  1.0000
  C   C75       1.0  0.6812  0.88075  0.33221  1.0000
  C   C76       1.0  0.64418  0.96956  0.33072  1.0000
  C   C77       1.0  0.5359  0.30512  0.46074000000000004  1.0000
  C   C78       1.0  0.5168900000000001  0.4056900000000001  0.48113  1.0000
  C   C79       1.0  0.47968000000000005  0.47193  0.42574  1.0000
  C   C80       1.0  0.4632  0.56537  0.4440000000000001  1.0000
  C   C81       1.0  0.2991  0.57567  0.91038  1.0000
  C   C82       1.0  0.4029  0.53667  0.9572400000000001  1.0000
  C   C83       1.0  0.4750300000000001  0.50617  0.9230000000000002  1.0000
  C   C84       1.0  0.5708700000000001  0.47077  0.9653300000000001  1.0000
  C   C85       1.0  0.9826600000000003  0.33238000000000006  0.7695200000000002  1.0000
  C   C86       1.0  0.9071400000000002  0.24700000000000005  0.73108  1.0000
  C   C87       1.0  0.8175  0.22234000000000004  0.75284  1.0000
  C   C88       1.0  0.74003  0.15137000000000003  0.71353  1.0000
  C   C89       1.0  0.7503700000000001  0.10316000000000004  0.6511300000000001  1.0000
  C   C90       1.0  0.8430900000000002  0.12313  0.63212  1.0000
  C   C91       1.0  0.9206500000000002  0.19417  0.6717700000000002  1.0000
  C   C92       1.0  0.65876  0.0362  0.60327  1.0000
  Br  Br1       1.0  0.54757  0.56796  0.67676  1.0000
  Br  Br2       1.0  0.58547  0.34344  0.6315  1.0000
  Br  Br3       1.0  0.5610700000000001  0.48765  0.18329  1.0000
  Br  Br4       1.0  0.33184  0.56961  0.0835  1.0000
  Br  Br5       1.0  0.9525600000000002  0.77914  0.35516  1.0000
  Br  Br6       1.0  0.14044000000000006  0.94845  0.45033  1.0000
  Br  Br7       1.0  0.19871  0.71021  0.1631  1.0000
  Br  Br8       1.0  0.38546  0.8786800000000001  0.2588  1.0000
  Br  Br9       1.0  0.45243  0.43204  0.32324000000000014  1.0000
  Br  Br10      1.0  0.41453  0.65655  0.3685  1.0000
  Br  Br11      1.0  0.43893000000000004  0.51235  0.81671  1.0000
  Br  Br12      1.0  0.6681600000000004  0.43039  0.9165000000000001  1.0000
  Br  Br13      1.0  0.04744000000000009  0.22085000000000002  0.6448500000000003  1.0000
  Br  Br14      1.0  0.8595600000000002  0.05154  0.54967  1.0000
  Br  Br15      1.0  0.80129  0.28979  0.8369  1.0000
  Br  Br16      1.0  0.6145400000000002  0.12132  0.7412  1.0000
  N   N1        1.0  0.014759999999999997  0.43145  0.10697  1.0000
  N   N2        1.0  0.13154999999999997  0.37126  0.06101000000000001  1.0000
  N   N3        1.0  0.36249  0.27519  0.92302  1.0000
  N   N4        1.0  0.3339800000000001  0.26268  0.8004100000000001  1.0000
  N   N5        1.0  0.461  0.23017000000000007  0.19062  1.0000
  N   N6        1.0  0.5187000000000002  0.16852000000000003  0.3021300000000001  1.0000
  N   N7        1.0  0.06006000000000003  0.3673400000000001  0.27723  1.0000
  N   N8        1.0  0.18034000000000003  0.34605  0.38718  1.0000
  N   N9        1.0  0.22791000000000006  0.481  0.63559  1.0000
  N   N10       1.0  0.15585000000000004  0.54247  0.71489  1.0000
  N   N11       1.0  0.32822  0.15964000000000003  0.603  1.0000
  N   N12       1.0  0.38729  0.015780000000000006  0.60688  1.0000
  N   N13       1.0  0.9852400000000001  0.56855  0.89303  1.0000
  N   N14       1.0  0.86845  0.62874  0.9389900000000001  1.0000
  N   N15       1.0  0.63751  0.7248  0.07698  1.0000
  N   N16       1.0  0.66602  0.73732  0.19959  1.0000
  N   N17       1.0  0.539  0.7698300000000002  0.80938  1.0000
  N   N18       1.0  0.4813  0.83147  0.69787  1.0000
  N   N19       1.0  0.93994  0.63266  0.72277  1.0000
  N   N20       1.0  0.81966  0.65395  0.61282  1.0000
  N   N21       1.0  0.77209  0.519  0.36441  1.0000
  N   N22       1.0  0.8441500000000002  0.45752  0.28512  1.0000
  N   N23       1.0  0.67178  0.8403500000000002  0.397  1.0000
  N   N24       1.0  0.61271  0.9842200000000002  0.3931200000000001  1.0000
  O   O1        1.0  0.7811100000000001  0.48633  0.10376  1.0000
  O   O2        1.0  0.6985300000000002  0.34004  0.10961000000000003  1.0000
  O   O3        1.0  0.035030000000000006  0.591  0.26697  1.0000
  O   O4        1.0  0.9490100000000001  0.67684  0.16821  1.0000
  O   O5        1.0  0.543  0.7573700000000001  0.54955  1.0000
  O   O6        1.0  0.37502  0.70994  0.5451  1.0000
  O   O7        1.0  0.34901000000000004  0.04836  0.37474000000000013  1.0000
  O   O8        1.0  0.4048  0.9282  0.4528400000000001  1.0000
  O   O9        1.0  0.2188900000000001  0.51367  0.8962500000000001  1.0000
  O   O10       1.0  0.30147  0.65996  0.89039  1.0000
  O   O11       1.0  0.96497  0.40899  0.73303  1.0000
  O   O12       1.0  0.05099000000000002  0.32316  0.8318  1.0000
  O   O13       1.0  0.457  0.24263000000000007  0.45045  1.0000
  O   O14       1.0  0.62498  0.29005  0.4549000000000001  1.0000
  O   O15       1.0  0.65099  0.95164  0.62526  1.0000
  O   O16       1.0  0.5952  0.07179000000000002  0.54716  1.0000
