data_image0
_chemical_formula_structural       Nd4H52C84N8O24
_chemical_formula_sum              "Nd4 H52 C84 N8 O24"
_cell_length_a       14.13727
_cell_length_b       15.374329999999999
_cell_length_c       15.71851
_cell_angle_alpha    95.71446999999999
_cell_angle_beta     113.21651
_cell_angle_gamma    90.49838

_space_group_name_H-M_alt    "P 1"
_space_group_IT_number       1

loop_
  _space_group_symop_operation_xyz
  'x, y, z'

loop_
  _atom_site_type_symbol
  _atom_site_label
  _atom_site_symmetry_multiplicity
  _atom_site_fract_x
  _atom_site_fract_y
  _atom_site_fract_z
  _atom_site_occupancy
  Nd  Nd1       1.0  0.5066699999999998  0.50693  0.12982  1.0000
  Nd  Nd2       1.0  0.8905999999999998  0.9821200000000001  0.8719800000000002  1.0000
  Nd  Nd3       1.0  0.4925300000000001  0.4903800000000001  0.86982  1.0000
  Nd  Nd4       1.0  0.11069999999999998  0.022  0.12669  1.0000
  H   H1        1.0  0.86947  0.4672  0.37735000000000013  1.0000
  H   H2        1.0  0.98808  0.40499  0.51925  1.0000
  H   H3        1.0  0.72841  0.2925  0.55326  1.0000
  H   H4        1.0  0.61048  0.35529  0.41306  1.0000
  H   H5        1.0  0.21339000000000002  0.3998900000000001  0.7924900000000002  1.0000
  H   H6        1.0  0.23844999999999997  0.26774  0.03198  1.0000
  H   H7        1.0  0.9785299999999999  0.20411000000000004  0.7714000000000002  1.0000
  H   H8        1.0  0.72406  0.06075  0.54946  1.0000
  H   H9        1.0  0.72055  0.11687000000000002  0.40477000000000013  1.0000
  H   H10       1.0  0.04958  0.12035  0.51336  1.0000
  H   H11       1.0  0.053150000000000135  0.06176000000000002  0.6560300000000002  1.0000
  H   H12       1.0  0.68115  0.29531  0.21331  1.0000
  H   H13       1.0  0.71818  0.23612  0.9531800000000001  1.0000
  H   H14       1.0  0.8856899999999998  0.09519  0.18873000000000004  1.0000
  H   H15       1.0  0.3243699999999999  0.67508  0.15619  1.0000
  H   H16       1.0  0.16837999999999995  0.69073  0.19533  1.0000
  H   H17       1.0  0.10454999999999998  0.56091  0.24658  1.0000
  H   H18       1.0  0.21107999999999996  0.42877  0.2771  1.0000
  H   H19       1.0  0.3727499999999999  0.43090000000000006  0.24663  1.0000
  H   H20       1.0  0.62816  0.03394000000000001  0.78588  1.0000
  H   H21       1.0  0.44364999999999993  0.98889  0.74213  1.0000
  H   H22       1.0  0.3950399999999999  0.83204  0.74212  1.0000
  H   H23       1.0  0.5372  0.7264400000000001  0.79144  1.0000
  H   H24       1.0  0.71862  0.78277  0.83438  1.0000
  H   H25       1.0  0.8918299999999998  0.2683900000000001  0.6630900000000002  1.0000
  H   H26       1.0  0.9525999999999998  0.15667000000000006  0.3515300000000001  1.0000
  H   H27       1.0  0.13071  0.53278  0.62253  1.0000
  H   H28       1.0  0.012299999999999974  0.59494  0.4809  1.0000
  H   H29       1.0  0.2715199999999999  0.70729  0.44684  1.0000
  H   H30       1.0  0.3892300000000001  0.6445200000000001  0.5869400000000001  1.0000
  H   H31       1.0  0.7868  0.60035  0.20764  1.0000
  H   H32       1.0  0.7621300000000001  0.7326300000000001  0.9684000000000003  1.0000
  H   H33       1.0  0.02219000000000001  0.79596  0.22924000000000005  1.0000
  H   H34       1.0  0.2760899999999999  0.9393200000000003  0.45042  1.0000
  H   H35       1.0  0.27988  0.88319  0.59506  1.0000
  H   H36       1.0  0.94987  0.8798400000000002  0.48624  1.0000
  H   H37       1.0  0.94686  0.93825  0.34399  1.0000
  H   H38       1.0  0.31837000000000004  0.70504  0.7864400000000001  1.0000
  H   H39       1.0  0.28177  0.7638700000000003  0.046980000000000015  1.0000
  H   H40       1.0  0.11473999999999993  0.90452  0.8116  1.0000
  H   H41       1.0  0.67605  0.32481  0.8439  1.0000
  H   H42       1.0  0.83197  0.30923  0.80494  1.0000
  H   H43       1.0  0.8953699999999998  0.43933  0.7532100000000002  1.0000
  H   H44       1.0  0.7889199999999998  0.57117  0.72315  1.0000
  H   H45       1.0  0.62754  0.56918  0.7528900000000002  1.0000
  H   H46       1.0  0.37192  0.96497  0.21441  1.0000
  H   H47       1.0  0.55645  0.01115  0.2579  1.0000
  H   H48       1.0  0.6043599999999998  0.16804999999999998  0.2576  1.0000
  H   H49       1.0  0.46307  0.27407  0.2086  1.0000
  H   H50       1.0  0.28139000000000003  0.21772  0.16563000000000005  1.0000
  H   H51       1.0  0.10843999999999994  0.73165  0.33729  1.0000
  H   H52       1.0  0.04726000000000004  0.84335  0.6483200000000001  1.0000
  C   C1        1.0  0.6575899999999999  0.45969999999999994  0.30315  1.0000
  C   C2        1.0  0.73066  0.41823  0.38581000000000004  1.0000
  C   C3        1.0  0.8385099999999998  0.42904  0.4162  1.0000
  C   C4        1.0  0.9053199999999998  0.39376  0.4956100000000001  1.0000
  C   C5        1.0  0.86783  0.3449400000000001  0.5480900000000001  1.0000
  C   C6        1.0  0.75994  0.33029  0.51449  1.0000
  C   C7        1.0  0.69311  0.36603000000000013  0.43536000000000014  1.0000
  C   C8        1.0  0.9342099999999998  0.31079  0.63587  1.0000
  C   C9        1.0  0.08720000000000006  0.30637  0.7718200000000002  1.0000
  C   C10       1.0  0.18293999999999994  0.35277  0.82479  1.0000
  C   C11       1.0  0.23701000000000003  0.33904  0.91853  1.0000
  C   C12       1.0  0.19725000000000006  0.2777100000000001  0.9589800000000002  1.0000
  C   C13       1.0  0.10593  0.22702000000000003  0.9053300000000001  1.0000
  C   C14       1.0  0.050280000000000005  0.2428  0.81232  1.0000
  C   C15       1.0  0.33167  0.39585  0.97897  1.0000
  C   C16       1.0  0.06536000000000006  0.15771  0.9468700000000002  1.0000
  C   C17       1.0  0.8880200000000001  0.016839999999999987  0.69672  1.0000
  C   C18       1.0  0.8886799999999996  0.05533  0.61278  1.0000
  C   C19       1.0  0.7954699999999999  0.07396  0.54171  1.0000
  C   C20       1.0  0.79299  0.10603000000000001  0.46114000000000005  1.0000
  C   C21       1.0  0.8838199999999998  0.12259  0.44799  1.0000
  C   C22       1.0  0.9775999999999998  0.10799000000000003  0.52084  1.0000
  C   C23       1.0  0.9800099999999998  0.07476000000000005  0.6016600000000002  1.0000
  C   C24       1.0  0.87926  0.15362000000000003  0.36079  1.0000
  C   C25       1.0  0.78568  0.19462999999999997  0.21077  1.0000
  C   C26       1.0  0.71655  0.25908  0.17098  1.0000
  C   C27       1.0  0.69547  0.27764  0.07951000000000003  1.0000
  C   C28       1.0  0.73825  0.22593000000000002  0.025840000000000005  1.0000
  C   C29       1.0  0.8070999999999998  0.16072  0.06534  1.0000
  C   C30       1.0  0.8321100000000001  0.14564  0.15817  1.0000
  C   C31       1.0  0.6204499999999998  0.348  0.03978000000000002  1.0000
  C   C32       1.0  0.8419599999999999  0.09764  0.00623  1.0000
  C   C33       1.0  0.30002  0.62463  0.18849  1.0000
  C   C34       1.0  0.20955  0.63043  0.20466  1.0000
  C   C35       1.0  0.17732999999999996  0.56019  0.23852000000000007  1.0000
  C   C36       1.0  0.23407  0.48522  0.2509  1.0000
  C   C37       1.0  0.3255  0.48703  0.23659  1.0000
  C   C38       1.0  0.60519  0.96616  0.7852000000000001  1.0000
  C   C39       1.0  0.5019899999999998  0.94068  0.76084  1.0000
  C   C40       1.0  0.47524  0.85349  0.76192  1.0000
  C   C41       1.0  0.55399  0.79511  0.78838  1.0000
  C   C42       1.0  0.6553199999999998  0.8262  0.81197  1.0000
  C   C43       1.0  0.3432200000000001  0.54119  0.6977300000000002  1.0000
  C   C44       1.0  0.2698499999999999  0.58161  0.61451  1.0000
  C   C45       1.0  0.16191999999999998  0.57114  0.58408  1.0000
  C   C46       1.0  0.09500999999999997  0.6062000000000002  0.5045  1.0000
  C   C47       1.0  0.13198000000000001  0.6552  0.45184000000000013  1.0000
  C   C48       1.0  0.23984  0.66954  0.48547  1.0000
  C   C49       1.0  0.3067  0.634  0.56475  1.0000
  C   C50       1.0  0.06576999999999995  0.68913  0.36395  1.0000
  C   C51       1.0  0.9132899999999998  0.69369  0.22807  1.0000
  C   C52       1.0  0.81755  0.6473  0.17533  1.0000
  C   C53       1.0  0.7632599999999999  0.6615  0.08186  1.0000
  C   C54       1.0  0.80357  0.72239  0.04139  1.0000
  C   C55       1.0  0.89483  0.77312  0.09505000000000002  1.0000
  C   C56       1.0  0.9502099999999999  0.75774  0.18821000000000004  1.0000
  C   C57       1.0  0.66865  0.60487  0.021770000000000005  1.0000
  C   C58       1.0  0.9338199999999998  0.84353  0.053240000000000016  1.0000
  C   C59       1.0  0.11152999999999998  0.9832000000000002  0.30377  1.0000
  C   C60       1.0  0.11130999999999998  0.94459  0.38763  1.0000
  C   C61       1.0  0.20474999999999993  0.9259499999999999  0.45836  1.0000
  C   C62       1.0  0.20719  0.8940600000000002  0.53895  1.0000
  C   C63       1.0  0.11601999999999996  0.87706  0.55168  1.0000
  C   C64       1.0  0.02216000000000001  0.8921  0.47929  1.0000
  C   C65       1.0  0.019890000000000015  0.92505  0.39852  1.0000
  C   C66       1.0  0.12045999999999994  0.84676  0.63894  1.0000
  C   C67       1.0  0.21406  0.80552  0.78853  1.0000
  C   C68       1.0  0.28309999999999996  0.7414000000000002  0.82863  1.0000
  C   C69       1.0  0.30438000000000004  0.7232000000000002  0.9202500000000001  1.0000
  C   C70       1.0  0.26212999999999986  0.77458  0.97443  1.0000
  C   C71       1.0  0.19163999999999995  0.83831  0.93394  1.0000
  C   C72       1.0  0.1683400000000001  0.85431  0.8416500000000002  1.0000
  C   C73       1.0  0.3768899999999999  0.6509  0.95867  1.0000
  C   C74       1.0  0.15819000000000008  0.90252  0.9934700000000001  1.0000
  C   C75       1.0  0.7001699999999997  0.3755300000000001  0.81176  1.0000
  C   C76       1.0  0.7903699999999999  0.36939  0.7950700000000003  1.0000
  C   C77       1.0  0.8229999999999997  0.43992  0.76187  1.0000
  C   C78       1.0  0.7658199999999997  0.5144600000000003  0.74869  1.0000
  C   C79       1.0  0.67447  0.51287  0.76322  1.0000
  C   C80       1.0  0.39448999999999995  0.03319  0.21496000000000007  1.0000
  C   C81       1.0  0.4976799999999999  0.059149999999999994  0.23895  1.0000
  C   C82       1.0  0.52428  0.14652  0.23802  1.0000
  C   C83       1.0  0.44584  0.20519  0.21147  1.0000
  C   C84       1.0  0.34451  0.17384  0.18812  1.0000
  N   N1        1.0  0.031120000000000096  0.33291  0.6818000000000002  1.0000
  N   N2        1.0  0.7931999999999998  0.17385  0.2983  1.0000
  N   N3        1.0  0.3556999999999999  0.55251  0.19984  1.0000
  N   N4        1.0  0.68233  0.9104000000000002  0.81049  1.0000
  N   N5        1.0  0.96889  0.6672200000000003  0.318  1.0000
  N   N6        1.0  0.20648999999999992  0.82625  0.70101  1.0000
  N   N7        1.0  0.64358  0.44730000000000003  0.79951  1.0000
  N   N8        1.0  0.3174  0.08933000000000002  0.18927000000000005  1.0000
  O   O1        1.0  0.5595599999999998  0.44447000000000003  0.27801  1.0000
  O   O2        1.0  0.69245  0.51  0.26127  1.0000
  O   O3        1.0  0.35682  0.40377  0.06665  1.0000
  O   O4        1.0  0.38681  0.43377  0.94328  1.0000
  O   O5        1.0  0.9807999999999999  0.11738  0.89172  1.0000
  O   O6        1.0  0.11619999999999997  0.14239  0.030920000000000007  1.0000
  O   O7        1.0  0.5820999999999998  0.38276  0.09583000000000001  1.0000
  O   O8        1.0  0.6019100000000001  0.37126000000000003  0.9595000000000001  1.0000
  O   O9        1.0  0.9684699999999999  0.98139  0.7488800000000002  1.0000
  O   O10       1.0  0.8043499999999999  0.018209999999999997  0.71129  1.0000
  O   O11       1.0  0.7878600000000001  0.08747000000000003  0.9186700000000002  1.0000
  O   O12       1.0  0.92636  0.05775  0.04314  1.0000
  O   O13       1.0  0.44126  0.55659  0.72292  1.0000
  O   O14       1.0  0.30724  0.48987  0.73804  1.0000
  O   O15       1.0  0.64314  0.5967300000000001  0.93387  1.0000
  O   O16       1.0  0.61235  0.56847  0.05724000000000001  1.0000
  O   O17       1.0  0.018989999999999986  0.88312  0.10837  1.0000
  O   O18       1.0  0.8829799999999998  0.85815  0.96889  1.0000
  O   O19       1.0  0.41751  0.61785  0.90373  1.0000
  O   O20       1.0  0.39659  0.6287000000000001  0.03965  1.0000
  O   O21       1.0  0.03070999999999999  0.01844  0.25189  1.0000
  O   O22       1.0  0.19441  0.98161  0.28831  1.0000
  O   O23       1.0  0.21114999999999995  0.91173  0.08108000000000001  1.0000
  O   O24       1.0  0.07367000000000018  0.94288  0.9570000000000002  1.0000
