data_image0
_chemical_formula_structural       Ni4H56C72N8O16
_chemical_formula_sum              "Ni4 H56 C72 N8 O16"
_cell_length_a       9.61313
_cell_length_b       12.73282
_cell_length_c       19.48473
_cell_angle_alpha    109.30337
_cell_angle_beta     102.28627
_cell_angle_gamma    90.49506

_symmetry_space_group_name_H-M    'P 1'
_symmetry_Int_Tables_number       1

loop_
  _symmetry_equiv_pos_as_xyz
  'x,y,z'

loop_
  _atom_site_type_symbol
  _atom_site_label
  _atom_site_symmetry_multiplicity
  _atom_site_fract_x
  _atom_site_fract_y
  _atom_site_fract_z
  _atom_site_occupancy
  Ni  Ni1       1.0  0.8412500000000004  0.9106500000000002  0.28352  1.0000
  Ni  Ni2       1.0  0.65736  0.62947  0.71731  1.0000
  Ni  Ni3       1.0  0.15875  0.08935  0.71648  1.0000
  Ni  Ni4       1.0  0.34264000000000006  0.37053  0.28269  1.0000
  H   H1        1.0  0.22991999999999999  0.9835  0.51099  1.0000
  H   H2        1.0  0.98555  0.9514700000000003  0.43009  1.0000
  H   H3        1.0  0.63193  0.34144  0.53443  1.0000
  H   H4        1.0  0.94827  0.32563  0.60236  1.0000
  H   H5        1.0  0.39202  0.95772  0.31517  1.0000
  H   H6        1.0  0.86016  0.18831000000000006  0.47254999999999997  1.0000
  H   H7        1.0  0.54989  0.20750000000000002  0.39635  1.0000
  H   H8        1.0  0.5611199999999998  0.98476  0.43051  1.0000
  H   H9        1.0  0.13860999999999998  0.9267000000000001  0.24274999999999997  1.0000
  H   H10       1.0  0.89844  0.7048100000000002  0.01867  1.0000
  H   H11       1.0  0.81989  0.8567500000000002  0.11639000000000001  1.0000
  H   H12       1.0  0.05610999999999999  0.4485300000000001  0.06094999999999999  1.0000
  H   H13       1.0  0.0022299999999999963  0.53378  0.18044  1.0000
  H   H14       1.0  0.9190600000000001  0.69189  0.2697  1.0000
  H   H15       1.0  0.26897  0.47199  0.48964  1.0000
  H   H16       1.0  0.51326  0.52153  0.57102  1.0000
  H   H17       1.0  0.8661399999999999  0.8051200000000001  0.46565000000000006  1.0000
  H   H18       1.0  0.5483  0.7217800000000001  0.39805  1.0000
  H   H19       1.0  0.10699  0.64241  0.6855  1.0000
  H   H20       1.0  0.63775  0.71539  0.52934  1.0000
  H   H21       1.0  0.9503500000000003  0.8117900000000002  0.60215  1.0000
  H   H22       1.0  0.93803  0.5568600000000001  0.56884  1.0000
  H   H23       1.0  0.3602  0.6841800000000001  0.75843  1.0000
  H   H24       1.0  0.6021800000000002  0.68724  0.9822799999999999  1.0000
  H   H25       1.0  0.67863  0.74338  0.88483  1.0000
  H   H26       1.0  0.44382  0.38628000000000007  0.93887  1.0000
  H   H27       1.0  0.4987  0.35225000000000006  0.81936  1.0000
  H   H28       1.0  0.57953  0.4230499999999999  0.73018  1.0000
  H   H29       1.0  0.77008  0.01650000000000003  0.48901000000000006  1.0000
  H   H30       1.0  0.01444999999999999  0.04853000000000001  0.56991  1.0000
  H   H31       1.0  0.36806999999999995  0.6585600000000003  0.46556999999999993  1.0000
  H   H32       1.0  0.051730000000000005  0.67437  0.39764  1.0000
  H   H33       1.0  0.60797  0.042280000000000005  0.68484  1.0000
  H   H34       1.0  0.13984  0.81169  0.52746  1.0000
  H   H35       1.0  0.45011  0.7925000000000001  0.60365  1.0000
  H   H36       1.0  0.43887  0.015240000000000012  0.5695  1.0000
  H   H37       1.0  0.8613899999999999  0.07329999999999998  0.75725  1.0000
  H   H38       1.0  0.10155999999999998  0.29519000000000006  0.98134  1.0000
  H   H39       1.0  0.18011000000000002  0.14325000000000007  0.88362  1.0000
  H   H40       1.0  0.9438899999999999  0.55147  0.93906  1.0000
  H   H41       1.0  0.9977699999999999  0.46622000000000013  0.81956  1.0000
  H   H42       1.0  0.08094000000000001  0.30811  0.7303  1.0000
  H   H43       1.0  0.7310200000000001  0.5280200000000002  0.51036  1.0000
  H   H44       1.0  0.48673999999999995  0.4784700000000001  0.42898  1.0000
  H   H45       1.0  0.13386  0.19488000000000003  0.53436  1.0000
  H   H46       1.0  0.45169999999999993  0.27822  0.60195  1.0000
  H   H47       1.0  0.8930099999999999  0.35759  0.3145  1.0000
  H   H48       1.0  0.36225  0.28461000000000003  0.47065999999999997  1.0000
  H   H49       1.0  0.04964999999999998  0.18821000000000002  0.39785  1.0000
  H   H50       1.0  0.06197  0.44314  0.43116  1.0000
  H   H51       1.0  0.6398  0.31582000000000005  0.24156999999999998  1.0000
  H   H52       1.0  0.39781999999999995  0.31276  0.01772  1.0000
  H   H53       1.0  0.32136999999999993  0.25662000000000007  0.11518  1.0000
  H   H54       1.0  0.55618  0.61372  0.06114  1.0000
  H   H55       1.0  0.5012999999999999  0.6477500000000002  0.18065  1.0000
  H   H56       1.0  0.42046999999999995  0.57695  0.26982  1.0000
  C   C1        1.0  0.21602  0.9710200000000001  0.45191  1.0000
  C   C2        1.0  0.07934999999999999  0.95358  0.40773  1.0000
  C   C3        1.0  0.73623  0.30849  0.53541  1.0000
  C   C4        1.0  0.8412099999999999  0.3542700000000001  0.59798  1.0000
  C   C5        1.0  0.30499  0.9561600000000003  0.34284  1.0000
  C   C6        1.0  0.75577  0.22133000000000005  0.4699  1.0000
  C   C7        1.0  0.65631  0.1781  0.40477  1.0000
  C   C8        1.0  0.48028999999999994  0.9893800000000001  0.46264999999999995  1.0000
  C   C9        1.0  0.3337899999999999  0.97198  0.41973  1.0000
  C   C10       1.0  0.8203  0.45065999999999995  0.66208  1.0000
  C   C11       1.0  0.68715  0.08671000000000005  0.34058  1.0000
  C   C12       1.0  0.1642  0.93887  0.30215  1.0000
  C   C13       1.0  0.90358  0.69712  0.07308  1.0000
  C   C14       1.0  0.85992  0.78289  0.12751  1.0000
  C   C15       1.0  0.95627  0.60278  0.0894  1.0000
  C   C16       1.0  0.005910000000000002  0.5087000000000002  0.03676  1.0000
  C   C17       1.0  0.9611999999999999  0.6019  0.16189  1.0000
  C   C18       1.0  0.91563  0.6908  0.21335  1.0000
  C   C19       1.0  0.28294  0.51894  0.5488  1.0000
  C   C20       1.0  0.41949999999999976  0.54598  0.59321  1.0000
  C   C21       1.0  0.76133  0.77122  0.46501999999999993  1.0000
  C   C22       1.0  0.65643  0.7544300000000002  0.40273  1.0000
  C   C23       1.0  0.194  0.61337  0.65793  1.0000
  C   C24       1.0  0.74236  0.75071  0.5308  1.0000
  C   C25       1.0  0.8437199999999999  0.77404  0.59518  1.0000
  C   C26       1.0  0.019249999999999986  0.52746  0.53734  1.0000
  C   C27       1.0  0.16537000000000002  0.5524300000000001  0.58082  1.0000
  C   C28       1.0  0.67939  0.7878100000000002  0.33958  1.0000
  C   C29       1.0  0.81527  0.74883  0.66036  1.0000
  C   C30       1.0  0.33471  0.6369900000000001  0.69886  1.0000
  C   C31       1.0  0.59629  0.6251500000000001  0.9275300000000001  1.0000
  C   C32       1.0  0.63881  0.65753  0.87326  1.0000
  C   C33       1.0  0.54375  0.51347  0.91075  1.0000
  C   C34       1.0  0.49415999999999993  0.4715300000000001  0.96322  1.0000
  C   C35       1.0  0.53877  0.4398900000000001  0.83804  1.0000
  C   C36       1.0  0.58316  0.4784000000000001  0.78673  1.0000
  C   C37       1.0  0.78398  0.028989999999999974  0.54809  1.0000
  C   C38       1.0  0.92065  0.04642  0.59227  1.0000
  C   C39       1.0  0.26377  0.69151  0.46459000000000006  1.0000
  C   C40       1.0  0.15879000000000001  0.6457300000000001  0.40202  1.0000
  C   C41       1.0  0.6950099999999999  0.04383999999999993  0.65717  1.0000
  C   C42       1.0  0.24423  0.7786700000000001  0.53011  1.0000
  C   C43       1.0  0.34369  0.8219000000000001  0.59524  1.0000
  C   C44       1.0  0.51971  0.010620000000000008  0.53735  1.0000
  C   C45       1.0  0.66621  0.02802  0.58027  1.0000
  C   C46       1.0  0.17970000000000003  0.54934  0.33792  1.0000
  C   C47       1.0  0.31285  0.9132900000000002  0.65942  1.0000
  C   C48       1.0  0.8358000000000001  0.061129999999999934  0.69785  1.0000
  C   C49       1.0  0.09642000000000006  0.30288000000000004  0.9269200000000001  1.0000
  C   C50       1.0  0.14007999999999995  0.21710999999999994  0.87249  1.0000
  C   C51       1.0  0.04372999999999996  0.39722000000000013  0.9106  1.0000
  C   C52       1.0  0.99409  0.4913  0.96324  1.0000
  C   C53       1.0  0.03879999999999998  0.3981000000000001  0.83811  1.0000
  C   C54       1.0  0.08437  0.30920000000000003  0.78666  1.0000
  C   C55       1.0  0.7170499999999999  0.48105999999999993  0.45120999999999994  1.0000
  C   C56       1.0  0.5805  0.4540200000000001  0.40679  1.0000
  C   C57       1.0  0.23867000000000002  0.22878000000000007  0.53498  1.0000
  C   C58       1.0  0.34357  0.24557000000000004  0.59728  1.0000
  C   C59       1.0  0.806  0.38663  0.34208  1.0000
  C   C60       1.0  0.25764  0.24930000000000005  0.4692  1.0000
  C   C61       1.0  0.15628  0.22596  0.40483  1.0000
  C   C62       1.0  0.9807499999999999  0.4725400000000001  0.46265999999999996  1.0000
  C   C63       1.0  0.83463  0.44757  0.41919  1.0000
  C   C64       1.0  0.32060999999999995  0.21219  0.66042  1.0000
  C   C65       1.0  0.18473  0.25116  0.33964  1.0000
  C   C66       1.0  0.66529  0.36302  0.30115  1.0000
  C   C67       1.0  0.40370999999999996  0.37485000000000007  0.07247  1.0000
  C   C68       1.0  0.36119  0.3424700000000001  0.12674  1.0000
  C   C69       1.0  0.45625  0.4865300000000001  0.08925  1.0000
  C   C70       1.0  0.50584  0.52847  0.03678  1.0000
  C   C71       1.0  0.46123000000000003  0.56011  0.16196  1.0000
  C   C72       1.0  0.41683999999999993  0.5216  0.21327  1.0000
  N   N1        1.0  0.05253  0.9366200000000002  0.33372  1.0000
  N   N2        1.0  0.8656599999999999  0.7812500000000002  0.19734  1.0000
  N   N3        1.0  0.44627  0.60353  0.66733  1.0000
  N   N4        1.0  0.63226  0.58599  0.8031  1.0000
  N   N5        1.0  0.94747  0.06337999999999999  0.66628  1.0000
  N   N6        1.0  0.13433999999999996  0.2187500000000001  0.80266  1.0000
  N   N7        1.0  0.55373  0.39647  0.33267  1.0000
  N   N8        1.0  0.36774  0.4140100000000001  0.1969  1.0000
  O   O1        1.0  0.8143  0.05061000000000001  0.35396  1.0000
  O   O2        1.0  0.68905  0.4797  0.65576  1.0000
  O   O3        1.0  0.59694  0.04708  0.28005  1.0000
  O   O4        1.0  0.9227099999999999  0.49989  0.71553  1.0000
  O   O5        1.0  0.68695  0.70032  0.64874  1.0000
  O   O6        1.0  0.81213  0.81984  0.34468  1.0000
  O   O7        1.0  0.90834  0.7706800000000003  0.7198  1.0000
  O   O8        1.0  0.57668  0.78809  0.2879  1.0000
  O   O9        1.0  0.18569000000000002  0.9493900000000002  0.64604  1.0000
  O   O10       1.0  0.31095  0.5203000000000001  0.34425  1.0000
  O   O11       1.0  0.40306  0.95292  0.71995  1.0000
  O   O12       1.0  0.07729000000000003  0.5001100000000002  0.28447  1.0000
  O   O13       1.0  0.31305  0.2996700000000001  0.35126  1.0000
  O   O14       1.0  0.18787  0.18016000000000001  0.65533  1.0000
  O   O15       1.0  0.09164999999999997  0.22932000000000005  0.2802  1.0000
  O   O16       1.0  0.4233199999999999  0.21191  0.7121  1.0000
