data_image0
_chemical_formula_structural       Mn8H24C64N8O52
_chemical_formula_sum              "Mn8 H24 C64 N8 O52"
_cell_length_a       13.42467
_cell_length_b       15.16068
_cell_length_c       15.45467
_cell_angle_alpha    64.96788
_cell_angle_beta     80.70937
_cell_angle_gamma    80.64056

_symmetry_space_group_name_H-M    'P 1'
_symmetry_Int_Tables_number       1

loop_
  _symmetry_equiv_pos_as_xyz
  'x,y,z'

loop_
  _atom_site_type_symbol
  _atom_site_label
  _atom_site_symmetry_multiplicity
  _atom_site_fract_x
  _atom_site_fract_y
  _atom_site_fract_z
  _atom_site_occupancy
  Mn  Mn1       1.0  0.87736  0.4269299999999998  0.29113  1.0000
  Mn  Mn2       1.0  0.61466  0.3535799999999999  0.3184300000000001  1.0000
  Mn  Mn3       1.0  0.63163  0.70454  0.57117  1.0000
  Mn  Mn4       1.0  0.89048  0.67252  0.64598  1.0000
  Mn  Mn5       1.0  0.12246999999999997  0.5726699999999998  0.7090100000000001  1.0000
  Mn  Mn6       1.0  0.3852999999999999  0.64653  0.68139  1.0000
  Mn  Mn7       1.0  0.36839  0.2952999999999999  0.4291  1.0000
  Mn  Mn8       1.0  0.10954999999999998  0.3272  0.3542  1.0000
  H   H1        1.0  0.8186400000000003  0.5214599999999998  0.53721  1.0000
  H   H2        1.0  0.016940000000000014  0.25432  0.64828  1.0000
  H   H3        1.0  0.66151  0.30286  0.07281  1.0000
  H   H4        1.0  0.9244400000000005  0.4577499999999999  0.00443  1.0000
  H   H5        1.0  0.4146900000000001  0.4069  0.24272000000000002  1.0000
  H   H6        1.0  0.4582399999999999  0.30056000000000005  0.24273  1.0000
  H   H7        1.0  0.67858  0.4668899999999998  0.4737  1.0000
  H   H8        1.0  0.48308999999999996  0.3564699999999999  0.7386800000000002  1.0000
  H   H9        1.0  0.8312000000000003  0.91887  0.70119  1.0000
  H   H10       1.0  0.5790200000000002  0.99059  0.53502  1.0000
  H   H11       1.0  0.09148000000000008  0.7594799999999999  0.5874  1.0000
  H   H12       1.0  0.03987999999999998  0.7684800000000002  0.68728  1.0000
  H   H13       1.0  0.18158000000000005  0.47836000000000006  0.46281  1.0000
  H   H14       1.0  0.98334  0.74553  0.35172  1.0000
  H   H15       1.0  0.3375800000000001  0.6983999999999997  0.92665  1.0000
  H   H16       1.0  0.07563999999999999  0.5423499999999999  0.9948600000000001  1.0000
  H   H17       1.0  0.5851399999999999  0.59289  0.7573  1.0000
  H   H18       1.0  0.54164  0.6992399999999996  0.7573900000000001  1.0000
  H   H19       1.0  0.32112  0.5330599999999998  0.52643  1.0000
  H   H20       1.0  0.5165400000000001  0.64341  0.2614  1.0000
  H   H21       1.0  0.16886  0.08115  0.29888  1.0000
  H   H22       1.0  0.42108999999999996  0.009239999999999991  0.46511  1.0000
  H   H23       1.0  0.90841  0.24046  0.41268  1.0000
  H   H24       1.0  0.96004  0.23131  0.3128600000000001  1.0000
  C   C1        1.0  0.95486  0.39413  0.48182  1.0000
  C   C2        1.0  0.9202400000000002  0.38811999999999985  0.58077  1.0000
  C   C3        1.0  0.8486600000000002  0.45865999999999996  0.59736  1.0000
  C   C4        1.0  0.8154100000000001  0.44946  0.69129  1.0000
  C   C5        1.0  0.85213  0.36804  0.77151  1.0000
  C   C6        1.0  0.9265400000000001  0.30051000000000005  0.75187  1.0000
  C   C7        1.0  0.9601300000000001  0.3095099999999999  0.6589300000000001  1.0000
  C   C8        1.0  0.7375  0.52575  0.70424  1.0000
  C   C9        1.0  0.8279900000000001  0.36763  0.86936  1.0000
  C   C10       1.0  0.74451  0.3292699999999999  0.9351200000000001  1.0000
  C   C11       1.0  0.72716  0.3333  0.02436  1.0000
  C   C12       1.0  0.79412  0.37693  0.05086000000000001  1.0000
  C   C13       1.0  0.87507  0.4202799999999999  0.9850000000000002  1.0000
  C   C14       1.0  0.89056  0.4170899999999998  0.8947400000000001  1.0000
  C   C15       1.0  0.9711  0.47249  0.82165  1.0000
  C   C16       1.0  0.77559  0.38076  0.14707000000000006  1.0000
  C   C17       1.0  0.54693  0.52366  0.6035  1.0000
  C   C18       1.0  0.5781399999999998  0.4244299999999999  0.6057300000000002  1.0000
  C   C19       1.0  0.64789  0.40637999999999996  0.53576  1.0000
  C   C20       1.0  0.6792700000000003  0.31029  0.54513  1.0000
  C   C21       1.0  0.64334  0.22896  0.62607  1.0000
  C   C22       1.0  0.57108  0.25011999999999995  0.69334  1.0000
  C   C23       1.0  0.5383900000000001  0.3451099999999999  0.68381  1.0000
  C   C24       1.0  0.75676  0.29583000000000004  0.47025  1.0000
  C   C25       1.0  0.6677099999999999  0.12852999999999992  0.6282300000000002  1.0000
  C   C26       1.0  0.74846  0.05977000000000001  0.67131  1.0000
  C   C27       1.0  0.7664300000000001  0.9681800000000002  0.66894  1.0000
  C   C28       1.0  0.70239  0.9408199999999999  0.62349  1.0000
  C   C29       1.0  0.6247200000000002  0.009529999999999995  0.57546  1.0000
  C   C30       1.0  0.6094299999999999  0.10262000000000003  0.57602  1.0000
  C   C31       1.0  0.54274  0.18078  0.50612  1.0000
  C   C32       1.0  0.72389  0.8437299999999999  0.6195  1.0000
  C   C33       1.0  0.04524  0.60574  0.51823  1.0000
  C   C34       1.0  0.07985999999999999  0.61162  0.41931  1.0000
  C   C35       1.0  0.15137  0.54107  0.40269  1.0000
  C   C36       1.0  0.1844500000000001  0.55018  0.30876  1.0000
  C   C37       1.0  0.14763  0.6314699999999998  0.22851  1.0000
  C   C38       1.0  0.07339000000000002  0.6990899999999998  0.24821  1.0000
  C   C39       1.0  0.040000000000000015  0.6902099999999999  0.3411500000000001  1.0000
  C   C40       1.0  0.2625  0.47404999999999997  0.29579  1.0000
  C   C41       1.0  0.17180000000000004  0.6319  0.13063  1.0000
  C   C42       1.0  0.25505  0.67079  0.06471  1.0000
  C   C43       1.0  0.27213000000000004  0.6675199999999999  0.97517  1.0000
  C   C44       1.0  0.20532000000000003  0.6238999999999998  0.94857  1.0000
  C   C45       1.0  0.12474000000000005  0.5798399999999998  0.01454  1.0000
  C   C46       1.0  0.10941000000000004  0.5823299999999998  0.10513  1.0000
  C   C47       1.0  0.029210000000000024  0.5262599999999997  0.17830000000000001  1.0000
  C   C48       1.0  0.22411999999999999  0.6199600000000001  0.85242  1.0000
  C   C49       1.0  0.45316  0.4762599999999999  0.39656  1.0000
  C   C50       1.0  0.42168000000000005  0.5754499999999999  0.3944  1.0000
  C   C51       1.0  0.35186000000000006  0.59351  0.46434  1.0000
  C   C52       1.0  0.3205100000000001  0.6896399999999996  0.45492  1.0000
  C   C53       1.0  0.35646  0.7709799999999999  0.37399  1.0000
  C   C54       1.0  0.42866000000000004  0.7497899999999997  0.30672  1.0000
  C   C55       1.0  0.46130999999999994  0.6548  0.31628  1.0000
  C   C56       1.0  0.24312999999999999  0.7041500000000002  0.52986  1.0000
  C   C57       1.0  0.3323000000000001  0.8714399999999998  0.3718  1.0000
  C   C58       1.0  0.25158  0.9402499999999999  0.32871  1.0000
  C   C59       1.0  0.23362  0.03181999999999998  0.33115000000000006  1.0000
  C   C60       1.0  0.29766000000000004  0.0591  0.37668  1.0000
  C   C61       1.0  0.37540000000000007  0.9903999999999996  0.42459  1.0000
  C   C62       1.0  0.39071999999999996  0.89735  0.42391000000000006  1.0000
  C   C63       1.0  0.45737000000000017  0.81919  0.49384  1.0000
  C   C64       1.0  0.27608999999999995  0.15612000000000004  0.38082  1.0000
  N   N1        1.0  0.97393  0.21560000000000004  0.83044  1.0000
  N   N2        1.0  0.6689800000000002  0.28689  0.90917  1.0000
  N   N3        1.0  0.5252  0.17136000000000004  0.77892  1.0000
  N   N4        1.0  0.8228600000000005  0.08569999999999993  0.71456  1.0000
  N   N5        1.0  0.025900000000000038  0.7841499999999998  0.16994000000000004  1.0000
  N   N6        1.0  0.33088  0.71288  0.09061  1.0000
  N   N7        1.0  0.47480000000000006  0.8285  0.22133  1.0000
  N   N8        1.0  0.17714000000000002  0.91433  0.28547  1.0000
  O   O1        1.0  0.89959  0.4467299999999999  0.41452  1.0000
  O   O2        1.0  0.03921  0.3437599999999999  0.4723100000000001  1.0000
  O   O3        1.0  0.74784  0.6167899999999998  0.64029  1.0000
  O   O4        1.0  0.66663  0.50437  0.77036  1.0000
  O   O5        1.0  0.06057000000000002  0.43436  0.81367  1.0000
  O   O6        1.0  0.9441800000000002  0.5639099999999998  0.76913  1.0000
  O   O7        1.0  0.8436  0.41129999999999994  0.17296  1.0000
  O   O8        1.0  0.6913600000000002  0.35327  0.1962  1.0000
  O   O9        1.0  0.5858600000000002  0.2754999999999999  0.9589000000000002  1.0000
  O   O10       1.0  0.69254  0.26695999999999986  0.8379500000000002  1.0000
  O   O11       1.0  0.93381  0.19649  0.91364  1.0000
  O   O12       1.0  0.05061999999999997  0.1694899999999999  0.8076700000000002  1.0000
  O   O13       1.0  0.46365000000000006  0.34473  0.27221  1.0000
  O   O14       1.0  0.6063  0.59087  0.55438  1.0000
  O   O15       1.0  0.4646600000000001  0.5352699999999997  0.6536500000000001  1.0000
  O   O16       1.0  0.74712  0.35755  0.38088  1.0000
  O   O17       1.0  0.8287100000000001  0.2287899999999999  0.49443  1.0000
  O   O18       1.0  0.45079  0.2049099999999999  0.53178  1.0000
  O   O19       1.0  0.5858800000000001  0.21855000000000002  0.42053  1.0000
  O   O20       1.0  0.65626  0.8169199999999999  0.58789  1.0000
  O   O21       1.0  0.80876  0.7941999999999998  0.64562  1.0000
  O   O22       1.0  0.9033700000000002  0.03101000000000001  0.73275  1.0000
  O   O23       1.0  0.80196  0.1620699999999999  0.7279200000000001  1.0000
  O   O24       1.0  0.56588  0.08626999999999996  0.8  1.0000
  O   O25       1.0  0.44894999999999996  0.19587  0.8238600000000001  1.0000
  O   O26       1.0  0.04000999999999998  0.7315099999999998  0.64889  1.0000
  O   O27       1.0  0.10047000000000005  0.5531499999999998  0.58557  1.0000
  O   O28       1.0  0.96097  0.6562  0.5277  1.0000
  O   O29       1.0  0.25226000000000004  0.38303  0.3598  1.0000
  O   O30       1.0  0.3333200000000002  0.49554999999999993  0.22961  1.0000
  O   O31       1.0  0.9395700000000001  0.56392  0.18653  1.0000
  O   O32       1.0  0.0563  0.43491  0.23071  1.0000
  O   O33       1.0  0.15632000000000001  0.58898  0.82671  1.0000
  O   O34       1.0  0.3084100000000001  0.64738  0.80336  1.0000
  O   O35       1.0  0.41388000000000014  0.7242399999999998  0.04062000000000002  1.0000
  O   O36       1.0  0.3076200000000001  0.7325899999999999  0.16197  1.0000
  O   O37       1.0  0.06589999999999996  0.80353  0.08664  1.0000
  O   O38       1.0  0.9493200000000002  0.83009  0.19317  1.0000
  O   O39       1.0  0.53626  0.65514  0.7278  1.0000
  O   O40       1.0  0.39396000000000003  0.40887999999999985  0.4456900000000001  1.0000
  O   O41       1.0  0.53546  0.46485  0.34637  1.0000
  O   O42       1.0  0.2528000000000001  0.6423799999999996  0.6191900000000001  1.0000
  O   O43       1.0  0.17127  0.7712999999999998  0.50574  1.0000
  O   O44       1.0  0.54937  0.7949999999999998  0.46840000000000004  1.0000
  O   O45       1.0  0.41405  0.7814599999999998  0.57935  1.0000
  O   O46       1.0  0.34357  0.18286999999999998  0.41269  1.0000
  O   O47       1.0  0.19131  0.20569999999999994  0.35449  1.0000
  O   O48       1.0  0.09663000000000006  0.9689999999999998  0.26726  1.0000
  O   O49       1.0  0.19802000000000006  0.8379299999999997  0.27215  1.0000
  O   O50       1.0  0.43409  0.9136  0.19998  1.0000
  O   O51       1.0  0.55137  0.80395  0.17678  1.0000
  O   O52       1.0  0.95987  0.26835  0.35118  1.0000
