data_image0
_chemical_formula_structural       Zn12H16C80O64
_chemical_formula_sum              "Zn12 H16 C80 O64"
_cell_length_a       13.44671
_cell_length_b       13.44886
_cell_length_c       17.476569999999995
_cell_angle_alpha    87.22399000000001
_cell_angle_beta     87.21331
_cell_angle_gamma    90.25655

_space_group_name_H-M_alt    "P 1"
_space_group_IT_number       1

loop_
  _space_group_symop_operation_xyz
  'x, y, z'

loop_
  _atom_site_type_symbol
  _atom_site_label
  _atom_site_symmetry_multiplicity
  _atom_site_fract_x
  _atom_site_fract_y
  _atom_site_fract_z
  _atom_site_occupancy
  Zn  Zn1       1.0  0.0027300000000000054  0.52214  0.74499  1.0000
  Zn  Zn2       1.0  0.75318  0.44829  0.82314  1.0000
  Zn  Zn3       1.0  0.4778300000000001  0.99726  0.75503  1.0000
  Zn  Zn4       1.0  0.55169  0.24679999999999994  0.67688  1.0000
  Zn  Zn5       1.0  0.9972600000000003  0.47786  0.25501  1.0000
  Zn  Zn6       1.0  0.24681  0.55171  0.17687  1.0000
  Zn  Zn7       1.0  0.52216  0.00274  0.24497  1.0000
  Zn  Zn8       1.0  0.44831000000000004  0.7531999999999998  0.3231200000000001  1.0000
  Zn  Zn9       1.0  0.99199  0.007970000000000003  0.75007  1.0000
  Zn  Zn10      1.0  0.4622300000000001  0.53775  0.75004  1.0000
  Zn  Zn11      1.0  0.008009999999999998  0.9920299999999999  0.2499  1.0000
  Zn  Zn12      1.0  0.53777  0.46225  0.24999  1.0000
  H   H1        1.0  0.9670900000000002  0.43058  0.021770000000000005  1.0000
  H   H2        1.0  0.027449999999999995  0.07367999999999998  0.9727100000000001  1.0000
  H   H3        1.0  0.5699  0.45268  0.48531  1.0000
  H   H4        1.0  0.9217100000000001  0.52911  0.53736  1.0000
  H   H5        1.0  0.5694200000000003  0.032929999999999994  0.4782600000000001  1.0000
  H   H6        1.0  0.9263700000000002  0.97253  0.52726  1.0000
  H   H7        1.0  0.54729  0.43005999999999994  0.01472  1.0000
  H   H8        1.0  0.47093000000000007  0.07829999999999998  0.9626300000000001  1.0000
  H   H9        1.0  0.032900000000000006  0.5694199999999998  0.97823  1.0000
  H   H10       1.0  0.9725600000000002  0.92632  0.02729  1.0000
  H   H11       1.0  0.43009000000000003  0.54732  0.5147  1.0000
  H   H12       1.0  0.07829  0.47089  0.46265  1.0000
  H   H13       1.0  0.43058  0.96706  0.52174  1.0000
  H   H14       1.0  0.07363  0.027469999999999987  0.47274000000000005  1.0000
  H   H15       1.0  0.4527100000000001  0.5699400000000001  0.9852899999999999  1.0000
  H   H16       1.0  0.5290600000000001  0.9217  0.03738  1.0000
  C   C1        1.0  0.9883300000000003  0.21651999999999996  0.9235099999999999  1.0000
  C   C2        1.0  0.9703700000000002  0.31823  0.93758  1.0000
  C   C3        1.0  0.9822400000000002  0.35327999999999987  0.0103  1.0000
  C   C4        1.0  0.010320000000000003  0.28858  0.07035000000000001  1.0000
  C   C5        1.0  0.02657  0.18604999999999997  0.05705  1.0000
  C   C6        1.0  0.0152  0.15164999999999998  0.98367  1.0000
  C   C7        1.0  0.9642600000000002  0.17489  0.84833  1.0000
  C   C8        1.0  0.93952  0.3886  0.87456  1.0000
  C   C9        1.0  0.03013  0.33202  0.14532  1.0000
  C   C10       1.0  0.04672000000000001  0.11272  0.12115  1.0000
  C   C11       1.0  0.7762700000000001  0.49222  0.58711  1.0000
  C   C12       1.0  0.6760200000000002  0.4702799999999999  0.5725  1.0000
  C   C13       1.0  0.6465900000000002  0.4701099999999999  0.49699999999999994  1.0000
  C   C14       1.0  0.71474  0.4934199999999999  0.4355  1.0000
  C   C15       1.0  0.8151400000000002  0.51435  0.45005  1.0000
  C   C16       1.0  0.8445500000000002  0.51416  0.52585  1.0000
  C   C17       1.0  0.8107800000000002  0.4881699999999999  0.66708  1.0000
  C   C18       1.0  0.59711  0.4583399999999999  0.63591  1.0000
  C   C19       1.0  0.6766100000000002  0.50404  0.3564200000000001  1.0000
  C   C20       1.0  0.8924100000000003  0.52866  0.3859000000000001  1.0000
  C   C21       1.0  0.7835100000000003  0.011659999999999998  0.57649  1.0000
  C   C22       1.0  0.68179  0.029620000000000004  0.56243  1.0000
  C   C23       1.0  0.64673  0.017769999999999998  0.48971  1.0000
  C   C24       1.0  0.7114300000000002  0.98969  0.42964  1.0000
  C   C25       1.0  0.81398  0.97345  0.44293  1.0000
  C   C26       1.0  0.8483900000000002  0.98481  0.51632  1.0000
  C   C27       1.0  0.8251300000000001  0.03572  0.65168  1.0000
  C   C28       1.0  0.6113900000000002  0.06047999999999998  0.62545  1.0000
  C   C29       1.0  0.6679900000000001  0.9698799999999999  0.35467  1.0000
  C   C30       1.0  0.88731  0.95328  0.37881  1.0000
  C   C31       1.0  0.5077600000000001  0.22372  0.9128900000000002  1.0000
  C   C32       1.0  0.52966  0.32397  0.9275  1.0000
  C   C33       1.0  0.5298700000000001  0.35339  0.00301  1.0000
  C   C34       1.0  0.50659  0.28524  0.06451  1.0000
  C   C35       1.0  0.4856700000000001  0.18485  0.04995  1.0000
  C   C36       1.0  0.4858600000000001  0.15543999999999997  0.97416  1.0000
  C   C37       1.0  0.51182  0.18920999999999996  0.83293  1.0000
  C   C38       1.0  0.5415600000000003  0.40287  0.8641  1.0000
  C   C39       1.0  0.49597000000000013  0.32338  0.14359  1.0000
  C   C40       1.0  0.4713500000000001  0.10759  0.11409  1.0000
  C   C41       1.0  0.011680000000000003  0.78348  0.07648  1.0000
  C   C42       1.0  0.029620000000000004  0.68177  0.06242000000000001  1.0000
  C   C43       1.0  0.017760000000000005  0.64673  0.9896999999999999  1.0000
  C   C44       1.0  0.9896800000000002  0.71142  0.92965  1.0000
  C   C45       1.0  0.9734300000000002  0.81395  0.9429500000000001  1.0000
  C   C46       1.0  0.9848100000000002  0.84835  0.01633  1.0000
  C   C47       1.0  0.03573000000000001  0.8251  0.15166  1.0000
  C   C48       1.0  0.06047  0.6114  0.12544  1.0000
  C   C49       1.0  0.96987  0.66798  0.8546800000000001  1.0000
  C   C50       1.0  0.9532800000000002  0.88728  0.87884  1.0000
  C   C51       1.0  0.22372  0.50778  0.41289  1.0000
  C   C52       1.0  0.32397  0.52972  0.4275  1.0000
  C   C53       1.0  0.3534100000000001  0.52989  0.50301  1.0000
  C   C54       1.0  0.28526000000000007  0.50659  0.56451  1.0000
  C   C55       1.0  0.18486  0.4856499999999999  0.54996  1.0000
  C   C56       1.0  0.15544000000000002  0.48583999999999994  0.47416  1.0000
  C   C57       1.0  0.18921  0.51183  0.3329300000000001  1.0000
  C   C58       1.0  0.4028800000000001  0.54165  0.36409  1.0000
  C   C59       1.0  0.32338  0.4959599999999999  0.64359  1.0000
  C   C60       1.0  0.10758999999999999  0.47134  0.6141  1.0000
  C   C61       1.0  0.21648  0.9883499999999997  0.42350000000000004  1.0000
  C   C62       1.0  0.31821  0.9703799999999998  0.43756  1.0000
  C   C63       1.0  0.35326000000000013  0.9822299999999998  0.51029  1.0000
  C   C64       1.0  0.2885700000000001  0.010309999999999993  0.5703500000000001  1.0000
  C   C65       1.0  0.18602  0.026560000000000004  0.55706  1.0000
  C   C66       1.0  0.15161000000000005  0.015199999999999995  0.48368000000000005  1.0000
  C   C67       1.0  0.17487000000000003  0.9642799999999999  0.3483100000000001  1.0000
  C   C68       1.0  0.3886100000000001  0.93952  0.37455  1.0000
  C   C69       1.0  0.33201000000000014  0.03012  0.64533  1.0000
  C   C70       1.0  0.11268999999999998  0.04672999999999999  0.6211800000000001  1.0000
  C   C71       1.0  0.49224  0.77628  0.08711  1.0000
  C   C72       1.0  0.47033000000000014  0.67603  0.0725  1.0000
  C   C73       1.0  0.47013000000000005  0.64661  0.997  1.0000
  C   C74       1.0  0.4934100000000001  0.71477  0.9355  1.0000
  C   C75       1.0  0.51433  0.8151499999999998  0.95005  1.0000
  C   C76       1.0  0.51414  0.8445599999999999  0.02585  1.0000
  C   C77       1.0  0.4881800000000001  0.81079  0.16708  1.0000
  C   C78       1.0  0.45843  0.59713  0.13591  1.0000
  C   C79       1.0  0.50403  0.67662  0.85643  1.0000
  C   C80       1.0  0.52864  0.8924099999999999  0.88591  1.0000
  O   O1        1.0  0.024639999999999995  0.11056  0.82135  1.0000
  O   O2        1.0  0.8838000000000003  0.20374  0.82191  1.0000
  O   O3        1.0  0.99413  0.39569999999999994  0.81415  1.0000
  O   O4        1.0  0.85996  0.43953999999999993  0.89017  1.0000
  O   O5        1.0  0.96513  0.39403  0.17074000000000003  1.0000
  O   O6        1.0  0.11088000000000002  0.31086999999999987  0.17416000000000004  1.0000
  O   O7        1.0  0.9865000000000003  0.11457  0.18063000000000007  1.0000
  O   O8        1.0  0.11486000000000003  0.05037  0.11363000000000002  1.0000
  O   O9        1.0  0.8844900000000002  0.54101  0.6816900000000001  1.0000
  O   O10       1.0  0.76021  0.42963  0.71552  1.0000
  O   O11       1.0  0.58467  0.53111  0.678  1.0000
  O   O12       1.0  0.5399800000000001  0.38075  0.63937  1.0000
  O   O13       1.0  0.6900800000000004  0.5847399999999998  0.31877  1.0000
  O   O14       1.0  0.6251500000000001  0.43039  0.33444  1.0000
  O   O15       1.0  0.9605500000000002  0.59096  0.39042  1.0000
  O   O16       1.0  0.8850100000000002  0.47000999999999993  0.32976  1.0000
  O   O17       1.0  0.8894400000000002  0.97536  0.67869  1.0000
  O   O18       1.0  0.7962700000000001  0.11620000000000001  0.67808  1.0000
  O   O19       1.0  0.60427  0.0058800000000000015  0.68585  1.0000
  O   O20       1.0  0.5604500000000002  0.14003  0.60984  1.0000
  O   O21       1.0  0.606  0.034879999999999994  0.32925  1.0000
  O   O22       1.0  0.68913  0.88912  0.32584  1.0000
  O   O23       1.0  0.8854600000000002  0.013409999999999993  0.31931  1.0000
  O   O24       1.0  0.94966  0.88514  0.38636  1.0000
  O   O25       1.0  0.4589900000000001  0.11551000000000002  0.81832  1.0000
  O   O26       1.0  0.5703600000000002  0.23979  0.7844900000000001  1.0000
  O   O27       1.0  0.46876  0.41531999999999997  0.82204  1.0000
  O   O28       1.0  0.6191700000000002  0.46001  0.86061  1.0000
  O   O29       1.0  0.4152500000000002  0.30991  0.18124  1.0000
  O   O30       1.0  0.5696200000000001  0.37485  0.16555  1.0000
  O   O31       1.0  0.40905  0.03945  0.10957  1.0000
  O   O32       1.0  0.5300000000000001  0.11498999999999997  0.17024000000000006  1.0000
  O   O33       1.0  0.9753500000000002  0.88943  0.17864000000000005  1.0000
  O   O34       1.0  0.11620000000000001  0.7962599999999999  0.17809  1.0000
  O   O35       1.0  0.005870000000000004  0.6043  0.18585  1.0000
  O   O36       1.0  0.14004  0.56046  0.10983  1.0000
  O   O37       1.0  0.03487  0.60597  0.82926  1.0000
  O   O38       1.0  0.8891200000000002  0.6891299999999999  0.82584  1.0000
  O   O39       1.0  0.013479999999999999  0.88543  0.8193600000000002  1.0000
  O   O40       1.0  0.8851400000000003  0.9496399999999999  0.88637  1.0000
  O   O41       1.0  0.11551000000000004  0.45898999999999995  0.31832  1.0000
  O   O42       1.0  0.23979000000000006  0.57037  0.28449  1.0000
  O   O43       1.0  0.41532000000000013  0.46889  0.32201  1.0000
  O   O44       1.0  0.46002  0.6192399999999999  0.36063  1.0000
  O   O45       1.0  0.3099100000000001  0.41526  0.68123  1.0000
  O   O46       1.0  0.37484  0.56961  0.66558  1.0000
  O   O47       1.0  0.03945  0.40904  0.60958  1.0000
  O   O48       1.0  0.11499  0.52999  0.67024  1.0000
  O   O49       1.0  0.11056000000000002  0.02463  0.3213  1.0000
  O   O50       1.0  0.20372  0.8837999999999999  0.32192  1.0000
  O   O51       1.0  0.3957300000000001  0.9941199999999999  0.31415000000000004  1.0000
  O   O52       1.0  0.4395400000000001  0.85997  0.3901700000000001  1.0000
  O   O53       1.0  0.3940000000000001  0.9651199999999998  0.67075  1.0000
  O   O54       1.0  0.31087  0.11087000000000001  0.67416  1.0000
  O   O55       1.0  0.11454  0.9865699999999997  0.68067  1.0000
  O   O56       1.0  0.05034000000000002  0.11485999999999999  0.61364  1.0000
  O   O57       1.0  0.54101  0.88449  0.18168  1.0000
  O   O58       1.0  0.42964  0.7602099999999999  0.21552000000000004  1.0000
  O   O59       1.0  0.53122  0.5846800000000001  0.17797  1.0000
  O   O60       1.0  0.3808200000000001  0.53999  0.13939  1.0000
  O   O61       1.0  0.5847400000000001  0.69009  0.8187600000000003  1.0000
  O   O62       1.0  0.4303700000000001  0.62515  0.83448  1.0000
  O   O63       1.0  0.59095  0.9605499999999998  0.89043  1.0000
  O   O64       1.0  0.4700000000000001  0.88501  0.82976  1.0000
