data_image0
_chemical_formula_structural       Zn8H56C84N24O32
_chemical_formula_sum              "Zn8 H56 C84 N24 O32"
_cell_length_a       7.52797
_cell_length_b       15.33854
_cell_length_c       34.80395
_cell_angle_alpha    97.7694
_cell_angle_beta     89.91676000000001
_cell_angle_gamma    104.23591

_symmetry_space_group_name_H-M    'P 1'
_symmetry_Int_Tables_number       1

loop_
  _symmetry_equiv_pos_as_xyz
  'x,y,z'

loop_
  _atom_site_type_symbol
  _atom_site_label
  _atom_site_symmetry_multiplicity
  _atom_site_fract_x
  _atom_site_fract_y
  _atom_site_fract_z
  _atom_site_occupancy
  Zn  Zn1       1.0  0.050470000000000015  0.09963000000000002  0.78417  1.0000
  Zn  Zn2       1.0  0.7814799999999998  0.57608  0.18256  1.0000
  Zn  Zn3       1.0  0.7963900000000002  0.5792700000000002  0.68285  1.0000
  Zn  Zn4       1.0  0.9499199999999998  0.90044  0.71692  1.0000
  Zn  Zn5       1.0  0.05007000000000001  0.09956000000000001  0.28308  1.0000
  Zn  Zn6       1.0  0.94952  0.9003800000000002  0.21583  1.0000
  Zn  Zn7       1.0  0.21850999999999995  0.42393  0.81744  1.0000
  Zn  Zn8       1.0  0.20360000000000006  0.4207400000000001  0.31715  1.0000
  H   H1        1.0  0.99797  0.7313  0.79081  1.0000
  H   H2        1.0  0.5243499999999998  0.2731  0.35626  1.0000
  H   H3        1.0  0.2815  0.12478000000000003  0.57348  1.0000
  H   H4        1.0  0.38393  0.63142  0.69446  1.0000
  H   H5        1.0  0.010290000000000028  0.56875  0.40715000000000007  1.0000
  H   H6        1.0  0.38170000000000004  0.36281000000000013  0.65982  1.0000
  H   H7        1.0  0.9793500000000002  0.3634400000000001  0.15918  1.0000
  H   H8        1.0  0.2506  0.7280800000000002  0.14265  1.0000
  H   H9        1.0  0.15677000000000005  0.8742500000000001  0.92724  1.0000
  H   H10       1.0  0.7776000000000001  0.6084200000000002  0.52721  1.0000
  H   H11       1.0  0.26379000000000014  0.26841  0.70983  1.0000
  H   H12       1.0  0.0020200000000000244  0.26871  0.20919  1.0000
  H   H13       1.0  0.27690000000000003  0.5380800000000002  0.15939  1.0000
  H   H14       1.0  0.43012999999999996  0.26598  0.55792  1.0000
  H   H15       1.0  0.6688900000000001  0.7064200000000003  0.61769  1.0000
  H   H16       1.0  0.5698600000000001  0.7340300000000002  0.44208  1.0000
  H   H17       1.0  0.65617  0.3590800000000001  0.49297  1.0000
  H   H18       1.0  0.7185  0.8752200000000001  0.42652  1.0000
  H   H19       1.0  0.08914000000000002  0.3696100000000001  0.52903  1.0000
  H   H20       1.0  0.036980000000000034  0.70588  0.11686999999999999  1.0000
  H   H21       1.0  0.4756400000000001  0.7269100000000002  0.64374  1.0000
  H   H22       1.0  0.16771000000000005  0.3909800000000001  0.97323  1.0000
  H   H23       1.0  0.8637999999999999  0.028879999999999996  0.12358999999999999  1.0000
  H   H24       1.0  0.28010000000000007  0.3695000000000001  0.02932  1.0000
  H   H25       1.0  0.55702  0.5685400000000003  0.90709  1.0000
  H   H26       1.0  0.34382  0.64093  0.50703  1.0000
  H   H27       1.0  0.7362  0.7316  0.29017  1.0000
  H   H28       1.0  0.6182900000000001  0.6371900000000003  0.34017  1.0000
  H   H29       1.0  0.7618299999999999  0.2982  0.42867  1.0000
  H   H30       1.0  0.44297000000000003  0.43147000000000013  0.09291000000000002  1.0000
  H   H31       1.0  0.72309  0.46193000000000023  0.8406  1.0000
  H   H32       1.0  0.22239999999999996  0.3915800000000001  0.47279  1.0000
  H   H33       1.0  0.8364499999999999  0.9717200000000003  0.37556  1.0000
  H   H34       1.0  0.84322  0.12576  0.07276  1.0000
  H   H35       1.0  0.16405000000000003  0.7337100000000002  0.94271  1.0000
  H   H36       1.0  0.13619000000000012  0.9711300000000003  0.87641  1.0000
  H   H37       1.0  0.7366000000000001  0.46128000000000013  0.33923  1.0000
  H   H38       1.0  0.53442  0.2980600000000001  0.92902  1.0000
  H   H39       1.0  0.29715000000000014  0.6403800000000002  0.00704  1.0000
  H   H40       1.0  0.7461199999999999  0.36809  0.80713  1.0000
  H   H41       1.0  0.16355000000000003  0.028280000000000013  0.62444  1.0000
  H   H42       1.0  0.7198900000000001  0.6305100000000002  0.9706700000000001  1.0000
  H   H43       1.0  0.3311  0.29358000000000006  0.38231000000000004  1.0000
  H   H44       1.0  0.9108500000000002  0.6304000000000002  0.47097000000000006  1.0000
  H   H45       1.0  0.83594  0.2663000000000001  0.05729  1.0000
  H   H46       1.0  0.4655700000000001  0.7019500000000002  0.07098  1.0000
  H   H47       1.0  0.7493899999999998  0.2719200000000001  0.85734  1.0000
  H   H48       1.0  0.25388000000000005  0.6319200000000001  0.19287  1.0000
  H   H49       1.0  0.23816000000000012  0.7018000000000002  0.57132  1.0000
  H   H50       1.0  0.9630200000000001  0.2941300000000001  0.88313  1.0000
  H   H51       1.0  0.26339000000000007  0.5387300000000003  0.66077  1.0000
  H   H52       1.0  0.7028499999999999  0.35963  0.99295  1.0000
  H   H53       1.0  0.98971  0.4312600000000001  0.59285  1.0000
  H   H54       1.0  0.020649999999999998  0.63657  0.84082  1.0000
  H   H55       1.0  0.83228  0.60903  0.02677  1.0000
  H   H56       1.0  0.61607  0.36859  0.30554  1.0000
  C   C1        1.0  0.27442000000000005  0.24917000000000009  0.32231000000000004  1.0000
  C   C2        1.0  0.11195000000000006  0.8979200000000003  0.86895  1.0000
  C   C3        1.0  0.89706  0.3026600000000001  0.85618  1.0000
  C   C4        1.0  0.26863  0.23611000000000004  0.68017  1.0000
  C   C5        1.0  0.21254  0.10154000000000003  0.63179  1.0000
  C   C6        1.0  0.7255700000000002  0.7508400000000002  0.67769  1.0000
  C   C7        1.0  0.7764400000000001  0.4985100000000001  0.48619000000000007  1.0000
  C   C8        1.0  0.9476899999999998  0.08584  0.2001  1.0000
  C   C9        1.0  0.72206  0.49893000000000015  0.9859900000000001  1.0000
  C   C10       1.0  0.40540999999999994  0.3024400000000001  0.35526  1.0000
  C   C11       1.0  0.9332799999999998  0.52328  0.42607  1.0000
  C   C12       1.0  0.93221  0.14161  0.16992  1.0000
  C   C13       1.0  0.08823000000000018  0.6055800000000003  0.9160500000000001  1.0000
  C   C14       1.0  0.4570100000000001  0.4609100000000001  0.38662  1.0000
  C   C15       1.0  0.7333799999999999  0.40417000000000014  0.47408000000000006  1.0000
  C   C16       1.0  0.8684999999999999  0.5065  0.05228  1.0000
  C   C17       1.0  0.65802  0.7491700000000002  0.38663  1.0000
  C   C18       1.0  0.4833800000000001  0.3939600000000001  0.58466  1.0000
  C   C19       1.0  0.10293999999999995  0.69735  0.14382  1.0000
  C   C20       1.0  0.02220000000000014  0.7493600000000002  0.17657  1.0000
  C   C21       1.0  0.7313600000000001  0.7638900000000002  0.31983  1.0000
  C   C22       1.0  0.17691999999999994  0.57056  0.1744  1.0000
  C   C23       1.0  0.5770000000000001  0.3709300000000001  0.93849  1.0000
  C   C24       1.0  0.88805  0.10209000000000003  0.13105  1.0000
  C   C25       1.0  0.12305999999999997  0.8436899999999999  0.89721  1.0000
  C   C26       1.0  0.12303000000000006  0.4426500000000001  0.5383  1.0000
  C   C27       1.0  0.43761  0.50346  0.70179  1.0000
  C   C28       1.0  0.034399999999999945  0.76357  0.8204800000000001  1.0000
  C   C29       1.0  0.06671000000000009  0.47673000000000015  0.57393  1.0000
  C   C30       1.0  0.56875  0.6098300000000002  0.12364000000000001  1.0000
  C   C31       1.0  0.7922499999999999  0.3709300000000001  0.4383600000000001  1.0000
  C   C32       1.0  0.26661  0.59583  0.52592  1.0000
  C   C33       1.0  0.046069999999999924  0.70919  0.84857  1.0000
  C   C34       1.0  0.87694  0.15632  0.10279  1.0000
  C   C35       1.0  0.8638300000000001  0.9142100000000002  0.29911  1.0000
  C   C36       1.0  0.59458  0.69757  0.64474  1.0000
  C   C37       1.0  0.27793  0.50108  0.01401  1.0000
  C   C38       1.0  0.67999  0.55746  0.96147  1.0000
  C   C39       1.0  0.43124  0.39017  0.87636  1.0000
  C   C40       1.0  0.5351800000000001  0.4289300000000001  0.91393  1.0000
  C   C41       1.0  0.07140000000000009  0.5051400000000003  0.2014  1.0000
  C   C42       1.0  0.99878  0.5394800000000002  0.11262  1.0000
  C   C43       1.0  0.67021  0.4045300000000001  0.9740599999999999  1.0000
  C   C44       1.0  0.09105999999999993  0.74851  0.88729  1.0000
  C   C45       1.0  0.13149000000000013  0.4935100000000002  0.94772  1.0000
  C   C46       1.0  0.10786000000000001  0.5708  0.58608  1.0000
  C   C47       1.0  0.20762000000000003  0.14133  0.67062  1.0000
  C   C48       1.0  0.8769600000000002  0.5573600000000002  0.4617  1.0000
  C   C49       1.0  0.9285999999999999  0.4948700000000001  0.7986  1.0000
  C   C50       1.0  0.4229999999999999  0.62908  0.06151  1.0000
  C   C51       1.0  0.51661  0.60605  0.41534  1.0000
  C   C52       1.0  0.33524  0.2902500000000001  0.65203  1.0000
  C   C53       1.0  0.39684  0.57016  0.67549  1.0000
  C   C54       1.0  0.13617  0.0858  0.70088  1.0000
  C   C55       1.0  0.9655899999999998  0.23643  0.17951  1.0000
  C   C56       1.0  0.4648100000000001  0.5710800000000003  0.08606  1.0000
  C   C57       1.0  0.72159  0.8443800000000002  0.39652  1.0000
  C   C58       1.0  0.78745  0.89847  0.36821  1.0000
  C   C59       1.0  0.90894  0.2515  0.11271  1.0000
  C   C60       1.0  0.82308  0.4294500000000001  0.8256  1.0000
  C   C61       1.0  0.8921300000000001  0.4292100000000001  0.41392  1.0000
  C   C62       1.0  0.27841  0.15562  0.60348  1.0000
  C   C63       1.0  0.34198  0.25084  0.61337  1.0000
  C   C64       1.0  0.95392  0.2908100000000001  0.15143  1.0000
  C   C65       1.0  0.042530000000000054  0.60962  0.6236  1.0000
  C   C66       1.0  0.66475  0.70976  0.34797  1.0000
  C   C67       1.0  0.54299  0.5391000000000002  0.61338  1.0000
  C   C68       1.0  0.20774  0.62908  0.56164  1.0000
  C   C69       1.0  0.79237  0.8586800000000002  0.32938  1.0000
  C   C70       1.0  0.06779000000000003  0.8583900000000002  0.83008  1.0000
  C   C71       1.0  0.32978000000000013  0.5954800000000002  0.02594  1.0000
  C   C72       1.0  0.36133000000000004  0.49395000000000017  0.4472  1.0000
  C   C73       1.0  0.6386600000000001  0.5060500000000002  0.5528  1.0000
  C   C74       1.0  0.97779  0.2506500000000001  0.82343  1.0000
  C   C75       1.0  0.58866  0.5231  0.92598  1.0000
  C   C76       1.0  0.9574599999999995  0.39039  0.3764  1.0000
  C   C77       1.0  0.0012200000000000101  0.46053  0.88738  1.0000
  C   C78       1.0  0.60315  0.4298500000000001  0.3245  1.0000
  C   C79       1.0  0.5623799999999999  0.4965400000000001  0.29821  1.0000
  C   C80       1.0  0.05231000000000007  0.9141700000000003  0.79989  1.0000
  C   C81       1.0  0.22355000000000003  0.5015000000000001  0.5138  1.0000
  C   C82       1.0  0.41133000000000003  0.4769100000000001  0.07402  1.0000
  C   C83       1.0  0.32  0.4425500000000001  0.03853  1.0000
  C   C84       1.0  0.91177  0.39442000000000005  0.08395  1.0000
  N   N1        1.0  0.93557  0.3999100000000001  0.85385  1.0000
  N   N2        1.0  0.36913  0.42896  0.41711  1.0000
  N   N3        1.0  0.057969999999999994  0.42859  0.9177400000000001  1.0000
  N   N4        1.0  0.53704  0.5487100000000003  0.38412  1.0000
  N   N5        1.0  0.9420300000000001  0.5714100000000002  0.08225  1.0000
  N   N6        1.0  0.41121  0.3015400000000001  0.58378  1.0000
  N   N7        1.0  0.27203  0.4601200000000001  0.47835  1.0000
  N   N8        1.0  0.15187000000000012  0.5832600000000002  0.94866  1.0000
  N   N9        1.0  0.58878  0.69846  0.41622  1.0000
  N   N10       1.0  0.10904000000000012  0.6980000000000002  0.91692  1.0000
  N   N11       1.0  0.00913999999999999  0.54837  0.8849700000000001  1.0000
  N   N12       1.0  0.8130000000000001  0.5404800000000002  0.02123  1.0000
  N   N13       1.0  0.46296  0.4513  0.61587  1.0000
  N   N14       1.0  0.5387999999999997  0.59998  0.64708  1.0000
  N   N15       1.0  0.8909500000000001  0.3020100000000001  0.08308  1.0000
  N   N16       1.0  0.43127  0.5836600000000001  0.44808  1.0000
  N   N17       1.0  0.18699000000000007  0.45953000000000016  0.9787600000000001  1.0000
  N   N18       1.0  0.56873  0.41635000000000005  0.55192  1.0000
  N   N19       1.0  0.8481200000000001  0.41674  0.05134  1.0000
  N   N20       1.0  0.6308600000000001  0.5710400000000002  0.58289  1.0000
  N   N21       1.0  0.9908499999999998  0.4516300000000001  0.11503  1.0000
  N   N22       1.0  0.46119999999999994  0.4000300000000001  0.35292  1.0000
  N   N23       1.0  0.06442000000000006  0.60009  0.14614  1.0000
  N   N24       1.0  0.72797  0.5398900000000002  0.52164  1.0000
  O   O1        1.0  0.008230000000000084  0.8715800000000002  0.76535  1.0000
  O   O2        1.0  0.07995000000000003  0.9993400000000001  0.69138  1.0000
  O   O3        1.0  0.8415399999999998  0.53926  0.78274  1.0000
  O   O4        1.0  0.92872  0.3070000000000001  0.3667  1.0000
  O   O5        1.0  0.0712700000000001  0.6930000000000002  0.6333  1.0000
  O   O6        1.0  0.18836  0.2862300000000001  0.30094  1.0000
  O   O7        1.0  0.74896  0.8380800000000003  0.6815600000000002  1.0000
  O   O8        1.0  0.99177  0.12842  0.23464  1.0000
  O   O9        1.0  0.15844999999999998  0.46075  0.21725  1.0000
  O   O10       1.0  0.0815400000000001  0.8367400000000003  0.17954  1.0000
  O   O11       1.0  0.95404  0.5468200000000002  0.64413  1.0000
  O   O12       1.0  0.86671  0.8714000000000002  0.26463  1.0000
  O   O13       1.0  0.10347  0.4997200000000001  0.79391  1.0000
  O   O14       1.0  0.39146  0.4988500000000001  0.29316  1.0000
  O   O15       1.0  0.62703  0.6931500000000003  0.13308  1.0000
  O   O16       1.0  0.41090000000000004  0.4529900000000001  0.85523  1.0000
  O   O17       1.0  0.08058  0.00047999999999999324  0.80955  1.0000
  O   O18       1.0  0.58909  0.54702  0.14477  1.0000
  O   O19       1.0  0.91941  0.99953  0.19045  1.0000
  O   O20       1.0  0.25103  0.16192  0.31844  1.0000
  O   O21       1.0  0.89653  0.5002900000000001  0.20609  1.0000
  O   O22       1.0  0.13329  0.12861  0.73536  1.0000
  O   O23       1.0  0.09764000000000007  0.2887200000000001  0.80165  1.0000
  O   O24       1.0  0.90235  0.71128  0.19834  1.0000
  O   O25       1.0  0.69416  0.5437600000000002  0.28333  1.0000
  O   O26       1.0  0.37296  0.30686  0.86692  1.0000
  O   O27       1.0  0.30583  0.45624  0.7166600000000001  1.0000
  O   O28       1.0  0.81163  0.71378  0.69906  1.0000
  O   O29       1.0  0.60853  0.50116  0.70684  1.0000
  O   O30       1.0  0.91845  0.16326000000000002  0.82046  1.0000
  O   O31       1.0  0.92004  0.0006699999999999918  0.30862  1.0000
  O   O32       1.0  0.04595000000000004  0.45318000000000014  0.35586  1.0000
