data_image0
_chemical_formula_structural       Zn6H48C84N4O24
_chemical_formula_sum              "Zn6 H48 C84 N4 O24"
_cell_length_a       14.81106
_cell_length_b       14.81208
_cell_length_c       16.73951
_cell_angle_alpha    102.73758999999998
_cell_angle_beta     102.79318
_cell_angle_gamma    116.31994999999999

_symmetry_space_group_name_H-M    'P 1'
_symmetry_Int_Tables_number       1

loop_
  _symmetry_equiv_pos_as_xyz
  'x,y,z'

loop_
  _atom_site_type_symbol
  _atom_site_label
  _atom_site_symmetry_multiplicity
  _atom_site_fract_x
  _atom_site_fract_y
  _atom_site_fract_z
  _atom_site_occupancy
  Zn  Zn1       1.0  0.57574  0.9734399999999997  0.07883000000000003  1.0000
  Zn  Zn2       1.0  0.026840000000000006  0.4242000000000001  0.4212300000000001  1.0000
  Zn  Zn3       1.0  0.4242500000000001  0.02656000000000006  0.9211600000000002  1.0000
  Zn  Zn4       1.0  0.9731500000000002  0.57579  0.5787700000000001  1.0000
  Zn  Zn5       1.0  0.8314100000000001  0.16850999999999997  0.2500200000000001  1.0000
  Zn  Zn6       1.0  0.16858999999999993  0.8314799999999999  0.74998  1.0000
  H   H1        1.0  0.9616300000000001  0.020799999999999992  0.16559  1.0000
  H   H2        1.0  0.05613999999999985  0.9186899999999998  0.15504  1.0000
  H   H3        1.0  0.7536099999999999  0.6210699999999998  0.07786000000000003  1.0000
  H   H4        1.0  0.65962  0.72506  0.08884  1.0000
  H   H5        1.0  0.8926100000000001  0.36128  0.08196  1.0000
  H   H6        1.0  0.9267199999999999  0.50803  0.02132  1.0000
  H   H7        1.0  0.9441299999999999  0.70903  0.2603200000000001  1.0000
  H   H8        1.0  0.91068  0.56227  0.32069  1.0000
  H   H9        1.0  0.16405999999999998  0.88454  0.95755  1.0000
  H   H10       1.0  0.99343  0.79646  0.9853800000000003  1.0000
  H   H11       1.0  0.14253000000000002  0.69843  0.17238  1.0000
  H   H12       1.0  0.3108300000000001  0.7805500000000002  0.13931000000000004  1.0000
  H   H13       1.0  0.97918  0.03839000000000005  0.3343600000000001  1.0000
  H   H14       1.0  0.08130000000000001  0.94387  0.34487  1.0000
  H   H15       1.0  0.3790099999999999  0.2463599999999999  0.42208  1.0000
  H   H16       1.0  0.27495999999999987  0.3403399999999999  0.41113  1.0000
  H   H17       1.0  0.6387900000000001  0.10734000000000003  0.41807  1.0000
  H   H18       1.0  0.4920900000000001  0.07333000000000005  0.4786900000000001  1.0000
  H   H19       1.0  0.29089  0.0559  0.23964  1.0000
  H   H20       1.0  0.43753  0.08927000000000004  0.17922000000000005  1.0000
  H   H21       1.0  0.11547000000000002  0.8358399999999999  0.5423800000000002  1.0000
  H   H22       1.0  0.20365  0.006510000000000009  0.51458  1.0000
  H   H23       1.0  0.3016  0.85751  0.32766  1.0000
  H   H24       1.0  0.21943  0.6892  0.3607300000000001  1.0000
  H   H25       1.0  0.03836999999999991  0.9791999999999998  0.8344000000000003  1.0000
  H   H26       1.0  0.9438600000000003  0.08131000000000012  0.8449600000000003  1.0000
  H   H27       1.0  0.24639000000000008  0.37893000000000004  0.9221400000000002  1.0000
  H   H28       1.0  0.34037999999999996  0.27494  0.9111600000000002  1.0000
  H   H29       1.0  0.1073800000000001  0.6387200000000001  0.9180400000000001  1.0000
  H   H30       1.0  0.07328000000000004  0.49197  0.9786700000000003  1.0000
  H   H31       1.0  0.05586000000000007  0.29096000000000005  0.7396800000000002  1.0000
  H   H32       1.0  0.08932000000000008  0.4377200000000001  0.6793000000000002  1.0000
  H   H33       1.0  0.83594  0.11545  0.042450000000000015  1.0000
  H   H34       1.0  0.006569999999999974  0.20352999999999993  0.014610000000000001  1.0000
  H   H35       1.0  0.85746  0.30157  0.82762  1.0000
  H   H36       1.0  0.6891700000000001  0.21944000000000008  0.8606800000000002  1.0000
  H   H37       1.0  0.02082000000000003  0.9616100000000001  0.66564  1.0000
  H   H38       1.0  0.9187  0.056130000000000006  0.65513  1.0000
  H   H39       1.0  0.62099  0.75364  0.5779100000000003  1.0000
  H   H40       1.0  0.7250399999999996  0.6596599999999998  0.58887  1.0000
  H   H41       1.0  0.36121  0.89265  0.58193  1.0000
  H   H42       1.0  0.5078999999999999  0.9266599999999999  0.52131  1.0000
  H   H43       1.0  0.7091000000000001  0.9441000000000002  0.7603600000000003  1.0000
  H   H44       1.0  0.5624599999999997  0.91073  0.82078  1.0000
  H   H45       1.0  0.8845199999999999  0.16415000000000002  0.45762000000000014  1.0000
  H   H46       1.0  0.7963499999999999  0.9934799999999999  0.48542000000000013  1.0000
  H   H47       1.0  0.6984  0.14249000000000003  0.67234  1.0000
  H   H48       1.0  0.78056  0.3107900000000001  0.6392700000000002  1.0000
  C   C1        1.0  0.7516599999999998  0.9444299999999999  0.13173000000000007  1.0000
  C   C2        1.0  0.80448  0.8796599999999999  0.12642000000000003  1.0000
  C   C3        1.0  0.91649  0.93319  0.1451  1.0000
  C   C4        1.0  0.9692499999999998  0.87603  0.13925  1.0000
  C   C5        1.0  0.91075  0.7627  0.11348000000000003  1.0000
  C   C6        1.0  0.79875  0.70858  0.09675000000000003  1.0000
  C   C7        1.0  0.7463399999999999  0.7666099999999998  0.10301000000000003  1.0000
  C   C8        1.0  0.8870900000000002  0.36953  0.24428000000000005  1.0000
  C   C9        1.0  0.9009699999999998  0.4534599999999999  0.20551000000000005  1.0000
  C   C10       1.0  0.90465  0.4378199999999999  0.12062000000000003  1.0000
  C   C11       1.0  0.92352  0.51957  0.08686  1.0000
  C   C12       1.0  0.93846  0.61787  0.13747000000000006  1.0000
  C   C13       1.0  0.93193  0.63258  0.22129  1.0000
  C   C14       1.0  0.9135999999999999  0.55096  0.25508  1.0000
  C   C15       1.0  0.35194  0.89834  0.03448000000000001  1.0000
  C   C16       1.0  0.24908999999999995  0.84021  0.04824000000000001  1.0000
  C   C17       1.0  0.15884999999999994  0.8442199999999999  0.004820000000000001  1.0000
  C   C18       1.0  0.06354000000000004  0.79481  0.020330000000000008  1.0000
  C   C19       1.0  0.05753999999999999  0.74422  0.08269000000000001  1.0000
  C   C20       1.0  0.14686999999999986  0.7375399999999999  0.12437  1.0000
  C   C21       1.0  0.24101999999999996  0.78402  0.10631000000000003  1.0000
  C   C22       1.0  0.05562000000000004  0.24834000000000006  0.3683400000000001  1.0000
  C   C23       1.0  0.12037000000000002  0.19552000000000003  0.37359000000000003  1.0000
  C   C24       1.0  0.06679000000000004  0.08349000000000004  0.3548600000000001  1.0000
  C   C25       1.0  0.12398000000000005  0.030760000000000058  0.3606800000000001  1.0000
  C   C26       1.0  0.23732000000000003  0.08923000000000005  0.38646000000000014  1.0000
  C   C27       1.0  0.29148  0.20123  0.40319  1.0000
  C   C28       1.0  0.23341  0.25361  0.39696  1.0000
  C   C29       1.0  0.6303900000000001  0.11272000000000004  0.2557000000000001  1.0000
  C   C30       1.0  0.54649  0.09895999999999999  0.29445  1.0000
  C   C31       1.0  0.56223  0.09532  0.37938  1.0000
  C   C32       1.0  0.48050000000000004  0.07650000000000007  0.4131300000000001  1.0000
  C   C33       1.0  0.38216  0.06154999999999997  0.36251  1.0000
  C   C34       1.0  0.36738  0.06808  0.27866  1.0000
  C   C35       1.0  0.4489600000000001  0.08637000000000002  0.24487000000000006  1.0000
  C   C36       1.0  0.10159000000000001  0.64801  0.4654900000000001  1.0000
  C   C37       1.0  0.15975000000000003  0.75087  0.4517100000000001  1.0000
  C   C38       1.0  0.15577999999999995  0.84109  0.4951200000000001  1.0000
  C   C39       1.0  0.20525000000000002  0.93641  0.4796200000000001  1.0000
  C   C40       1.0  0.25582  0.94244  0.4172900000000001  1.0000
  C   C41       1.0  0.26247999999999994  0.8531399999999999  0.3756400000000001  1.0000
  C   C42       1.0  0.2159599999999999  0.75898  0.3937  1.0000
  C   C43       1.0  0.24833  0.05557000000000001  0.8682700000000001  1.0000
  C   C44       1.0  0.19552  0.12033999999999999  0.8735800000000001  1.0000
  C   C45       1.0  0.08350000000000003  0.06681000000000001  0.85489  1.0000
  C   C46       1.0  0.0307500000000001  0.12397000000000005  0.8607400000000002  1.0000
  C   C47       1.0  0.08925000000000008  0.23729000000000008  0.8865200000000002  1.0000
  C   C48       1.0  0.2012500000000001  0.2914200000000002  0.9032500000000002  1.0000
  C   C49       1.0  0.25365  0.23338  0.89699  1.0000
  C   C50       1.0  0.11291000000000015  0.63047  0.7557200000000002  1.0000
  C   C51       1.0  0.09901999999999993  0.5465299999999998  0.79449  1.0000
  C   C52       1.0  0.0953400000000001  0.5621800000000001  0.8793700000000002  1.0000
  C   C53       1.0  0.07647000000000002  0.48042  0.91313  1.0000
  C   C54       1.0  0.06152999999999998  0.38212  0.86253  1.0000
  C   C55       1.0  0.06806000000000004  0.3674200000000001  0.7787000000000002  1.0000
  C   C56       1.0  0.08638999999999997  0.44903  0.74492  1.0000
  C   C57       1.0  0.64805  0.10165999999999993  0.96551  1.0000
  C   C58       1.0  0.7509100000000002  0.15978000000000014  0.9517500000000002  1.0000
  C   C59       1.0  0.84115  0.15577999999999992  0.99517  1.0000
  C   C60       1.0  0.93645  0.2051900000000001  0.9796600000000002  1.0000
  C   C61       1.0  0.9424499999999997  0.2557799999999999  0.91731  1.0000
  C   C62       1.0  0.85312  0.2624500000000001  0.8756300000000002  1.0000
  C   C63       1.0  0.7589700000000001  0.21598000000000006  0.8936900000000001  1.0000
  C   C64       1.0  0.9443799999999998  0.75166  0.6316600000000002  1.0000
  C   C65       1.0  0.87962  0.80448  0.6264000000000002  1.0000
  C   C66       1.0  0.9332  0.9165  0.6451400000000003  1.0000
  C   C67       1.0  0.87602  0.96923  0.6393200000000002  1.0000
  C   C68       1.0  0.7626800000000001  0.9107700000000002  0.6135400000000002  1.0000
  C   C69       1.0  0.7085099999999999  0.7987599999999999  0.5968000000000002  1.0000
  C   C70       1.0  0.76658  0.74638  0.60304  1.0000
  C   C71       1.0  0.36961  0.88728  0.7442900000000002  1.0000
  C   C72       1.0  0.45351  0.90103  0.70555  1.0000
  C   C73       1.0  0.43777  0.90468  0.62062  1.0000
  C   C74       1.0  0.5195  0.9235  0.58687  1.0000
  C   C75       1.0  0.6178400000000001  0.9384500000000001  0.6374900000000002  1.0000
  C   C76       1.0  0.63262  0.93191  0.72134  1.0000
  C   C77       1.0  0.55104  0.9136199999999999  0.75513  1.0000
  C   C78       1.0  0.8983999999999999  0.3519899999999999  0.53451  1.0000
  C   C79       1.0  0.8402499999999997  0.24913  0.54829  1.0000
  C   C80       1.0  0.8442099999999998  0.1589  0.50488  1.0000
  C   C81       1.0  0.79474  0.06357999999999998  0.52037  1.0000
  C   C82       1.0  0.74417  0.057550000000000094  0.5827100000000002  1.0000
  C   C83       1.0  0.73751  0.14686000000000007  0.6243600000000002  1.0000
  C   C84       1.0  0.78403  0.2410200000000001  0.6063000000000002  1.0000
  N   N1        1.0  0.9639799999999998  0.7038099999999999  0.10484000000000003  1.0000
  N   N2        1.0  0.2962299999999999  0.036010000000000056  0.39512000000000014  1.0000
  N   N3        1.0  0.036009999999999986  0.29618  0.89516  1.0000
  N   N4        1.0  0.7037699999999998  0.96399  0.60488  1.0000
  O   O1        1.0  0.81269  0.04711  0.15541  1.0000
  O   O2        1.0  0.64865  0.8950900000000002  0.11075000000000003  1.0000
  O   O3        1.0  0.86612  0.2778  0.19481000000000004  1.0000
  O   O4        1.0  0.89636  0.39131  0.32534  1.0000
  O   O5        1.0  0.36391999999999997  0.9742699999999999  0.005250000000000002  1.0000
  O   O6        1.0  0.4231399999999999  0.87231  0.05556000000000001  1.0000
  O   O7        1.0  0.95293  0.18746  0.34477  1.0000
  O   O8        1.0  0.10506  0.35134  0.38926  1.0000
  O   O9        1.0  0.72197  0.13319  0.3051  1.0000
  O   O10       1.0  0.60868  0.10376999999999999  0.17469  1.0000
  O   O11       1.0  0.025609999999999907  0.63597  0.49462  1.0000
  O   O12       1.0  0.12771000000000002  0.57689  0.4444800000000001  1.0000
  O   O13       1.0  0.18730999999999992  0.95289  0.8445900000000002  1.0000
  O   O14       1.0  0.3513400000000001  0.10491000000000013  0.8892500000000001  1.0000
  O   O15       1.0  0.13387999999999997  0.72219  0.8051900000000002  1.0000
  O   O16       1.0  0.1036400000000001  0.6086900000000001  0.6746600000000003  1.0000
  O   O17       1.0  0.63608  0.02572000000000011  0.9947500000000002  1.0000
  O   O18       1.0  0.57686  0.12768000000000004  0.9444400000000002  1.0000
  O   O19       1.0  0.047059999999999845  0.8125399999999998  0.65523  1.0000
  O   O20       1.0  0.8949399999999998  0.6486500000000001  0.6107300000000002  1.0000
  O   O21       1.0  0.27803  0.8668  0.6949  1.0000
  O   O22       1.0  0.39132  0.8962199999999999  0.8253000000000003  1.0000
  O   O23       1.0  0.97439  0.36402  0.50538  1.0000
  O   O24       1.0  0.8722799999999995  0.4230999999999999  0.55551  1.0000
