data_image0
_chemical_formula_structural       Ho4Cu6H48C48O60
_chemical_formula_sum              "Ho4 Cu6 H48 C48 O60"
_cell_length_a       14.59835
_cell_length_b       14.60301
_cell_length_c       15.34001
_cell_angle_alpha    90.00464
_cell_angle_beta     89.99863000000002
_cell_angle_gamma    120.099

_space_group_name_H-M_alt    "P 1"
_space_group_IT_number       1

loop_
  _space_group_symop_operation_xyz
  'x, y, z'

loop_
  _atom_site_type_symbol
  _atom_site_label
  _atom_site_symmetry_multiplicity
  _atom_site_fract_x
  _atom_site_fract_y
  _atom_site_fract_z
  _atom_site_occupancy
  Ho  Ho1       1.0  0.33316  0.66847  0.25104  1.0000
  Ho  Ho2       1.0  0.6665999999999997  0.33541  0.25101000000000007  1.0000
  Ho  Ho3       1.0  0.66655  0.33129  0.7486800000000002  1.0000
  Ho  Ho4       1.0  0.33344  0.6646600000000001  0.74898  1.0000
  Cu  Cu1       1.0  2.0000000000023095e-05  0.49999000000000005  1e-05  1.0000
  Cu  Cu2       1.0  0.50001  0.50002  1e-05  1.0000
  Cu  Cu3       1.0  0.4999899999999999  0.0  2e-05  1.0000
  Cu  Cu4       1.0  0.4999899999999999  1.9999999999999995e-05  0.50001  1.0000
  Cu  Cu5       1.0  0.50001  0.50001  0.5000200000000001  1.0000
  Cu  Cu6       1.0  0.9999899999999999  0.49998  0.5000200000000001  1.0000
  H   H1        1.0  0.07822999999999997  0.36081  0.23151000000000005  1.0000
  H   H2        1.0  0.16826  0.36253  0.15084  1.0000
  H   H3        1.0  0.6389700000000001  0.7173800000000001  0.2316  1.0000
  H   H4        1.0  0.6375399999999999  0.80588  0.15076  1.0000
  H   H5        1.0  0.28287999999999985  0.9218399999999999  0.23146000000000005  1.0000
  H   H6        1.0  0.19407  0.8316400000000002  0.15076  1.0000
  H   H7        1.0  0.9218400000000001  0.6392800000000001  0.23156000000000004  1.0000
  H   H8        1.0  0.8317499999999998  0.6375699999999999  0.15079  1.0000
  H   H9        1.0  0.36105  0.28266  0.2316  1.0000
  H   H10       1.0  0.3625299999999999  0.19413  0.15075000000000005  1.0000
  H   H11       1.0  0.7171299999999998  0.0783  0.23145  1.0000
  H   H12       1.0  0.8058499999999998  0.16838000000000003  0.15083  1.0000
  H   H13       1.0  0.3614099999999999  0.07863  0.26838  1.0000
  H   H14       1.0  0.36171  0.16742  0.3499100000000001  1.0000
  H   H15       1.0  0.71734  0.6386400000000001  0.26838  1.0000
  H   H16       1.0  0.8058300000000002  0.6385200000000001  0.3499500000000001  1.0000
  H   H17       1.0  0.92141  0.28279  0.26842  1.0000
  H   H18       1.0  0.83263  0.19441  0.3499  1.0000
  H   H19       1.0  0.6386999999999998  0.92147  0.26841  1.0000
  H   H20       1.0  0.63836  0.83263  0.34993  1.0000
  H   H21       1.0  0.28266  0.36152  0.26838  1.0000
  H   H22       1.0  0.19427999999999995  0.36164  0.34987  1.0000
  H   H23       1.0  0.07858  0.7172  0.26835  1.0000
  H   H24       1.0  0.16740999999999995  0.8056599999999999  0.3499400000000001  1.0000
  H   H25       1.0  0.9218099999999998  0.63922  0.7684900000000002  1.0000
  H   H26       1.0  0.8317599999999998  0.6375  0.84918  1.0000
  H   H27       1.0  0.36105  0.28262  0.7684  1.0000
  H   H28       1.0  0.3625  0.19413  0.8492300000000003  1.0000
  H   H29       1.0  0.7171199999999998  0.07819  0.76853  1.0000
  H   H30       1.0  0.80592  0.16838000000000003  0.8492300000000003  1.0000
  H   H31       1.0  0.07817000000000002  0.36074  0.76845  1.0000
  H   H32       1.0  0.16825  0.36244  0.8492  1.0000
  H   H33       1.0  0.63895  0.7173400000000001  0.7684  1.0000
  H   H34       1.0  0.6374799999999998  0.80588  0.84925  1.0000
  H   H35       1.0  0.2828799999999999  0.9217100000000001  0.7685500000000002  1.0000
  H   H36       1.0  0.19414999999999993  0.83163  0.84918  1.0000
  H   H37       1.0  0.63861  0.92138  0.73162  1.0000
  H   H38       1.0  0.6383  0.83259  0.6500900000000002  1.0000
  H   H39       1.0  0.28266  0.36138  0.73162  1.0000
  H   H40       1.0  0.19418  0.3615  0.65006  1.0000
  H   H41       1.0  0.07859999999999999  0.71721  0.7315900000000002  1.0000
  H   H42       1.0  0.1673799999999999  0.80559  0.6501000000000002  1.0000
  H   H43       1.0  0.3613299999999999  0.07856  0.7315800000000002  1.0000
  H   H44       1.0  0.36166999999999994  0.16737  0.6500800000000001  1.0000
  H   H45       1.0  0.7173499999999998  0.6385200000000001  0.73162  1.0000
  H   H46       1.0  0.80576  0.6384  0.65011  1.0000
  H   H47       1.0  0.9214199999999998  0.2828  0.7316400000000002  1.0000
  H   H48       1.0  0.8325999999999998  0.19435  0.65007  1.0000
  C   C1        1.0  0.1313  0.48746  0.13817  1.0000
  C   C2        1.0  0.15021999999999994  0.41214  0.19362  1.0000
  C   C3        1.0  0.5121999999999998  0.64369  0.13811  1.0000
  C   C4        1.0  0.58783  0.73811  0.19360000000000005  1.0000
  C   C5        1.0  0.3561600000000001  0.8689600000000001  0.138  1.0000
  C   C6        1.0  0.26189000000000007  0.8500000000000001  0.19343000000000005  1.0000
  C   C7        1.0  0.86884  0.51271  0.13811  1.0000
  C   C8        1.0  0.8500099999999998  0.58813  0.19351000000000004  1.0000
  C   C9        1.0  0.48753  0.35629  0.13806  1.0000
  C   C10       1.0  0.4120999999999999  0.2619  0.19358000000000006  1.0000
  C   C11       1.0  0.64384  0.13142  0.13813000000000006  1.0000
  C   C12       1.0  0.7381  0.15032  0.19358000000000006  1.0000
  C   C13       1.0  0.48711999999999994  0.13088  0.36245  1.0000
  C   C14       1.0  0.41185  0.15005  0.30716  1.0000
  C   C15       1.0  0.6439399999999997  0.51306  0.36239000000000005  1.0000
  C   C16       1.0  0.7383799999999998  0.58835  0.30708  1.0000
  C   C17       1.0  0.86901  0.35611  0.36234  1.0000
  C   C18       1.0  0.84982  0.26177  0.3069600000000001  1.0000
  C   C19       1.0  0.51322  0.8694000000000001  0.3625000000000001  1.0000
  C   C20       1.0  0.5882499999999998  0.84999  0.3071300000000001  1.0000
  C   C21       1.0  0.35616999999999993  0.48736  0.36228  1.0000
  C   C22       1.0  0.26171  0.41201000000000004  0.30698  1.0000
  C   C23       1.0  0.13089999999999993  0.644  0.36239000000000005  1.0000
  C   C24       1.0  0.14994999999999994  0.73827  0.30706000000000006  1.0000
  C   C25       1.0  0.8687399999999997  0.51259  0.8618400000000003  1.0000
  C   C26       1.0  0.84979  0.5879  0.8063600000000002  1.0000
  C   C27       1.0  0.48781  0.35633  0.86189  1.0000
  C   C28       1.0  0.4121799999999999  0.2619  0.8064000000000001  1.0000
  C   C29       1.0  0.64389  0.13107  0.862  1.0000
  C   C30       1.0  0.73813  0.15003  0.8065500000000002  1.0000
  C   C31       1.0  0.13118  0.48731  0.86188  1.0000
  C   C32       1.0  0.15002000000000001  0.41189000000000003  0.8064800000000002  1.0000
  C   C33       1.0  0.51248  0.6437100000000001  0.86194  1.0000
  C   C34       1.0  0.5879  0.73811  0.8064300000000002  1.0000
  C   C35       1.0  0.35616  0.86859  0.86187  1.0000
  C   C36       1.0  0.2619  0.84969  0.8064200000000002  1.0000
  C   C37       1.0  0.5128999999999998  0.86913  0.6375400000000002  1.0000
  C   C38       1.0  0.5881599999999999  0.8499599999999999  0.6928400000000002  1.0000
  C   C39       1.0  0.35607  0.48697  0.63762  1.0000
  C   C40       1.0  0.26164  0.41169000000000006  0.69293  1.0000
  C   C41       1.0  0.13099999999999995  0.6439  0.63766  1.0000
  C   C42       1.0  0.15017999999999992  0.73823  0.6930400000000002  1.0000
  C   C43       1.0  0.48683  0.13064  0.63751  1.0000
  C   C44       1.0  0.4118  0.15003  0.69286  1.0000
  C   C45       1.0  0.64385  0.51265  0.63773  1.0000
  C   C46       1.0  0.7383199999999998  0.58803  0.69302  1.0000
  C   C47       1.0  0.8690899999999999  0.35605999999999993  0.6376100000000002  1.0000
  C   C48       1.0  0.8500699999999998  0.26178  0.6929100000000002  1.0000
  O   O1        1.0  0.1922399999999999  0.58583  0.14672  1.0000
  O   O2        1.0  0.051859999999999955  0.43927  0.08749  1.0000
  O   O3        1.0  0.4139499999999999  0.60661  0.14653000000000005  1.0000
  O   O4        1.0  0.5606699999999998  0.6126  0.08757000000000002  1.0000
  O   O5        1.0  0.39356999999999986  0.80822  0.1466  1.0000
  O   O6        1.0  0.3872599999999999  0.94829  0.08730000000000003  1.0000
  O   O7        1.0  0.8076600000000002  0.41444  0.14675000000000005  1.0000
  O   O8        1.0  0.94827  0.56087  0.08747000000000003  1.0000
  O   O9        1.0  0.5859  0.39383000000000007  0.14642  1.0000
  O   O10       1.0  0.43924999999999986  0.38732  0.08745  1.0000
  O   O11       1.0  0.60653  0.19221  0.14661000000000005  1.0000
  O   O12       1.0  0.6126599999999999  0.05192000000000001  0.08738  1.0000
  O   O13       1.0  0.58537  0.19289  0.35543  1.0000
  O   O14       1.0  0.43834  0.04993  0.41161  1.0000
  O   O15       1.0  0.6075699999999999  0.41473  0.35549  1.0000
  O   O16       1.0  0.6115999999999998  0.5613  0.41154  1.0000
  O   O17       1.0  0.8070400000000001  0.39228  0.3554  1.0000
  O   O18       1.0  0.9498299999999997  0.3885  0.4115900000000001  1.0000
  O   O19       1.0  0.4148299999999999  0.80776  0.35557  1.0000
  O   O20       1.0  0.5618500000000001  0.9501700000000001  0.4117300000000001  1.0000
  O   O21       1.0  0.3924099999999999  0.5856  0.35539  1.0000
  O   O22       1.0  0.38846  0.4389  0.41149000000000013  1.0000
  O   O23       1.0  0.19316  0.60819  0.3554400000000001  1.0000
  O   O24       1.0  0.05012000000000001  0.61146  0.4115800000000001  1.0000
  O   O25       1.0  0.80784  0.41421  0.8533700000000002  1.0000
  O   O26       1.0  0.94819  0.56076  0.9125400000000002  1.0000
  O   O27       1.0  0.58607  0.39346  0.85352  1.0000
  O   O28       1.0  0.4393299999999999  0.38739  0.9124500000000002  1.0000
  O   O29       1.0  0.60647  0.19186  0.8534900000000002  1.0000
  O   O30       1.0  0.6127399999999998  0.05179  0.9126600000000002  1.0000
  O   O31       1.0  0.19233999999999998  0.58559  0.85325  1.0000
  O   O32       1.0  0.05174  0.43914  0.9125200000000002  1.0000
  O   O33       1.0  0.4140999999999999  0.6062  0.8535800000000002  1.0000
  O   O34       1.0  0.5607499999999997  0.61268  0.9125200000000002  1.0000
  O   O35       1.0  0.39348999999999995  0.80783  0.85339  1.0000
  O   O36       1.0  0.38735  0.94811  0.91262  1.0000
  O   O37       1.0  0.41466  0.80716  0.64457  1.0000
  O   O38       1.0  0.56169  0.9500900000000001  0.58837  1.0000
  O   O39       1.0  0.39243  0.5853  0.6445200000000002  1.0000
  O   O40       1.0  0.3884  0.43872  0.58846  1.0000
  O   O41       1.0  0.193  0.60776  0.6446000000000002  1.0000
  O   O42       1.0  0.050169999999999965  0.61151  0.5884  1.0000
  O   O43       1.0  0.58523  0.19232  0.64449  1.0000
  O   O44       1.0  0.4382  0.049879999999999994  0.58831  1.0000
  O   O45       1.0  0.60768  0.41445  0.64469  1.0000
  O   O46       1.0  0.61155  0.56113  0.5884900000000002  1.0000
  O   O47       1.0  0.80687  0.39187  0.6446500000000001  1.0000
  O   O48       1.0  0.94989  0.38852  0.5884100000000002  1.0000
  O   O49       1.0  0.23633000000000004  0.47367000000000004  0.25085  1.0000
  O   O50       1.0  0.52647  0.7628800000000001  0.25087  1.0000
  O   O51       1.0  0.23699000000000003  0.76393  0.25073  1.0000
  O   O52       1.0  0.76384  0.52681  0.25086  1.0000
  O   O53       1.0  0.47348  0.23723  0.25083  1.0000
  O   O54       1.0  0.76282  0.2364  0.25075  1.0000
  O   O55       1.0  0.76367  0.52635  0.7491600000000003  1.0000
  O   O56       1.0  0.47355  0.23712  0.74911  1.0000
  O   O57       1.0  0.7630399999999998  0.2361  0.74926  1.0000
  O   O58       1.0  0.23618000000000003  0.47323000000000004  0.7491400000000003  1.0000
  O   O59       1.0  0.52653  0.76279  0.74917  1.0000
  O   O60       1.0  0.23717999999999995  0.76362  0.74925  1.0000
