data_image0
_chemical_formula_structural       Zn2Co8H24C72N36Cl8O12
_chemical_formula_sum              "Zn2 Co8 H24 C72 N36 Cl8 O12"
_cell_length_a       22.11914
_cell_length_b       22.11889
_cell_length_c       22.119
_cell_angle_alpha    60.07181
_cell_angle_beta     60.05722999999999
_cell_angle_gamma    60.05705999999999

_symmetry_space_group_name_H-M    'P 1'
_symmetry_Int_Tables_number       1

loop_
  _symmetry_equiv_pos_as_xyz
  'x,y,z'

loop_
  _atom_site_type_symbol
  _atom_site_label
  _atom_site_symmetry_multiplicity
  _atom_site_fract_x
  _atom_site_fract_y
  _atom_site_fract_z
  _atom_site_occupancy
  Zn  Zn1       1.0  0.7499599999999995  0.74995  0.7499400000000003  1.0000
  Zn  Zn2       1.0  0.25004  0.25005000000000005  0.25005  1.0000
  Co  Co1       1.0  0.8145499999999998  0.81454  0.81453  1.0000
  Co  Co2       1.0  0.81451  0.8144899999999999  0.5563200000000001  1.0000
  Co  Co3       1.0  0.5563299999999999  0.8144899999999999  0.81449  1.0000
  Co  Co4       1.0  0.81451  0.55633  0.81449  1.0000
  Co  Co5       1.0  0.18549999999999991  0.18551  0.44367000000000006  1.0000
  Co  Co6       1.0  0.18544999999999998  0.18546  0.18546  1.0000
  Co  Co7       1.0  0.44367  0.18550999999999998  0.18551  1.0000
  Co  Co8       1.0  0.18549000000000002  0.44368  0.18551  1.0000
  H   H1        1.0  0.9249699999999997  0.6896500000000002  0.92497  1.0000
  H   H2        1.0  0.6896000000000001  0.9249400000000001  0.46051  1.0000
  H   H3        1.0  0.4604999999999998  0.9249500000000002  0.68959  1.0000
  H   H4        1.0  0.9249199999999992  0.46046  0.92492  1.0000
  H   H5        1.0  0.4604499999999999  0.9249200000000001  0.92492  1.0000
  H   H6        1.0  0.9249500000000002  0.6895799999999999  0.46052  1.0000
  H   H7        1.0  0.92495  0.4605200000000001  0.68958  1.0000
  H   H8        1.0  0.6896499999999994  0.92497  0.92496  1.0000
  H   H9        1.0  0.6896000000000001  0.46051  0.92494  1.0000
  H   H10       1.0  0.9249199999999999  0.9249200000000001  0.46046  1.0000
  H   H11       1.0  0.92497  0.92497  0.68964  1.0000
  H   H12       1.0  0.4604999999999997  0.6896000000000002  0.92495  1.0000
  H   H13       1.0  0.07504999999999998  0.31042  0.53948  1.0000
  H   H14       1.0  0.31035  0.07503  0.07503  1.0000
  H   H15       1.0  0.53955  0.07508000000000001  0.07508  1.0000
  H   H16       1.0  0.07504999999999996  0.53948  0.31042  1.0000
  H   H17       1.0  0.5395  0.07505  0.3104  1.0000
  H   H18       1.0  0.07502999999999999  0.31036  0.07503  1.0000
  H   H19       1.0  0.07508000000000004  0.53954  0.07508  1.0000
  H   H20       1.0  0.3103999999999999  0.07506000000000003  0.53949  1.0000
  H   H21       1.0  0.31039999999999995  0.53949  0.07506  1.0000
  H   H22       1.0  0.07503000000000001  0.07503  0.31035  1.0000
  H   H23       1.0  0.07508000000000001  0.07508  0.53954  1.0000
  H   H24       1.0  0.5394999999999999  0.3104  0.07505  1.0000
  C   C1        1.0  0.8864299999999999  0.6456  0.88642  1.0000
  C   C2        1.0  0.92464  0.6407999999999999  0.92464  1.0000
  C   C3        1.0  0.96208  0.5702  0.9620700000000001  1.0000
  C   C4        1.0  0.6455999999999998  0.88642  0.5815600000000001  1.0000
  C   C5        1.0  0.6408  0.9246  0.50999  1.0000
  C   C6        1.0  0.5701800000000001  0.9620599999999999  0.5057  1.0000
  C   C7        1.0  0.58156  0.88642  0.64559  1.0000
  C   C8        1.0  0.50998  0.92461  0.64079  1.0000
  C   C9        1.0  0.5056900000000001  0.9620599999999999  0.5701800000000001  1.0000
  C   C10       1.0  0.8863999999999997  0.5815500000000001  0.88639  1.0000
  C   C11       1.0  0.9245699999999996  0.50999  0.9245600000000002  1.0000
  C   C12       1.0  0.9620499999999998  0.5057  0.9620400000000001  1.0000
  C   C13       1.0  0.5815599999999997  0.88639  0.88639  1.0000
  C   C14       1.0  0.50998  0.9245699999999999  0.9245600000000002  1.0000
  C   C15       1.0  0.5056900000000001  0.96205  0.9620400000000001  1.0000
  C   C16       1.0  0.8864100000000001  0.6456  0.58157  1.0000
  C   C17       1.0  0.9245999999999998  0.6408  0.50999  1.0000
  C   C18       1.0  0.96206  0.57018  0.5057  1.0000
  C   C19       1.0  0.8864100000000001  0.58158  0.64559  1.0000
  C   C20       1.0  0.9245999999999998  0.51  0.6408  1.0000
  C   C21       1.0  0.96206  0.50571  0.5701800000000001  1.0000
  C   C22       1.0  0.6456100000000001  0.88642  0.88641  1.0000
  C   C23       1.0  0.64081  0.9246300000000001  0.92463  1.0000
  C   C24       1.0  0.5701999999999995  0.9620800000000002  0.9620700000000001  1.0000
  C   C25       1.0  0.6455999999999995  0.5815699999999999  0.88641  1.0000
  C   C26       1.0  0.64081  0.50999  0.9246  1.0000
  C   C27       1.0  0.57019  0.5057  0.9620500000000001  1.0000
  C   C28       1.0  0.8863899999999998  0.8864  0.58155  1.0000
  C   C29       1.0  0.9245699999999996  0.92457  0.50999  1.0000
  C   C30       1.0  0.96205  0.96205  0.5056900000000002  1.0000
  C   C31       1.0  0.88643  0.88643  0.6456  1.0000
  C   C32       1.0  0.9246399999999997  0.9246400000000001  0.6408  1.0000
  C   C33       1.0  0.9620800000000002  0.9620800000000002  0.5702  1.0000
  C   C34       1.0  0.58156  0.64559  0.88642  1.0000
  C   C35       1.0  0.50998  0.6407999999999999  0.92461  1.0000
  C   C36       1.0  0.50569  0.57018  0.9620600000000001  1.0000
  C   C37       1.0  0.11359000000000001  0.3544  0.41842  1.0000
  C   C38       1.0  0.07539999999999994  0.3592  0.49000000000000005  1.0000
  C   C39       1.0  0.037939999999999995  0.42982  0.49429  1.0000
  C   C40       1.0  0.35439  0.11358000000000001  0.11358000000000001  1.0000
  C   C41       1.0  0.35918999999999995  0.07537  0.07537  1.0000
  C   C42       1.0  0.42979999999999996  0.03792  0.03792  1.0000
  C   C43       1.0  0.41844  0.11360999999999997  0.11361000000000002  1.0000
  C   C44       1.0  0.49002  0.07543  0.07543  1.0000
  C   C45       1.0  0.49430999999999997  0.03795  0.03795  1.0000
  C   C46       1.0  0.11358999999999998  0.41842  0.3544  1.0000
  C   C47       1.0  0.07539999999999997  0.49  0.3592  1.0000
  C   C48       1.0  0.03793999999999995  0.49429  0.42982000000000004  1.0000
  C   C49       1.0  0.41844  0.11358000000000001  0.3544  1.0000
  C   C50       1.0  0.49002  0.07539  0.3592  1.0000
  C   C51       1.0  0.49431  0.03793999999999999  0.4298100000000001  1.0000
  C   C52       1.0  0.11357000000000005  0.3544  0.11357  1.0000
  C   C53       1.0  0.07536  0.3592  0.07536000000000001  1.0000
  C   C54       1.0  0.03791999999999995  0.42980000000000007  0.03792  1.0000
  C   C55       1.0  0.11359999999999992  0.41845000000000004  0.1136  1.0000
  C   C56       1.0  0.07542999999999997  0.49001  0.07543  1.0000
  C   C57       1.0  0.03794999999999998  0.4943  0.03795  1.0000
  C   C58       1.0  0.3543999999999998  0.11357999999999999  0.41843000000000014  1.0000
  C   C59       1.0  0.3592  0.0754  0.49001000000000006  1.0000
  C   C60       1.0  0.42982  0.037940000000000015  0.4943  1.0000
  C   C61       1.0  0.3543999999999998  0.41843  0.11358000000000001  1.0000
  C   C62       1.0  0.35918999999999995  0.49001  0.0754  1.0000
  C   C63       1.0  0.42981  0.4943  0.03794  1.0000
  C   C64       1.0  0.11357  0.11357  0.3544  1.0000
  C   C65       1.0  0.07536  0.07535999999999998  0.3592  1.0000
  C   C66       1.0  0.037920000000000016  0.03792000000000001  0.4298  1.0000
  C   C67       1.0  0.11361000000000003  0.11360999999999997  0.41845000000000004  1.0000
  C   C68       1.0  0.07543999999999998  0.07543  0.49001000000000006  1.0000
  C   C69       1.0  0.037949999999999984  0.03794999999999999  0.4943  1.0000
  C   C70       1.0  0.4184400000000002  0.35441  0.11358000000000001  1.0000
  C   C71       1.0  0.49002  0.3592  0.07539  1.0000
  C   C72       1.0  0.49430999999999997  0.42982  0.03794  1.0000
  N   N1        1.0  0.8446599999999999  0.7053199999999998  0.8446500000000001  1.0000
  N   N2        1.0  0.70532  0.8446300000000001  0.60539  1.0000
  N   N3        1.0  0.6053899999999998  0.8446300000000001  0.70531  1.0000
  N   N4        1.0  0.8446099999999995  0.60536  0.8446  1.0000
  N   N5        1.0  0.6053799999999995  0.8446  0.84459  1.0000
  N   N6        1.0  0.84462  0.7053199999999998  0.6054100000000001  1.0000
  N   N7        1.0  0.84462  0.6054199999999998  0.7053200000000001  1.0000
  N   N8        1.0  0.7053299999999999  0.8446500000000001  0.84464  1.0000
  N   N9        1.0  0.7053199999999998  0.60539  0.84462  1.0000
  N   N10       1.0  0.8446099999999997  0.8446100000000001  0.6053600000000001  1.0000
  N   N11       1.0  0.84466  0.84466  0.70531  1.0000
  N   N12       1.0  0.6053899999999998  0.70531  0.8446300000000002  1.0000
  N   N13       1.0  0.15537999999999996  0.29467999999999994  0.3945800000000001  1.0000
  N   N14       1.0  0.29466999999999993  0.15536  0.15536  1.0000
  N   N15       1.0  0.39462  0.1554  0.1554  1.0000
  N   N16       1.0  0.15537999999999993  0.39458999999999994  0.2946800000000001  1.0000
  N   N17       1.0  0.39461000000000007  0.15537000000000004  0.29469  1.0000
  N   N18       1.0  0.15533999999999998  0.29468  0.15534  1.0000
  N   N19       1.0  0.15538999999999994  0.39464  0.15539  1.0000
  N   N20       1.0  0.29467999999999994  0.15537000000000004  0.39461  1.0000
  N   N21       1.0  0.29468  0.39461000000000007  0.15537  1.0000
  N   N22       1.0  0.15533999999999998  0.15533999999999995  0.2946800000000001  1.0000
  N   N23       1.0  0.15539  0.15538999999999997  0.39463  1.0000
  N   N24       1.0  0.39460999999999996  0.29469  0.15537  1.0000
  N   N25       1.0  0.8203299999999999  0.67963  0.82032  1.0000
  N   N26       1.0  0.6796700000000001  0.82032  0.67966  1.0000
  N   N27       1.0  0.6796499999999998  0.8203099999999999  0.8203000000000003  1.0000
  N   N28       1.0  0.8203000000000001  0.67968  0.67968  1.0000
  N   N29       1.0  0.67967  0.6796600000000002  0.82031  1.0000
  N   N30       1.0  0.82033  0.82032  0.6796200000000001  1.0000
  N   N31       1.0  0.17969999999999992  0.32031999999999994  0.3203200000000001  1.0000
  N   N32       1.0  0.32034999999999997  0.17969  0.17969  1.0000
  N   N33       1.0  0.32033  0.17968  0.32034  1.0000
  N   N34       1.0  0.17966999999999994  0.32037000000000004  0.17968  1.0000
  N   N35       1.0  0.32032999999999984  0.3203400000000001  0.17968  1.0000
  N   N36       1.0  0.17967  0.17967999999999998  0.32037  1.0000
  Cl  Cl1       1.0  0.8546  0.8546  0.8545900000000002  1.0000
  Cl  Cl2       1.0  0.8545599999999998  0.8545500000000001  0.43631  1.0000
  Cl  Cl3       1.0  0.4362999999999998  0.8545600000000002  0.85455  1.0000
  Cl  Cl4       1.0  0.8545599999999998  0.43631000000000003  0.85455  1.0000
  Cl  Cl5       1.0  0.14543999999999996  0.14544999999999994  0.5636800000000001  1.0000
  Cl  Cl6       1.0  0.14539999999999995  0.1454  0.1454  1.0000
  Cl  Cl7       1.0  0.5637  0.14544  0.14544  1.0000
  Cl  Cl8       1.0  0.14543999999999999  0.56369  0.14545  1.0000
  O   O1        1.0  4.999999999996193e-05  0.5642900000000001  5e-05  1.0000
  O   O2        1.0  0.56428  0.9999899999999999  0.4357300000000001  1.0000
  O   O3        1.0  0.43572  9.999999999956717e-06  0.5642600000000001  1.0000
  O   O4        1.0  0.99995  0.43572  0.99995  1.0000
  O   O5        1.0  0.43570999999999976  0.9999600000000001  0.9999600000000001  1.0000
  O   O6        1.0  0.0  0.56426  0.43574000000000007  1.0000
  O   O7        1.0  0.9999999999999997  0.43574  0.5642600000000001  1.0000
  O   O8        1.0  0.5643  4.000000000000001e-05  4e-05  1.0000
  O   O9        1.0  0.56428  0.43573  0.99999  1.0000
  O   O10       1.0  0.99995  0.9999500000000001  0.43571  1.0000
  O   O11       1.0  5.00000000000006e-05  5.000000000001528e-05  0.56428  1.0000
  O   O12       1.0  0.43572  0.5642700000000002  1e-05  1.0000
