data_image0
_chemical_formula_structural       Zn10H40C64N24O24
_chemical_formula_sum              "Zn10 H40 C64 N24 O24"
_cell_length_a       9.26445
_cell_length_b       22.43428
_cell_length_c       22.43432
_cell_angle_alpha    69.76178
_cell_angle_beta     77.66749
_cell_angle_gamma    77.66747

_symmetry_space_group_name_H-M    'P 1'
_symmetry_Int_Tables_number       1

loop_
  _symmetry_equiv_pos_as_xyz
  'x,y,z'

loop_
  _atom_site_type_symbol
  _atom_site_label
  _atom_site_symmetry_multiplicity
  _atom_site_fract_x
  _atom_site_fract_y
  _atom_site_fract_z
  _atom_site_occupancy
  Zn  Zn1       1.0  0.91896  0.024079999999999994  0.13494  1.0000
  Zn  Zn2       1.0  0.09679999999999997  0.50375  0.30593  1.0000
  Zn  Zn3       1.0  0.5810299999999999  0.36505  0.47592  1.0000
  Zn  Zn4       1.0  0.4031900000000001  0.19405999999999998  0.99625  1.0000
  Zn  Zn5       1.0  0.41896000000000005  0.63494  0.52408  1.0000
  Zn  Zn6       1.0  0.5967999999999999  0.80593  0.0037500000000000003  1.0000
  Zn  Zn7       1.0  0.08102999999999996  0.97591  0.86506  1.0000
  Zn  Zn8       1.0  0.9031899999999998  0.49625  0.69407  1.0000
  Zn  Zn9       1.0  0.0  0.0  0.0  1.0000
  Zn  Zn10      1.0  0.4999999999999999  0.5  0.5  1.0000
  H   H1        1.0  0.57319  0.12724  0.12061  1.0000
  H   H2        1.0  0.69326  0.10263000000000001  0.93843  1.0000
  H   H3        1.0  0.92681  0.37939000000000006  0.37276  1.0000
  H   H4        1.0  0.8067299999999998  0.56157  0.39736  1.0000
  H   H5        1.0  0.6725599999999999  0.62041  0.62748  1.0000
  H   H6        1.0  0.7663100000000003  0.43799000000000005  0.60341  1.0000
  H   H7        1.0  0.8274200000000002  0.87252  0.8795900000000001  1.0000
  H   H8        1.0  0.73368  0.8966  0.062  1.0000
  H   H9        1.0  0.4268100000000002  0.87275  0.8794  1.0000
  H   H10       1.0  0.30672999999999995  0.8973600000000002  0.06157000000000001  1.0000
  H   H11       1.0  0.07318000000000005  0.62061  0.62724  1.0000
  H   H12       1.0  0.19326  0.43843000000000004  0.60264  1.0000
  H   H13       1.0  0.32743000000000005  0.37959  0.37253  1.0000
  H   H14       1.0  0.23369  0.562  0.3966  1.0000
  H   H15       1.0  0.17257  0.12748  0.12041  1.0000
  H   H16       1.0  0.26631  0.10339999999999996  0.9380000000000001  1.0000
  H   H17       1.0  0.9314600000000002  0.8443399999999999  0.29515  1.0000
  H   H18       1.0  0.04004000000000001  0.81534  0.10991000000000001  1.0000
  H   H19       1.0  0.07169999999999997  0.69555  0.16402  1.0000
  H   H20       1.0  0.9630999999999998  0.72424  0.34851  1.0000
  H   H21       1.0  0.21575999999999998  0.26979  0.30121  1.0000
  H   H22       1.0  0.21527999999999997  0.43665  0.1342  1.0000
  H   H23       1.0  0.56853  0.20484  0.65567  1.0000
  H   H24       1.0  0.45995  0.39008999999999994  0.68466  1.0000
  H   H25       1.0  0.42829000000000006  0.33598  0.80445  1.0000
  H   H26       1.0  0.53689  0.15148999999999999  0.77577  1.0000
  H   H27       1.0  0.2842299999999999  0.19879000000000002  0.23021  1.0000
  H   H28       1.0  0.2847100000000001  0.36580000000000007  0.06336  1.0000
  H   H29       1.0  0.4314599999999999  0.79515  0.34434  1.0000
  H   H30       1.0  0.5400399999999997  0.6099  0.31534  1.0000
  H   H31       1.0  0.5717  0.66402  0.19556  1.0000
  H   H32       1.0  0.46310000000000007  0.84851  0.22424  1.0000
  H   H33       1.0  0.7157600000000002  0.8012  0.76979  1.0000
  H   H34       1.0  0.7152799999999998  0.6342  0.9366500000000001  1.0000
  H   H35       1.0  0.06853000000000001  0.15565999999999997  0.70485  1.0000
  H   H36       1.0  0.9599499999999999  0.18464999999999993  0.8901000000000001  1.0000
  H   H37       1.0  0.9282900000000002  0.30443999999999993  0.8359800000000001  1.0000
  H   H38       1.0  0.03689999999999998  0.27576  0.6515  1.0000
  H   H39       1.0  0.7842300000000002  0.7302099999999999  0.6988  1.0000
  H   H40       1.0  0.7847099999999999  0.5633499999999999  0.8658000000000001  1.0000
  C   C1        1.0  0.63544  0.11083  0.0809  1.0000
  C   C2        1.0  0.6963899999999998  0.09800999999999994  0.9878800000000001  1.0000
  C   C3        1.0  0.86455  0.4191  0.38917000000000007  1.0000
  C   C4        1.0  0.8036  0.51212  0.40199  1.0000
  C   C5        1.0  0.6679200000000001  0.58055  0.61137  1.0000
  C   C6        1.0  0.71633  0.48739  0.59884  1.0000
  C   C7        1.0  0.83207  0.8886300000000001  0.91945  1.0000
  C   C8        1.0  0.78366  0.90116  0.012610000000000001  1.0000
  C   C9        1.0  0.36454999999999993  0.88917  0.9191  1.0000
  C   C10       1.0  0.3035999999999999  0.90199  0.01213  1.0000
  C   C11       1.0  0.1354399999999999  0.5809000000000002  0.61083  1.0000
  C   C12       1.0  0.19639000000000006  0.48786999999999997  0.59802  1.0000
  C   C13       1.0  0.33207  0.41945  0.38863000000000003  1.0000
  C   C14       1.0  0.2836600000000001  0.5126  0.40116  1.0000
  C   C15       1.0  0.16792  0.11136999999999998  0.08055  1.0000
  C   C16       1.0  0.21633000000000005  0.09884  0.9874  1.0000
  C   C17       1.0  0.019339999999999885  0.7036000000000001  0.25926  1.0000
  C   C18       1.0  0.96566  0.9068  0.16875  1.0000
  C   C19       1.0  0.9845999999999997  0.83663  0.19952  1.0000
  C   C20       1.0  0.9621999999999999  0.81141  0.26702  1.0000
  C   C21       1.0  0.03773000000000008  0.6323199999999998  0.29347  1.0000
  C   C22       1.0  0.023789999999999957  0.79504  0.16204  1.0000
  C   C23       1.0  0.04118999999999998  0.72874  0.19191  1.0000
  C   C24       1.0  0.21163000000000007  0.3570999999999999  0.22201  1.0000
  C   C25       1.0  0.9795399999999997  0.74529  0.29648  1.0000
  C   C26       1.0  0.23112999999999995  0.2899300000000001  0.24914000000000003  1.0000
  C   C27       1.0  0.2308000000000001  0.38453999999999994  0.1548  1.0000
  C   C28       1.0  0.17044000000000004  0.39664  0.26681  1.0000
  C   C29       1.0  0.4806500000000001  0.24072999999999997  0.7964  1.0000
  C   C30       1.0  0.53433  0.33125  0.59321  1.0000
  C   C31       1.0  0.51539  0.30048000000000014  0.66337  1.0000
  C   C32       1.0  0.53779  0.23298000000000002  0.68859  1.0000
  C   C33       1.0  0.46224999999999994  0.20653999999999997  0.8676800000000001  1.0000
  C   C34       1.0  0.47619999999999996  0.33796  0.70496  1.0000
  C   C35       1.0  0.4588  0.30808999999999986  0.77126  1.0000
  C   C36       1.0  0.28835999999999995  0.27799  0.14291  1.0000
  C   C37       1.0  0.5204499999999999  0.20351999999999998  0.75472  1.0000
  C   C38       1.0  0.26886  0.25086  0.21007  1.0000
  C   C39       1.0  0.26919  0.3452  0.11546  1.0000
  C   C40       1.0  0.32955000000000007  0.23319  0.10336000000000001  1.0000
  C   C41       1.0  0.51934  0.75926  0.20361  1.0000
  C   C42       1.0  0.4656599999999999  0.66875  0.40680000000000005  1.0000
  C   C43       1.0  0.4845999999999999  0.69952  0.33663  1.0000
  C   C44       1.0  0.4621999999999999  0.76702  0.31141  1.0000
  C   C45       1.0  0.5377399999999999  0.7934600000000002  0.13233  1.0000
  C   C46       1.0  0.5237900000000001  0.6620399999999999  0.29504  1.0000
  C   C47       1.0  0.54119  0.6919100000000002  0.22873999999999997  1.0000
  C   C48       1.0  0.7116299999999999  0.722  0.8571000000000001  1.0000
  C   C49       1.0  0.4795400000000001  0.79648  0.24529000000000004  1.0000
  C   C50       1.0  0.7311300000000002  0.7491399999999998  0.78993  1.0000
  C   C51       1.0  0.7308000000000003  0.65479  0.8845399999999999  1.0000
  C   C52       1.0  0.6704399999999999  0.7668  0.8966400000000001  1.0000
  C   C53       1.0  0.98065  0.29639  0.74074  1.0000
  C   C54       1.0  0.03433000000000006  0.09320000000000005  0.8312499999999999  1.0000
  C   C55       1.0  0.015389999999999928  0.16336  0.8004800000000001  1.0000
  C   C56       1.0  0.037790000000000025  0.18858  0.73298  1.0000
  C   C57       1.0  0.9622599999999999  0.36767  0.70654  1.0000
  C   C58       1.0  0.9762  0.20495999999999998  0.8379699999999999  1.0000
  C   C59       1.0  0.9588000000000003  0.27124999999999994  0.80809  1.0000
  C   C60       1.0  0.7883600000000001  0.6429  0.778  1.0000
  C   C61       1.0  0.02044999999999994  0.25471  0.70352  1.0000
  C   C62       1.0  0.7688599999999999  0.71007  0.75086  1.0000
  C   C63       1.0  0.76919  0.61546  0.8452  1.0000
  C   C64       1.0  0.82955  0.60336  0.73319  1.0000
  N   N1        1.0  0.7574  0.06631000000000001  0.08328  1.0000
  N   N2        1.0  0.59392  0.13179  0.022  1.0000
  N   N3        1.0  0.79723  0.05809000000000001  0.02332  1.0000
  N   N4        1.0  0.7425899999999999  0.41671  0.43369  1.0000
  N   N5        1.0  0.90608  0.47800000000000004  0.36821  1.0000
  N   N6        1.0  0.70276  0.47667000000000004  0.44191  1.0000
  N   N7        1.0  0.5879800000000001  0.5824799999999998  0.56758  1.0000
  N   N8        1.0  0.7495799999999999  0.52182  0.63209  1.0000
  N   N9        1.0  0.61861  0.52247  0.55948  1.0000
  N   N10       1.0  0.91201  0.9324199999999998  0.9175200000000001  1.0000
  N   N11       1.0  0.7504100000000001  0.8679  0.9781800000000002  1.0000
  N   N12       1.0  0.8813799999999999  0.9405199999999999  0.97753  1.0000
  N   N13       1.0  0.2425899999999999  0.9336900000000001  0.91672  1.0000
  N   N14       1.0  0.40606999999999993  0.86821  0.978  1.0000
  N   N15       1.0  0.20275999999999975  0.9419000000000001  0.9766800000000001  1.0000
  N   N16       1.0  0.2574000000000001  0.5832799999999999  0.56631  1.0000
  N   N17       1.0  0.09391  0.522  0.63179  1.0000
  N   N18       1.0  0.29723000000000005  0.52332  0.55809  1.0000
  N   N19       1.0  0.4120099999999999  0.41751  0.43242  1.0000
  N   N20       1.0  0.25040999999999997  0.47818  0.36791  1.0000
  N   N21       1.0  0.3813799999999999  0.47752  0.4405200000000001  1.0000
  N   N22       1.0  0.08797999999999999  0.06758  0.08248  1.0000
  N   N23       1.0  0.24957999999999997  0.13209  0.02182  1.0000
  N   N24       1.0  0.11861999999999999  0.05948  0.02247  1.0000
  O   O1        1.0  0.014340000000000101  0.6124099999999998  0.35381  1.0000
  O   O2        1.0  0.92821  0.9435900000000002  0.20529  1.0000
  O   O3        1.0  0.9847  0.9323  0.10739  1.0000
  O   O4        1.0  0.07799000000000005  0.5959  0.25679  1.0000
  O   O5        1.0  0.15050000000000002  0.4587  0.24088  1.0000
  O   O6        1.0  0.15675999999999998  0.36868000000000006  0.3267  1.0000
  O   O7        1.0  0.48564999999999997  0.14618  0.8876  1.0000
  O   O8        1.0  0.57177  0.29470999999999997  0.55642  1.0000
  O   O9        1.0  0.51529  0.39261  0.5677  1.0000
  O   O10       1.0  0.42200000000000015  0.2432  0.9041  1.0000
  O   O11       1.0  0.3494999999999999  0.25912  0.04131  1.0000
  O   O12       1.0  0.34323  0.17330000000000004  0.13132  1.0000
  O   O13       1.0  0.5143400000000001  0.8538199999999999  0.1124  1.0000
  O   O14       1.0  0.4282199999999999  0.7052800000000001  0.44359  1.0000
  O   O15       1.0  0.4847000000000001  0.60739  0.4323  1.0000
  O   O16       1.0  0.57799  0.75679  0.09591  1.0000
  O   O17       1.0  0.6504900000000003  0.7408800000000001  0.9586999999999999  1.0000
  O   O18       1.0  0.65676  0.8267  0.86868  1.0000
  O   O19       1.0  0.9856499999999999  0.38759  0.64619  1.0000
  O   O20       1.0  0.07178000000000002  0.05641000000000001  0.79472  1.0000
  O   O21       1.0  0.01529  0.0677  0.89262  1.0000
  O   O22       1.0  0.9219999999999999  0.40409  0.74321  1.0000
  O   O23       1.0  0.84949  0.5413000000000002  0.75912  1.0000
  O   O24       1.0  0.8432300000000001  0.6313199999999999  0.6733  1.0000
