data_image0
_chemical_formula_structural       Mg24H48C48O96
_chemical_formula_sum              "Mg24 H48 C48 O96"
_cell_length_a       10.0663
_cell_length_b       18.3651
_cell_length_c       18.56068
_cell_angle_alpha    90.0054
_cell_angle_beta     90.01931999999998
_cell_angle_gamma    89.96595

_symmetry_space_group_name_H-M    'P 1'
_symmetry_Int_Tables_number       1

loop_
  _symmetry_equiv_pos_as_xyz
  'x,y,z'

loop_
  _atom_site_type_symbol
  _atom_site_label
  _atom_site_symmetry_multiplicity
  _atom_site_fract_x
  _atom_site_fract_y
  _atom_site_fract_z
  _atom_site_occupancy
  Mg  Mg1       1.0  0.42550999999999994  0.9395399999999999  0.8212100000000002  1.0000
  Mg  Mg2       1.0  0.6164  0.03438  0.71642  1.0000
  Mg  Mg3       1.0  0.07434  0.44062  0.67788  1.0000
  Mg  Mg4       1.0  0.88378  0.53378  0.78319  1.0000
  Mg  Mg5       1.0  0.57447  0.55949  0.8215  1.0000
  Mg  Mg6       1.0  0.38321  0.46623999999999993  0.71679  1.0000
  Mg  Mg7       1.0  0.9255100000000002  0.06052  0.67771  1.0000
  Mg  Mg8       1.0  0.11666  0.9656199999999999  0.78236  1.0000
  Mg  Mg9       1.0  0.57448  0.06046  0.17878  1.0000
  Mg  Mg10      1.0  0.3836  0.9656199999999999  0.28358  1.0000
  Mg  Mg11      1.0  0.9256500000000001  0.55938  0.32211  1.0000
  Mg  Mg12      1.0  0.11621  0.46621999999999997  0.21679999999999996  1.0000
  Mg  Mg13      1.0  0.42552  0.44051  0.1785  1.0000
  Mg  Mg14      1.0  0.61678  0.53376  0.28321  1.0000
  Mg  Mg15      1.0  0.07448  0.93948  0.32229  1.0000
  Mg  Mg16      1.0  0.8833299999999998  0.03437  0.21764  1.0000
  Mg  Mg17      1.0  0.5  0.0  0.0  1.0000
  Mg  Mg18      1.0  0.0  0.5  0.5  1.0000
  Mg  Mg19      1.0  0.5  0.5  0.0  1.0000
  Mg  Mg20      1.0  0.0  0.0  0.5  1.0000
  Mg  Mg21      1.0  0.50035  0.74955  0.81623  1.0000
  Mg  Mg22      1.0  0.0005299999999999999  0.25046  0.6841  1.0000
  Mg  Mg23      1.0  0.49965  0.25045  0.18377  1.0000
  Mg  Mg24      1.0  0.9994600000000001  0.74953  0.3159  1.0000
  H   H1        1.0  0.25514  0.00558  0.63074  1.0000
  H   H2        1.0  0.10707000000000001  0.9939599999999998  0.94787  1.0000
  H   H3        1.0  0.20802  0.75478  0.8170600000000001  1.0000
  H   H4        1.0  0.71017  0.87593  0.6767000000000001  1.0000
  H   H5        1.0  0.54724  0.14954999999999996  0.8406700000000001  1.0000
  H   H6        1.0  0.66271  0.86795  0.9792500000000001  1.0000
  H   H7        1.0  0.24526  0.50493  0.86888  1.0000
  H   H8        1.0  0.39274  0.49304999999999993  0.55084  1.0000
  H   H9        1.0  0.29154  0.25609  0.68296  1.0000
  H   H10       1.0  0.79027  0.3766  0.82265  1.0000
  H   H11       1.0  0.95131  0.65079  0.65991  1.0000
  H   H12       1.0  0.83684  0.36786  0.5207400000000001  1.0000
  H   H13       1.0  0.74408  0.49465  0.63072  1.0000
  H   H14       1.0  0.8927800000000001  0.50701  0.94892  1.0000
  H   H15       1.0  0.79208  0.74398  0.81698  1.0000
  H   H16       1.0  0.28999  0.62394  0.67674  1.0000
  H   H17       1.0  0.45164  0.34929  0.8406  1.0000
  H   H18       1.0  0.33723  0.63141  0.97905  1.0000
  H   H19       1.0  0.75534  0.99476  0.86787  1.0000
  H   H20       1.0  0.60711  0.00582  0.55071  1.0000
  H   H21       1.0  0.70841  0.24528  0.68307  1.0000
  H   H22       1.0  0.21008  0.12297  0.8227800000000001  1.0000
  H   H23       1.0  0.04723  0.8503599999999999  0.65894  1.0000
  H   H24       1.0  0.16332  0.13311  0.52088  1.0000
  H   H25       1.0  0.74485  0.9944200000000001  0.36926  1.0000
  H   H26       1.0  0.89292  0.00604  0.05213  1.0000
  H   H27       1.0  0.7919700000000001  0.24521999999999997  0.18294  1.0000
  H   H28       1.0  0.28982  0.12405999999999999  0.32329  1.0000
  H   H29       1.0  0.45275  0.8504499999999999  0.15933  1.0000
  H   H30       1.0  0.33729  0.13204  0.02075  1.0000
  H   H31       1.0  0.75473  0.49506  0.13112  1.0000
  H   H32       1.0  0.60726  0.50695  0.44915  1.0000
  H   H33       1.0  0.70846  0.74391  0.31704  1.0000
  H   H34       1.0  0.20972  0.62339  0.17735  1.0000
  H   H35       1.0  0.04868  0.34921  0.34008  1.0000
  H   H36       1.0  0.16315  0.6321399999999999  0.47926  1.0000
  H   H37       1.0  0.25591  0.50535  0.36928  1.0000
  H   H38       1.0  0.10721999999999998  0.4929799999999999  0.05108000000000001  1.0000
  H   H39       1.0  0.20791  0.25602  0.18302  1.0000
  H   H40       1.0  0.71  0.37605  0.32326  1.0000
  H   H41       1.0  0.54835  0.6506999999999998  0.1594  1.0000
  H   H42       1.0  0.66276  0.36858  0.02095  1.0000
  H   H43       1.0  0.24465  0.00523  0.13213000000000003  1.0000
  H   H44       1.0  0.39288  0.9941799999999998  0.4492900000000001  1.0000
  H   H45       1.0  0.29158  0.75471  0.31693  1.0000
  H   H46       1.0  0.78991  0.87703  0.17722  1.0000
  H   H47       1.0  0.9527600000000002  0.14964  0.34105  1.0000
  H   H48       1.0  0.8366800000000001  0.86688  0.47912  1.0000
  C   C1        1.0  0.33535  0.0009299999999999999  0.6708  1.0000
  C   C2        1.0  0.21447000000000002  0.98935  0.93717  1.0000
  C   C3        1.0  0.22862  0.81319  0.8101800000000001  1.0000
  C   C4        1.0  0.6359  0.86597  0.7193  1.0000
  C   C5        1.0  0.52099  0.0952  0.86147  1.0000
  C   C6        1.0  0.60044  0.86381  0.93076  1.0000
  C   C7        1.0  0.16445  0.50071  0.82914  1.0000
  C   C8        1.0  0.28535  0.4881499999999999  0.56143  1.0000
  C   C9        1.0  0.27111  0.31453  0.68963  1.0000
  C   C10       1.0  0.86408  0.3663  0.7798900000000001  1.0000
  C   C11       1.0  0.97876  0.5966  0.63902  1.0000
  C   C12       1.0  0.8992700000000001  0.3648199999999999  0.56927  1.0000
  C   C13       1.0  0.66415  0.49948999999999993  0.67089  1.0000
  C   C14       1.0  0.78546  0.51183  0.93811  1.0000
  C   C15       1.0  0.77143  0.68556  0.81025  1.0000
  C   C16       1.0  0.36435  0.63394  0.7193  1.0000
  C   C17       1.0  0.47875000000000006  0.40352999999999994  0.8614  1.0000
  C   C18       1.0  0.39921  0.63492  0.9304300000000001  1.0000
  C   C19       1.0  0.8353500000000001  0.99915  0.82769  1.0000
  C   C20       1.0  0.71448  0.010589999999999999  0.56138  1.0000
  C   C21       1.0  0.72888  0.18681999999999999  0.68968  1.0000
  C   C22       1.0  0.13741  0.13367  0.77957  1.0000
  C   C23       1.0  0.0209  0.90469  0.63808  1.0000
  C   C24       1.0  0.10056  0.13655  0.56926  1.0000
  C   C25       1.0  0.66464  0.99906  0.3292  1.0000
  C   C26       1.0  0.78552  0.01064  0.06282  1.0000
  C   C27       1.0  0.77137  0.18681  0.18981  1.0000
  C   C28       1.0  0.36409  0.13403  0.2807  1.0000
  C   C29       1.0  0.47900000000000004  0.90479  0.13852  1.0000
  C   C30       1.0  0.39955  0.13619  0.06924  1.0000
  C   C31       1.0  0.8355500000000001  0.49929  0.17086  1.0000
  C   C32       1.0  0.71464  0.51184  0.43857000000000007  1.0000
  C   C33       1.0  0.72888  0.68546  0.3103700000000001  1.0000
  C   C34       1.0  0.13591  0.63369  0.22011  1.0000
  C   C35       1.0  0.02123  0.40339  0.36098  1.0000
  C   C36       1.0  0.10072  0.63518  0.43072  1.0000
  C   C37       1.0  0.33584  0.5005  0.32911  1.0000
  C   C38       1.0  0.21453000000000003  0.48817  0.06189  1.0000
  C   C39       1.0  0.22856  0.31444  0.18975  1.0000
  C   C40       1.0  0.63564  0.36605999999999994  0.2807  1.0000
  C   C41       1.0  0.52124  0.59647  0.13859  1.0000
  C   C42       1.0  0.60079  0.36507  0.06957  1.0000
  C   C43       1.0  0.16465  0.00084  0.17231  1.0000
  C   C44       1.0  0.28551  0.9893999999999998  0.43862000000000007  1.0000
  C   C45       1.0  0.27111  0.81317  0.31032  1.0000
  C   C46       1.0  0.86258  0.86633  0.22042  1.0000
  C   C47       1.0  0.97909  0.09531  0.36192  1.0000
  C   C48       1.0  0.89943  0.86344  0.43074  1.0000
  O   O1        1.0  0.30584  0.97037  0.7312800000000002  1.0000
  O   O2        1.0  0.44766  0.02553  0.6542100000000001  1.0000
  O   O3        1.0  0.35139  0.83277  0.81768  1.0000
  O   O4        1.0  0.13297  0.8547  0.79627  1.0000
  O   O5        1.0  0.51368  0.04393  0.81415  1.0000
  O   O6        1.0  0.58617  0.9234499999999999  0.74892  1.0000
  O   O7        1.0  0.52725  0.92027  0.91676  1.0000
  O   O8        1.0  0.24740000000000004  0.98127  0.87021  1.0000
  O   O9        1.0  0.60783  0.80153  0.73467  1.0000
  O   O10       1.0  0.60654  0.80687  0.89407  1.0000
  O   O11       1.0  0.29331  0.9926099999999999  0.9892500000000001  1.0000
  O   O12       1.0  0.50043  0.0875  0.92749  1.0000
  O   O13       1.0  0.19392  0.4721  0.76768  1.0000
  O   O14       1.0  0.05162  0.52378  0.8470900000000001  1.0000
  O   O15       1.0  0.14804  0.33416  0.6836100000000003  1.0000
  O   O16       1.0  0.3672  0.35609  0.7021500000000002  1.0000
  O   O17       1.0  0.9867599999999999  0.54527  0.68636  1.0000
  O   O18       1.0  0.9137300000000002  0.42349  0.74975  1.0000
  O   O19       1.0  0.97251  0.42154  0.58211  1.0000
  O   O20       1.0  0.25247  0.48019999999999996  0.62838  1.0000
  O   O21       1.0  0.89172  0.30177  0.76473  1.0000
  O   O22       1.0  0.89352  0.30876999999999993  0.60724  1.0000
  O   O23       1.0  0.20653  0.49105  0.5092700000000001  1.0000
  O   O24       1.0  0.99994  0.58902  0.5730200000000001  1.0000
  O   O25       1.0  0.69431  0.52936  0.73163  1.0000
  O   O26       1.0  0.55124  0.4758899999999999  0.65407  1.0000
  O   O27       1.0  0.64867  0.66598  0.8177  1.0000
  O   O28       1.0  0.86711  0.6440699999999999  0.7964000000000001  1.0000
  O   O29       1.0  0.48655000000000004  0.45486  0.81412  1.0000
  O   O30       1.0  0.41404  0.57659  0.74911  1.0000
  O   O31       1.0  0.47208000000000006  0.5782399999999999  0.91675  1.0000
  O   O32       1.0  0.7527  0.5198  0.87116  1.0000
  O   O33       1.0  0.39258  0.69836  0.7345100000000002  1.0000
  O   O34       1.0  0.3934  0.6915199999999999  0.8932900000000001  1.0000
  O   O35       1.0  0.70627  0.50884  0.98998  1.0000
  O   O36       1.0  0.49974  0.41102  0.9274300000000001  1.0000
  O   O37       1.0  0.80564  0.029590000000000005  0.76718  1.0000
  O   O38       1.0  0.94767  0.9744399999999999  0.84419  1.0000
  O   O39       1.0  0.85199  0.16726  0.6836100000000003  1.0000
  O   O40       1.0  0.63279  0.14522  0.70207  1.0000
  O   O41       1.0  0.01347  0.95601  0.68536  1.0000
  O   O42       1.0  0.08633  0.07668  0.74966  1.0000
  O   O43       1.0  0.026840000000000003  0.08003999999999999  0.58203  1.0000
  O   O44       1.0  0.74739  0.01876  0.62834  1.0000
  O   O45       1.0  0.11272999999999998  0.19846  0.76389  1.0000
  O   O46       1.0  0.10639  0.19276  0.60705  1.0000
  O   O47       1.0  0.79323  0.007409999999999999  0.50925  1.0000
  O   O48       1.0  0.00035  0.91242  0.57203  1.0000
  O   O49       1.0  0.69415  0.02963  0.26872  1.0000
  O   O50       1.0  0.55233  0.97447  0.34579000000000004  1.0000
  O   O51       1.0  0.6486  0.16723  0.18232  1.0000
  O   O52       1.0  0.86702  0.1453  0.20373  1.0000
  O   O53       1.0  0.48632  0.95607  0.18585000000000002  1.0000
  O   O54       1.0  0.41382  0.07654  0.25108  1.0000
  O   O55       1.0  0.47273999999999994  0.07972999999999998  0.08324000000000002  1.0000
  O   O56       1.0  0.75259  0.01873  0.12979  1.0000
  O   O57       1.0  0.39216  0.19846  0.26533  1.0000
  O   O58       1.0  0.39345  0.19312  0.10593  1.0000
  O   O59       1.0  0.70669  0.00738  0.01074  1.0000
  O   O60       1.0  0.49957000000000007  0.91249  0.07251  1.0000
  O   O61       1.0  0.80608  0.52789  0.23231000000000002  1.0000
  O   O62       1.0  0.94837  0.4762199999999999  0.15291  1.0000
  O   O63       1.0  0.8519500000000001  0.6658299999999999  0.31638  1.0000
  O   O64       1.0  0.63279  0.64391  0.29784  1.0000
  O   O65       1.0  0.01324  0.45472999999999997  0.31364  1.0000
  O   O66       1.0  0.08627  0.57651  0.25025  1.0000
  O   O67       1.0  0.027490000000000004  0.57845  0.41789  1.0000
  O   O68       1.0  0.74752  0.5198  0.37162  1.0000
  O   O69       1.0  0.10828  0.69823  0.23526  1.0000
  O   O70       1.0  0.10647000000000001  0.69122  0.39276  1.0000
  O   O71       1.0  0.79347  0.50895  0.49073  1.0000
  O   O72       1.0  5.000000000000007e-05  0.41097  0.42698  1.0000
  O   O73       1.0  0.30568  0.47064  0.26837  1.0000
  O   O74       1.0  0.44875  0.52411  0.3459300000000001  1.0000
  O   O75       1.0  0.35132  0.33402  0.18230000000000002  1.0000
  O   O76       1.0  0.13288  0.35592  0.2036  1.0000
  O   O77       1.0  0.51344  0.5451399999999998  0.18588  1.0000
  O   O78       1.0  0.58596  0.4234  0.25089  1.0000
  O   O79       1.0  0.52791  0.42176  0.08325  1.0000
  O   O80       1.0  0.24729000000000004  0.48018999999999995  0.12884  1.0000
  O   O81       1.0  0.60741  0.30163  0.26549  1.0000
  O   O82       1.0  0.6066  0.30847  0.10671  1.0000
  O   O83       1.0  0.29372  0.49116  0.01002  1.0000
  O   O84       1.0  0.50025  0.58898  0.07257  1.0000
  O   O85       1.0  0.19435  0.9704  0.23282  1.0000
  O   O86       1.0  0.052320000000000005  0.02556  0.15581  1.0000
  O   O87       1.0  0.14801  0.83273  0.31639  1.0000
  O   O88       1.0  0.36721  0.85477  0.29793  1.0000
  O   O89       1.0  0.98652  0.04399  0.31464  1.0000
  O   O90       1.0  0.9136600000000001  0.92331  0.25034  1.0000
  O   O91       1.0  0.97315  0.9199499999999999  0.41797  1.0000
  O   O92       1.0  0.2526  0.98123  0.37166  1.0000
  O   O93       1.0  0.88727  0.80154  0.23611  1.0000
  O   O94       1.0  0.8936000000000001  0.80723  0.39295000000000013  1.0000
  O   O95       1.0  0.20676  0.99258  0.49075  1.0000
  O   O96       1.0  0.99964  0.08758  0.42797  1.0000
