data_image0
_chemical_formula_structural       Cd6H64C112O40
_chemical_formula_sum              "Cd6 H64 C112 O40"
_cell_length_a       13.16734
_cell_length_b       14.70511
_cell_length_c       22.28242
_cell_angle_alpha    90.00008
_cell_angle_beta     89.99865000000001
_cell_angle_gamma    93.24865

_space_group_name_H-M_alt    "P 1"
_space_group_IT_number       1

loop_
  _space_group_symop_operation_xyz
  'x, y, z'

loop_
  _atom_site_type_symbol
  _atom_site_label
  _atom_site_symmetry_multiplicity
  _atom_site_fract_x
  _atom_site_fract_y
  _atom_site_fract_z
  _atom_site_occupancy
  Cd  Cd1       1.0  0.32105  0.17505  0.97816  1.0000
  Cd  Cd2       1.0  0.17898999999999998  0.3249499999999999  0.47814  1.0000
  Cd  Cd3       1.0  0.67895  0.82496  0.02184  1.0000
  Cd  Cd4       1.0  0.82101  0.67506  0.52186  1.0000
  Cd  Cd5       1.0  0.5  0.0  0.0  1.0000
  Cd  Cd6       1.0  0.0  0.5  0.5  1.0000
  H   H1        1.0  0.9505  0.79439  0.01601  1.0000
  H   H2        1.0  0.32657  0.85134  0.03612  1.0000
  H   H3        1.0  0.13277  0.37565  0.11363  1.0000
  H   H4        1.0  0.19534000000000004  0.4670699999999999  0.93389  1.0000
  H   H5        1.0  0.24476  0.70082  0.06443  1.0000
  H   H6        1.0  0.40558  0.18037  0.77329  1.0000
  H   H7        1.0  0.73862  0.03637  0.7695000000000001  1.0000
  H   H8        1.0  0.05528  0.52536  0.13741  1.0000
  H   H9        1.0  0.12589  0.61811  0.95772  1.0000
  H   H10       1.0  0.6707700000000002  0.25817  0.66514  1.0000
  H   H11       1.0  0.49587000000000003  0.15675  0.67481  1.0000
  H   H12       1.0  0.81027  0.3605399999999999  0.62037  1.0000
  H   H13       1.0  0.03389  0.9425999999999998  0.9834100000000001  1.0000
  H   H14       1.0  0.8406100000000001  0.0245  0.62259  1.0000
  H   H15       1.0  0.64736  0.058099999999999985  0.8674900000000001  1.0000
  H   H16       1.0  0.98118  0.1288  0.57961  1.0000
  H   H17       1.0  0.5495  0.7056199999999999  0.516  1.0000
  H   H18       1.0  0.17343  0.64865  0.53612  1.0000
  H   H19       1.0  0.36721000000000004  0.12431999999999997  0.61363  1.0000
  H   H20       1.0  0.30463000000000007  0.03289  0.43389  1.0000
  H   H21       1.0  0.25523  0.79918  0.56443  1.0000
  H   H22       1.0  0.09442999999999999  0.3196199999999999  0.27329  1.0000
  H   H23       1.0  0.7614000000000001  0.46366  0.26949  1.0000
  H   H24       1.0  0.44471  0.9746199999999998  0.63739  1.0000
  H   H25       1.0  0.3740900000000002  0.88186  0.4577300000000001  1.0000
  H   H26       1.0  0.8292600000000001  0.24183999999999994  0.16514  1.0000
  H   H27       1.0  0.004160000000000003  0.34327  0.17481  1.0000
  H   H28       1.0  0.68977  0.13945999999999995  0.12037999999999999  1.0000
  H   H29       1.0  0.46612  0.5574  0.48341  1.0000
  H   H30       1.0  0.6594200000000001  0.47551  0.12258  1.0000
  H   H31       1.0  0.85263  0.4419  0.36748  1.0000
  H   H32       1.0  0.51885  0.3711899999999999  0.07961  1.0000
  H   H33       1.0  0.0495  0.20560999999999993  0.98399  1.0000
  H   H34       1.0  0.67343  0.14866  0.96387  1.0000
  H   H35       1.0  0.8672300000000002  0.6243499999999998  0.88637  1.0000
  H   H36       1.0  0.80465  0.53293  0.06611  1.0000
  H   H37       1.0  0.75523  0.29919  0.93557  1.0000
  H   H38       1.0  0.59442  0.81963  0.22671000000000002  1.0000
  H   H39       1.0  0.26137  0.96364  0.23049000000000003  1.0000
  H   H40       1.0  0.94472  0.47465  0.86259  1.0000
  H   H41       1.0  0.8741  0.3819  0.04228  1.0000
  H   H42       1.0  0.32922  0.74184  0.33486  1.0000
  H   H43       1.0  0.50413  0.84326  0.32519  1.0000
  H   H44       1.0  0.18973  0.63947  0.37963  1.0000
  H   H45       1.0  0.9661100000000001  0.057399999999999986  0.01659  1.0000
  H   H46       1.0  0.15939000000000003  0.97551  0.3774  1.0000
  H   H47       1.0  0.35264  0.9418999999999998  0.13251  1.0000
  H   H48       1.0  0.01880999999999999  0.8711999999999998  0.42039000000000004  1.0000
  H   H49       1.0  0.4505  0.2943899999999999  0.48399  1.0000
  H   H50       1.0  0.8265700000000002  0.3513499999999999  0.46386999999999995  1.0000
  H   H51       1.0  0.63279  0.87569  0.38637  1.0000
  H   H52       1.0  0.69536  0.96712  0.56611  1.0000
  H   H53       1.0  0.74477  0.20081999999999994  0.43557000000000007  1.0000
  H   H54       1.0  0.90557  0.68039  0.7267099999999999  1.0000
  H   H55       1.0  0.23860000000000003  0.53635  0.7305100000000001  1.0000
  H   H56       1.0  0.55528  0.02539  0.3626  1.0000
  H   H57       1.0  0.6259000000000001  0.11815  0.54227  1.0000
  H   H58       1.0  0.17074000000000003  0.75817  0.83486  1.0000
  H   H59       1.0  0.99584  0.65674  0.82519  1.0000
  H   H60       1.0  0.31023  0.8605399999999997  0.87962  1.0000
  H   H61       1.0  0.53388  0.44261  0.51659  1.0000
  H   H62       1.0  0.34058  0.5245  0.87741  1.0000
  H   H63       1.0  0.14737  0.5581  0.63252  1.0000
  H   H64       1.0  0.48115  0.6288199999999998  0.92038  1.0000
  C   C1        1.0  0.23092  0.9995999999999999  0.99342  1.0000
  C   C2        1.0  0.4680500000000001  0.13453  0.8839400000000001  1.0000
  C   C3        1.0  0.16882  0.41348  0.02275  1.0000
  C   C4        1.0  0.52177  0.12140999999999998  0.82579  1.0000
  C   C5        1.0  0.1851  0.9069699999999998  0.00785  1.0000
  C   C6        1.0  0.21375  0.32517  0.00911  1.0000
  C   C7        1.0  0.03231999999999999  0.8073099999999998  0.02007  1.0000
  C   C8        1.0  0.09348  0.73991  0.042  1.0000
  C   C9        1.0  0.24498  0.83814  0.03005  1.0000
  C   C10       1.0  0.12875  0.42916  0.08015  1.0000
  C   C11       1.0  0.16657  0.4812299999999999  0.97845  1.0000
  C   C12       1.0  0.1997  0.75414  0.04634  1.0000
  C   C13       1.0  0.9033000000000001  0.25034  0.59749  1.0000
  C   C14       1.0  0.62137  0.0954  0.71785  1.0000
  C   C15       1.0  0.4782700000000001  0.14879  0.7716700000000001  1.0000
  C   C16       1.0  0.66612  0.06813  0.77125  1.0000
  C   C17       1.0  0.08663  0.51126  0.09342000000000002  1.0000
  C   C18       1.0  0.12760999999999997  0.5646499999999998  0.99137  1.0000
  C   C19       1.0  0.98382  0.31148  0.56837  1.0000
  C   C20       1.0  0.73893  0.23058999999999993  0.64658  1.0000
  C   C21       1.0  0.52782  0.13556  0.71724  1.0000
  C   C22       1.0  0.8162300000000002  0.2871499999999999  0.62195  1.0000
  C   C23       1.0  0.07913000000000002  0.88992  0.00208  1.0000
  C   C24       1.0  0.08827  0.57917  0.04904  1.0000
  C   C25       1.0  0.83529  0.09803  0.6217  1.0000
  C   C26       1.0  0.7485600000000001  0.13606  0.64538  1.0000
  C   C27       1.0  0.6156  0.08063  0.8253  1.0000
  C   C28       1.0  0.91259  0.15562  0.59817  1.0000
  C   C29       1.0  0.26908  0.50041  0.49342  1.0000
  C   C30       1.0  0.03194  0.36549  0.38394  1.0000
  C   C31       1.0  0.3311699999999999  0.08647999999999997  0.52274  1.0000
  C   C32       1.0  0.97822  0.3785999999999999  0.32579  1.0000
  C   C33       1.0  0.3149  0.59303  0.50784  1.0000
  C   C34       1.0  0.28624  0.17478999999999997  0.5091  1.0000
  C   C35       1.0  0.46768  0.6926899999999998  0.52006  1.0000
  C   C36       1.0  0.40652  0.76009  0.542  1.0000
  C   C37       1.0  0.25502000000000014  0.66186  0.53005  1.0000
  C   C38       1.0  0.3712400000000001  0.07081999999999997  0.58014  1.0000
  C   C39       1.0  0.33342  0.01874  0.47845000000000004  1.0000
  C   C40       1.0  0.3003  0.7458599999999999  0.54635  1.0000
  C   C41       1.0  0.59672  0.24966  0.0975  1.0000
  C   C42       1.0  0.87865  0.4046  0.21784  1.0000
  C   C43       1.0  0.021739999999999992  0.3512099999999999  0.27167  1.0000
  C   C44       1.0  0.83389  0.43186999999999987  0.27124  1.0000
  C   C45       1.0  0.41335  0.98871  0.59341  1.0000
  C   C46       1.0  0.37237  0.93532  0.4913600000000001  1.0000
  C   C47       1.0  0.5161899999999999  0.18851999999999994  0.06838  1.0000
  C   C48       1.0  0.7611  0.26942  0.14658  1.0000
  C   C49       1.0  0.97221  0.3644399999999999  0.21724  1.0000
  C   C50       1.0  0.6838000000000001  0.21284999999999996  0.12196  1.0000
  C   C51       1.0  0.42088000000000003  0.61009  0.50208  1.0000
  C   C52       1.0  0.41171000000000013  0.9208199999999999  0.54903  1.0000
  C   C53       1.0  0.66474  0.40198  0.1217  1.0000
  C   C54       1.0  0.75148  0.36394  0.14537  1.0000
  C   C55       1.0  0.8844000000000002  0.41937  0.32529  1.0000
  C   C56       1.0  0.58744  0.34438  0.09817  1.0000
  C   C57       1.0  0.76908  0.0004099999999999999  0.00657  1.0000
  C   C58       1.0  0.53194  0.86548  0.11606  1.0000
  C   C59       1.0  0.8311799999999998  0.5865199999999999  0.97725  1.0000
  C   C60       1.0  0.47822000000000003  0.8786  0.17421  1.0000
  C   C61       1.0  0.8149  0.09303  0.99215  1.0000
  C   C62       1.0  0.78625  0.67483  0.99088  1.0000
  C   C63       1.0  0.96768  0.19268999999999994  0.9799299999999999  1.0000
  C   C64       1.0  0.90651  0.2601  0.958  1.0000
  C   C65       1.0  0.75501  0.16186  0.96995  1.0000
  C   C66       1.0  0.87124  0.57084  0.91985  1.0000
  C   C67       1.0  0.83343  0.51878  0.02154  1.0000
  C   C68       1.0  0.8003  0.24586  0.9536500000000001  1.0000
  C   C69       1.0  0.09669000000000001  0.74967  0.4025  1.0000
  C   C70       1.0  0.37863  0.9046  0.28215  1.0000
  C   C71       1.0  0.52173  0.85122  0.22832  1.0000
  C   C72       1.0  0.33387000000000006  0.9318699999999998  0.22874  1.0000
  C   C73       1.0  0.91336  0.48874  0.90657  1.0000
  C   C74       1.0  0.8723800000000003  0.4353499999999999  0.00863  1.0000
  C   C75       1.0  0.016169999999999997  0.68852  0.43163  1.0000
  C   C76       1.0  0.26106999999999997  0.7694199999999998  0.35342  1.0000
  C   C77       1.0  0.47217999999999993  0.8644499999999998  0.28276  1.0000
  C   C78       1.0  0.18376999999999996  0.7128499999999998  0.37804  1.0000
  C   C79       1.0  0.92087  0.11009  0.99792  1.0000
  C   C80       1.0  0.91172  0.42083999999999994  0.9509600000000001  1.0000
  C   C81       1.0  0.1647  0.90198  0.37829000000000007  1.0000
  C   C82       1.0  0.25144  0.86394  0.35462  1.0000
  C   C83       1.0  0.3844  0.91937  0.1747  1.0000
  C   C84       1.0  0.0874  0.84439  0.40183  1.0000
  C   C85       1.0  0.73092  0.4996  0.50657  1.0000
  C   C86       1.0  0.96805  0.63452  0.61606  1.0000
  C   C87       1.0  0.6688200000000001  0.91353  0.47726  1.0000
  C   C88       1.0  0.02176999999999999  0.62141  0.67421  1.0000
  C   C89       1.0  0.6851000000000002  0.40698  0.49215000000000003  1.0000
  C   C90       1.0  0.7137600000000001  0.82522  0.49090000000000006  1.0000
  C   C91       1.0  0.53231  0.30732  0.4799300000000001  1.0000
  C   C92       1.0  0.59348  0.23992  0.45799000000000006  1.0000
  C   C93       1.0  0.74498  0.3381499999999999  0.4699499999999999  1.0000
  C   C94       1.0  0.6287600000000001  0.9291899999999997  0.41984999999999995  1.0000
  C   C95       1.0  0.66657  0.9812699999999998  0.52155  1.0000
  C   C96       1.0  0.6997  0.25415  0.45365  1.0000
  C   C97       1.0  0.40327000000000013  0.75035  0.9025  1.0000
  C   C98       1.0  0.12134  0.5954  0.78215  1.0000
  C   C99       1.0  0.97826  0.6488  0.72832  1.0000
  C   C100      1.0  0.16611  0.5681299999999998  0.7287500000000001  1.0000
  C   C101      1.0  0.58665  0.01129  0.40658  1.0000
  C   C102      1.0  0.62762  0.06469  0.50864  1.0000
  C   C103      1.0  0.48381  0.81149  0.93162  1.0000
  C   C104      1.0  0.2389  0.7305899999999997  0.8534200000000001  1.0000
  C   C105      1.0  0.02778999999999999  0.6355599999999998  0.78276  1.0000
  C   C106      1.0  0.3162  0.7871599999999997  0.8780399999999999  1.0000
  C   C107      1.0  0.57912  0.3899199999999999  0.49792  1.0000
  C   C108      1.0  0.58828  0.07919  0.45096  1.0000
  C   C109      1.0  0.33525  0.59803  0.8783  1.0000
  C   C110      1.0  0.24852  0.6360599999999998  0.85462  1.0000
  C   C111      1.0  0.11559000000000001  0.58064  0.67471  1.0000
  C   C112      1.0  0.4125500000000001  0.65563  0.90183  1.0000
  O   O1        1.0  0.32034  0.022839999999999992  0.01496  1.0000
  O   O2        1.0  0.19281000000000006  0.25608  0.04196  1.0000
  O   O3        1.0  0.27366  0.32254  0.96377  1.0000
  O   O4        1.0  0.97259  0.39715  0.57236  1.0000
  O   O5        1.0  0.37844000000000005  0.16314  0.88215  1.0000
  O   O6        1.0  0.045169999999999995  0.6596899999999998  0.0632  1.0000
  O   O7        1.0  0.51498  0.11814  0.93272  1.0000
  O   O8        1.0  0.18138  0.05502  0.96365  1.0000
  O   O9        1.0  0.05547  0.27268  0.54234  1.0000
  O   O10       1.0  0.6703  0.07561  0.66381  1.0000
  O   O11       1.0  0.17965000000000003  0.4771599999999999  0.51496  1.0000
  O   O12       1.0  0.30716  0.24387  0.54195  1.0000
  O   O13       1.0  0.22635  0.17746  0.46375000000000005  1.0000
  O   O14       1.0  0.5274399999999999  0.10284999999999998  0.07236  1.0000
  O   O15       1.0  0.12156000000000002  0.33689  0.38216  1.0000
  O   O16       1.0  0.45483  0.84031  0.5632  1.0000
  O   O17       1.0  0.9850100000000002  0.38188  0.43272  1.0000
  O   O18       1.0  0.31862  0.44498  0.46364999999999995  1.0000
  O   O19       1.0  0.44453000000000004  0.22732999999999995  0.04237  1.0000
  O   O20       1.0  0.82975  0.42438999999999993  0.1638  1.0000
  O   O21       1.0  0.67966  0.9771699999999998  0.98503  1.0000
  O   O22       1.0  0.80718  0.7439299999999998  0.95804  1.0000
  O   O23       1.0  0.7263400000000001  0.67747  0.03623  1.0000
  O   O24       1.0  0.027410000000000014  0.60286  0.42764  1.0000
  O   O25       1.0  0.6215500000000003  0.83687  0.11784  1.0000
  O   O26       1.0  0.9548300000000001  0.34032  0.9368  1.0000
  O   O27       1.0  0.48501  0.88187  0.06727  1.0000
  O   O28       1.0  0.81862  0.94498  0.03635  1.0000
  O   O29       1.0  0.9445200000000002  0.7273299999999998  0.45765000000000006  1.0000
  O   O30       1.0  0.3297  0.9244  0.33619  1.0000
  O   O31       1.0  0.8203400000000002  0.52285  0.48504  1.0000
  O   O32       1.0  0.69284  0.7561399999999998  0.45804  1.0000
  O   O33       1.0  0.77365  0.82255  0.53624  1.0000
  O   O34       1.0  0.47256  0.89715  0.92763  1.0000
  O   O35       1.0  0.87843  0.66311  0.61784  1.0000
  O   O36       1.0  0.54517  0.1597  0.4368  1.0000
  O   O37       1.0  0.014980000000000007  0.61813  0.56727  1.0000
  O   O38       1.0  0.68138  0.55503  0.53635  1.0000
  O   O39       1.0  0.55547  0.7726799999999998  0.95763  1.0000
  O   O40       1.0  0.17024  0.57561  0.8362000000000002  1.0000
