data_image0
_chemical_formula_structural       Ni4H56C88N12O16
_chemical_formula_sum              "Ni4 H56 C88 N12 O16"
_cell_length_a       11.61743
_cell_length_b       11.62011
_cell_length_c       16.86309
_cell_angle_alpha    76.0478
_cell_angle_beta     76.10513
_cell_angle_gamma    84.61404

_symmetry_space_group_name_H-M    'P 1'
_symmetry_Int_Tables_number       1

loop_
  _symmetry_equiv_pos_as_xyz
  'x,y,z'

loop_
  _atom_site_type_symbol
  _atom_site_label
  _atom_site_symmetry_multiplicity
  _atom_site_fract_x
  _atom_site_fract_y
  _atom_site_fract_z
  _atom_site_occupancy
  Ni  Ni1       1.0  0.56747  0.92868  0.85027  1.0000
  Ni  Ni2       1.0  0.07128000000000005  0.43246  0.64969  1.0000
  Ni  Ni3       1.0  0.43254  0.07130999999999998  0.14973  1.0000
  Ni  Ni4       1.0  0.9287300000000003  0.56754  0.3503100000000001  1.0000
  H   H1        1.0  0.7780199999999998  0.30724999999999997  0.5907200000000002  1.0000
  H   H2        1.0  0.92879  0.15271999999999997  0.3808400000000001  1.0000
  H   H3        1.0  0.73616  0.93901  0.61527  1.0000
  H   H4        1.0  0.75676  0.8024299999999999  0.56629  1.0000
  H   H5        1.0  0.8082199999999999  0.62486  0.50695  1.0000
  H   H6        1.0  0.029379999999999944  0.81259  0.2937400000000001  1.0000
  H   H7        1.0  0.9916700000000002  0.99858  0.34477000000000013  1.0000
  H   H8        1.0  0.76768  0.70834  0.84253  1.0000
  H   H9        1.0  0.7737800000000001  0.5724799999999999  0.72711  1.0000
  H   H10       1.0  0.45324000000000003  0.7837800000000001  0.75321  1.0000
  H   H11       1.0  0.47850000000000004  0.7787600000000001  0.60724  1.0000
  H   H12       1.0  0.42655  0.6978200000000002  0.5  1.0000
  H   H13       1.0  0.60482  0.3657  0.5889900000000002  1.0000
  H   H14       1.0  0.6615699999999997  0.44766999999999996  0.6924600000000002  1.0000
  H   H15       1.0  0.69237  0.22187  0.90935  1.0000
  H   H16       1.0  0.8473700000000001  0.07128  0.11921000000000002  1.0000
  H   H17       1.0  0.06075999999999997  0.2638199999999999  0.8846500000000003  1.0000
  H   H18       1.0  0.19743000000000005  0.24322  0.93377  1.0000
  H   H19       1.0  0.37517  0.19178999999999993  0.9931400000000002  1.0000
  H   H20       1.0  0.18765999999999997  0.9704600000000001  0.20637  1.0000
  H   H21       1.0  0.0015299999999999821  0.008169999999999992  0.15535000000000004  1.0000
  H   H22       1.0  0.29164999999999996  0.23215000000000002  0.6576  1.0000
  H   H23       1.0  0.4277299999999999  0.22629  0.77293  1.0000
  H   H24       1.0  0.21591000000000002  0.5465000000000002  0.74673  1.0000
  H   H25       1.0  0.22117  0.5213399999999999  0.8926  1.0000
  H   H26       1.0  0.30210999999999993  0.57335  0.99983  1.0000
  H   H27       1.0  0.6343300000000001  0.39521999999999996  0.9111700000000003  1.0000
  H   H28       1.0  0.5524599999999998  0.33852  0.80766  1.0000
  H   H29       1.0  0.22199  0.6927399999999999  0.4092800000000001  1.0000
  H   H30       1.0  0.07122000000000002  0.8472800000000001  0.61916  1.0000
  H   H31       1.0  0.26385000000000003  0.06099000000000001  0.38473  1.0000
  H   H32       1.0  0.24325  0.19757000000000002  0.43371  1.0000
  H   H33       1.0  0.19179000000000004  0.37514  0.49305  1.0000
  H   H34       1.0  0.9706300000000002  0.18740999999999997  0.7062600000000002  1.0000
  H   H35       1.0  0.008340000000000002  0.0014100000000000093  0.65523  1.0000
  H   H36       1.0  0.23233  0.29165  0.15747  1.0000
  H   H37       1.0  0.22623000000000013  0.42751000000000006  0.27289  1.0000
  H   H38       1.0  0.54677  0.21621  0.24679000000000006  1.0000
  H   H39       1.0  0.52151  0.22123000000000004  0.39276  1.0000
  H   H40       1.0  0.5734600000000002  0.30218000000000006  0.49999  1.0000
  H   H41       1.0  0.39519  0.63429  0.41101  1.0000
  H   H42       1.0  0.33844  0.55233  0.30754  1.0000
  H   H43       1.0  0.30763999999999997  0.77812  0.09064000000000003  1.0000
  H   H44       1.0  0.15264  0.92872  0.8807900000000002  1.0000
  H   H45       1.0  0.93924  0.73617  0.11535000000000002  1.0000
  H   H46       1.0  0.8025800000000001  0.75678  0.06623  1.0000
  H   H47       1.0  0.6248399999999998  0.80821  0.00686  1.0000
  H   H48       1.0  0.8123499999999999  0.029529999999999963  0.7936300000000002  1.0000
  H   H49       1.0  0.99848  0.99183  0.84465  1.0000
  H   H50       1.0  0.70836  0.7678400000000001  0.3424  1.0000
  H   H51       1.0  0.57228  0.7737000000000002  0.22707000000000005  1.0000
  H   H52       1.0  0.7841  0.45348999999999995  0.25327  1.0000
  H   H53       1.0  0.7788400000000002  0.4786500000000001  0.1074  1.0000
  H   H54       1.0  0.6979000000000001  0.42665  0.00017000000000000007  1.0000
  H   H55       1.0  0.36568  0.60477  0.08883000000000003  1.0000
  H   H56       1.0  0.44755000000000006  0.66147  0.19234  1.0000
  C   C1        1.0  0.6665300000000002  0.10999999999999999  0.69717  1.0000
  C   C2        1.0  0.7449300000000001  0.12178999999999994  0.6100200000000002  1.0000
  C   C3        1.0  0.79184  0.23017  0.56331  1.0000
  C   C4        1.0  0.8565500000000003  0.23964  0.4804900000000001  1.0000
  C   C5        1.0  0.8794300000000003  0.13993000000000005  0.44566  1.0000
  C   C6        1.0  0.83941  0.02836999999999995  0.4935500000000001  1.0000
  C   C7        1.0  0.77092  0.022059999999999923  0.5752800000000002  1.0000
  C   C8        1.0  0.89585  0.3580200000000001  0.42854  1.0000
  C   C9        1.0  0.8674900000000002  0.91998  0.46027  1.0000
  C   C10       1.0  0.8179000000000002  0.81072  0.5055300000000003  1.0000
  C   C11       1.0  0.8457100000000001  0.7102000000000002  0.4731800000000001  1.0000
  C   C12       1.0  0.9695000000000003  0.81547  0.3537100000000001  1.0000
  C   C13       1.0  0.9463800000000002  0.91921  0.38268  1.0000
  C   C14       1.0  0.7032499999999999  0.7042900000000001  0.8065200000000002  1.0000
  C   C15       1.0  0.7086599999999997  0.63779  0.7486700000000002  1.0000
  C   C16       1.0  0.5394100000000001  0.7463799999999999  0.76174  1.0000
  C   C17       1.0  0.57281  0.61872  0.65764  1.0000
  C   C18       1.0  0.5062600000000002  0.6879999999999998  0.603  1.0000
  C   C19       1.0  0.4777500000000002  0.64145  0.54159  1.0000
  C   C20       1.0  0.5140500000000002  0.52497  0.53293  1.0000
  C   C21       1.0  0.5787600000000002  0.4574699999999998  0.5898800000000002  1.0000
  C   C22       1.0  0.6099100000000002  0.5029700000000003  0.65055  1.0000
  C   C23       1.0  0.88974  0.33342  0.80274  1.0000
  C   C24       1.0  0.8779600000000001  0.25503  0.88993  1.0000
  C   C25       1.0  0.76962  0.20810999999999985  0.9366600000000003  1.0000
  C   C26       1.0  0.7603300000000002  0.14343  0.019510000000000007  1.0000
  C   C27       1.0  0.8600900000000001  0.12056  0.05436000000000001  1.0000
  C   C28       1.0  0.9716100000000001  0.16054  0.00644  1.0000
  C   C29       1.0  0.97777  0.22903999999999997  0.9246800000000002  1.0000
  C   C30       1.0  0.642  0.10434  0.07154  1.0000
  C   C31       1.0  0.08001999999999998  0.13242  0.03978  1.0000
  C   C32       1.0  0.18923999999999996  0.18204999999999988  0.9945300000000002  1.0000
  C   C33       1.0  0.28982  0.15428  0.026890000000000008  1.0000
  C   C34       1.0  0.18466  0.030400000000000007  0.14639  1.0000
  C   C35       1.0  0.08086  0.05349999999999999  0.11741000000000003  1.0000
  C   C36       1.0  0.29564000000000007  0.29657000000000006  0.69358  1.0000
  C   C37       1.0  0.36228999999999995  0.29131000000000007  0.7513700000000002  1.0000
  C   C38       1.0  0.25340999999999997  0.46036  0.73829  1.0000
  C   C39       1.0  0.38130000000000014  0.4271500000000001  0.84233  1.0000
  C   C40       1.0  0.31195999999999996  0.49364999999999987  0.8969000000000003  1.0000
  C   C41       1.0  0.35851999999999984  0.5221899999999999  0.9583100000000002  1.0000
  C   C42       1.0  0.4750300000000001  0.4859499999999999  0.9670700000000002  1.0000
  C   C43       1.0  0.5425600000000003  0.42127  0.9102  1.0000
  C   C44       1.0  0.49707  0.39012  0.8495  1.0000
  C   C45       1.0  0.33348000000000005  0.89  0.3028200000000001  1.0000
  C   C46       1.0  0.25508  0.8782000000000001  0.38998  1.0000
  C   C47       1.0  0.20817000000000005  0.7698200000000002  0.43669  1.0000
  C   C48       1.0  0.14345999999999995  0.7603499999999997  0.5195100000000002  1.0000
  C   C49       1.0  0.12058000000000003  0.8600599999999999  0.55434  1.0000
  C   C50       1.0  0.16060000000000002  0.9716300000000001  0.5064500000000002  1.0000
  C   C51       1.0  0.22909  0.97793  0.4247200000000001  1.0000
  C   C52       1.0  0.10416  0.6419700000000002  0.57146  1.0000
  C   C53       1.0  0.13251999999999994  0.08001999999999992  0.5397300000000003  1.0000
  C   C54       1.0  0.18210999999999994  0.18927999999999998  0.49447000000000013  1.0000
  C   C55       1.0  0.15430000000000002  0.28980000000000006  0.52682  1.0000
  C   C56       1.0  0.030510000000000027  0.18452999999999997  0.64628  1.0000
  C   C57       1.0  0.05362999999999997  0.08078999999999995  0.6173200000000002  1.0000
  C   C58       1.0  0.2967600000000001  0.2957  0.19348  1.0000
  C   C59       1.0  0.29134999999999994  0.36221000000000003  0.2513300000000001  1.0000
  C   C60       1.0  0.46059999999999995  0.25360999999999995  0.23826000000000006  1.0000
  C   C61       1.0  0.42720000000000014  0.38128  0.34236  1.0000
  C   C62       1.0  0.49375  0.31199  0.39700000000000013  1.0000
  C   C63       1.0  0.52226  0.35855000000000004  0.45841  1.0000
  C   C64       1.0  0.48596  0.47503  0.46707  1.0000
  C   C65       1.0  0.42125  0.54252  0.41012  1.0000
  C   C66       1.0  0.3901  0.4970200000000001  0.34944  1.0000
  C   C67       1.0  0.11027000000000002  0.6665800000000002  0.19726  1.0000
  C   C68       1.0  0.12204999999999999  0.7449600000000001  0.11007  1.0000
  C   C69       1.0  0.23039000000000007  0.7918800000000001  0.06334000000000002  1.0000
  C   C70       1.0  0.23968000000000014  0.8565700000000002  0.98049  1.0000
  C   C71       1.0  0.13991999999999996  0.8794299999999999  0.9456400000000003  1.0000
  C   C72       1.0  0.02839999999999996  0.83945  0.9935600000000002  1.0000
  C   C73       1.0  0.022239999999999985  0.7709600000000001  0.07532  1.0000
  C   C74       1.0  0.35800999999999983  0.8956600000000001  0.92846  1.0000
  C   C75       1.0  0.9199899999999998  0.8675699999999998  0.9602100000000002  1.0000
  C   C76       1.0  0.8107700000000002  0.81794  0.00547  1.0000
  C   C77       1.0  0.7101799999999997  0.8457099999999999  0.9731000000000002  1.0000
  C   C78       1.0  0.81535  0.9696  0.85361  1.0000
  C   C79       1.0  0.9191500000000001  0.9464899999999999  0.8825900000000002  1.0000
  C   C80       1.0  0.7043700000000002  0.70342  0.30642000000000014  1.0000
  C   C81       1.0  0.6377200000000002  0.7086900000000002  0.24863000000000005  1.0000
  C   C82       1.0  0.7466000000000003  0.5396299999999999  0.2617100000000001  1.0000
  C   C83       1.0  0.61871  0.57284  0.15767000000000006  1.0000
  C   C84       1.0  0.68805  0.50634  0.10310000000000002  1.0000
  C   C85       1.0  0.6414800000000003  0.47781  0.04169  1.0000
  C   C86       1.0  0.5249800000000002  0.51405  0.03293  1.0000
  C   C87       1.0  0.4574500000000001  0.57872  0.0898  1.0000
  C   C88       1.0  0.50294  0.60987  0.15050000000000005  1.0000
  N   N1        1.0  0.9195200000000001  0.7120500000000001  0.3975400000000001  1.0000
  N   N2        1.0  0.5976  0.77129  0.81427  1.0000
  N   N3        1.0  0.6043300000000001  0.6656599999999999  0.7199700000000002  1.0000
  N   N4        1.0  0.28803  0.08043  0.10256  1.0000
  N   N5        1.0  0.22846999999999998  0.40212000000000003  0.6858300000000003  1.0000
  N   N6        1.0  0.33435000000000004  0.3955999999999999  0.7800200000000003  1.0000
  N   N7        1.0  0.08049000000000003  0.28795  0.60246  1.0000
  N   N8        1.0  0.40241  0.2287  0.18573  1.0000
  N   N9        1.0  0.39568  0.33434  0.2800300000000001  1.0000
  N   N10       1.0  0.7119800000000001  0.9195699999999998  0.8974400000000002  1.0000
  N   N11       1.0  0.7715400000000002  0.59787  0.31417  1.0000
  N   N12       1.0  0.6656599999999999  0.6044  0.21998000000000006  1.0000
  O   O1        1.0  0.64537  0.00014999999999999446  0.73404  1.0000
  O   O2        1.0  0.6297900000000003  0.1994699999999999  0.7259300000000002  1.0000
  O   O3        1.0  0.88039  0.44616  0.4642600000000001  1.0000
  O   O4        1.0  0.9395100000000001  0.3727800000000001  0.34985  1.0000
  O   O5        1.0  0.9996200000000002  0.3545499999999998  0.7659400000000002  1.0000
  O   O6        1.0  0.8002600000000002  0.37017999999999995  0.77394  1.0000
  O   O7        1.0  0.5538700000000002  0.11943  0.035760000000000014  1.0000
  O   O8        1.0  0.62724  0.06137  0.15033  1.0000
  O   O9        1.0  0.35464000000000007  0.9998400000000001  0.26596  1.0000
  O   O10       1.0  0.37021999999999994  0.80052  0.2740700000000001  1.0000
  O   O11       1.0  0.11961999999999992  0.55384  0.5357400000000002  1.0000
  O   O12       1.0  0.06049999999999991  0.62721  0.6501500000000002  1.0000
  O   O13       1.0  0.00038999999999997896  0.6454499999999999  0.23406000000000005  1.0000
  O   O14       1.0  0.19975000000000004  0.62982  0.22606000000000007  1.0000
  O   O15       1.0  0.4461399999999999  0.8805600000000001  0.96423  1.0000
  O   O16       1.0  0.37277  0.9386299999999999  0.8496700000000003  1.0000
