data_image0
_chemical_formula_structural       Zn4H72C72N16O20
_chemical_formula_sum              "Zn4 H72 C72 N16 O20"
_cell_length_a       4.67379
_cell_length_b       18.86007
_cell_length_c       22.536980000000003
_cell_angle_alpha    89.9227
_cell_angle_beta     90.0
_cell_angle_gamma    90.0

_space_group_name_H-M_alt    "P 1"
_space_group_IT_number       1

loop_
  _space_group_symop_operation_xyz
  'x, y, z'

loop_
  _atom_site_type_symbol
  _atom_site_label
  _atom_site_symmetry_multiplicity
  _atom_site_fract_x
  _atom_site_fract_y
  _atom_site_fract_z
  _atom_site_occupancy
  Zn  Zn1       1.0  0.2094  0.33024  0.20465000000000005  1.0000
  Zn  Zn2       1.0  0.78953  0.83059  0.29544000000000004  1.0000
  Zn  Zn3       1.0  0.2094  0.66976  0.79534  1.0000
  Zn  Zn4       1.0  0.78953  0.16939999999999997  0.70455  1.0000
  H   H1        1.0  0.87775  0.1543  0.19516000000000006  1.0000
  H   H2        1.0  0.26801  0.5229199999999999  0.32016  1.0000
  H   H3        1.0  0.02633  0.20898  0.40758  1.0000
  H   H4        1.0  0.26603  0.75548  0.9026400000000002  1.0000
  H   H5        1.0  0.26802  0.47707  0.6798400000000001  1.0000
  H   H6        1.0  0.26603  0.24451999999999996  0.09736  1.0000
  H   H7        1.0  0.87775  0.8457  0.8048300000000003  1.0000
  H   H8        1.0  0.76146  0.42244  0.9429400000000001  1.0000
  H   H9        1.0  0.38302  0.04647  0.20339  1.0000
  H   H10       1.0  0.29128  0.2332  0.31536  1.0000
  H   H11       1.0  0.98223  0.57545  0.11451  1.0000
  H   H12       1.0  0.3672  0.68179  0.54794  1.0000
  H   H13       1.0  0.73257  0.02366  0.18011  1.0000
  H   H14       1.0  0.73714  0.60509  0.7332900000000002  1.0000
  H   H15       1.0  0.8965399999999999  0.08325999999999999  0.28046000000000004  1.0000
  H   H16       1.0  0.70272  0.40294  0.14529  1.0000
  H   H17       1.0  0.33323  0.63543  0.3665600000000001  1.0000
  H   H18       1.0  0.73634  0.74507  0.40267  1.0000
  H   H19       1.0  0.73714  0.39491  0.26671  1.0000
  H   H20       1.0  0.02126  0.92709  0.6149  1.0000
  H   H21       1.0  0.30692  0.8948599999999999  0.7107800000000001  1.0000
  H   H22       1.0  0.71212  0.26581  0.8149200000000001  1.0000
  H   H23       1.0  0.3007  0.90325  0.3542  1.0000
  H   H24       1.0  0.11099999999999999  0.58221  0.21919000000000005  1.0000
  H   H25       1.0  0.38302  0.95353  0.79661  1.0000
  H   H26       1.0  0.99436  0.21817  0.00423  1.0000
  H   H27       1.0  0.29128  0.7667999999999998  0.68464  1.0000
  H   H28       1.0  0.69923  0.39612  0.78818  1.0000
  H   H29       1.0  0.3007  0.09675  0.64579  1.0000
  H   H30       1.0  0.3672  0.31820999999999994  0.4520500000000001  1.0000
  H   H31       1.0  0.70273  0.59706  0.85471  1.0000
  H   H32       1.0  0.62009  0.45616  0.70277  1.0000
  H   H33       1.0  0.71212  0.7341899999999999  0.18508  1.0000
  H   H34       1.0  0.23834  0.07361999999999999  0.44322  1.0000
  H   H35       1.0  0.27032  0.89485  0.23385  1.0000
  H   H36       1.0  0.56089  0.12175  0.8578500000000001  1.0000
  H   H37       1.0  0.0067599999999999995  0.28072  0.50382  1.0000
  H   H38       1.0  0.69923  0.6038699999999999  0.21181  1.0000
  H   H39       1.0  0.44515  0.37815  0.35832  1.0000
  H   H40       1.0  0.99436  0.7818299999999999  0.9957600000000001  1.0000
  H   H41       1.0  0.76146  0.57756  0.05705  1.0000
  H   H42       1.0  0.66267  0.17275  0.45924  1.0000
  H   H43       1.0  0.02633  0.79101  0.5924100000000001  1.0000
  H   H44       1.0  0.97433  0.2894  0.9074900000000001  1.0000
  H   H45       1.0  0.63474  0.8191199999999997  0.047760000000000004  1.0000
  H   H46       1.0  0.12929  0.34696  0.69594  1.0000
  H   H47       1.0  0.66267  0.82725  0.54075  1.0000
  H   H48       1.0  0.27032  0.10515  0.7661500000000001  1.0000
  H   H49       1.0  0.8965399999999999  0.91674  0.71954  1.0000
  H   H50       1.0  0.11099999999999999  0.41779  0.78081  1.0000
  H   H51       1.0  0.63474  0.18088  0.95224  1.0000
  H   H52       1.0  0.73634  0.25492999999999993  0.5973300000000001  1.0000
  H   H53       1.0  0.12929  0.65304  0.30405000000000004  1.0000
  H   H54       1.0  0.56089  0.87825  0.14215  1.0000
  H   H55       1.0  0.02125  0.07291  0.3851000000000001  1.0000
  H   H56       1.0  0.67152  0.8635399999999999  0.86699  1.0000
  H   H57       1.0  0.0067599999999999995  0.7192799999999999  0.49617  1.0000
  H   H58       1.0  0.58596  0.11180999999999999  0.55273  1.0000
  H   H59       1.0  0.67152  0.13646  0.133  1.0000
  H   H60       1.0  0.58596  0.88819  0.44727000000000006  1.0000
  H   H61       1.0  0.417  0.61231  0.94782  1.0000
  H   H62       1.0  0.23834999999999998  0.92638  0.5567700000000001  1.0000
  H   H63       1.0  0.417  0.3876899999999999  0.05218000000000001  1.0000
  H   H64       1.0  0.33322  0.36457  0.63344  1.0000
  H   H65       1.0  0.44515  0.62185  0.64168  1.0000
  H   H66       1.0  0.97433  0.7105999999999999  0.09251  1.0000
  H   H67       1.0  0.73258  0.97634  0.8198900000000001  1.0000
  H   H68       1.0  0.98223  0.4245499999999999  0.88548  1.0000
  H   H69       1.0  0.62009  0.54384  0.29723000000000005  1.0000
  H   H70       1.0  0.33839  0.32620999999999994  0.9592400000000001  1.0000
  H   H71       1.0  0.30692  0.10514  0.28921  1.0000
  H   H72       1.0  0.33839  0.67379  0.04075  1.0000
  C   C1        1.0  0.8927  0.23314999999999997  0.82734  1.0000
  C   C2        1.0  0.4845  0.77736  0.05960000000000001  1.0000
  C   C3        1.0  0.21328  0.47386999999999996  0.21423000000000006  1.0000
  C   C4        1.0  0.39652  0.55994  0.29361  1.0000
  C   C5        1.0  0.37868  0.15597  0.8493100000000002  1.0000
  C   C6        1.0  0.60798  0.93859  0.7933800000000002  1.0000
  C   C7        1.0  0.30819  0.44931  0.7719  1.0000
  C   C8        1.0  0.1107  0.7341299999999997  0.6722600000000001  1.0000
  C   C9        1.0  0.48673  0.28422  0.97141  1.0000
  C   C10       1.0  0.5508  0.56265  0.13141  1.0000
  C   C11       1.0  0.24584  0.8629199999999999  0.38662000000000013  1.0000
  C   C12       1.0  0.29694  0.20846999999999996  0.8904600000000003  1.0000
  C   C13       1.0  0.51438  0.21475  0.47132000000000007  1.0000
  C   C14       1.0  0.29694  0.79152  0.10953000000000003  1.0000
  C   C15       1.0  0.8927  0.76685  0.17265  1.0000
  C   C16       1.0  0.21328  0.52613  0.78576  1.0000
  C   C17       1.0  0.59377  0.64796  0.9382400000000002  1.0000
  C   C18       1.0  0.69798  0.94797  0.7278700000000001  1.0000
  C   C19       1.0  0.2128  0.14551  0.7984400000000003  1.0000
  C   C20       1.0  0.44614000000000004  0.19172999999999998  0.20013000000000006  1.0000
  C   C21       1.0  0.67394  0.29855  0.021440000000000004  1.0000
  C   C22       1.0  0.51732  0.72358  0.55968  1.0000
  C   C23       1.0  0.5508  0.43735000000000007  0.86858  1.0000
  C   C24       1.0  0.75699  0.36253  0.11298  1.0000
  C   C25       1.0  0.66001  0.8638999999999999  0.8182  1.0000
  C   C26       1.0  0.95463  0.7479599999999998  0.62083  1.0000
  C   C27       1.0  0.4845  0.22264  0.9403900000000002  1.0000
  C   C28       1.0  0.69798  0.05202  0.27213  1.0000
  C   C29       1.0  0.55993  0.6908799999999999  0.29968  1.0000
  C   C30       1.0  0.34662  0.36509  0.68216  1.0000
  C   C31       1.0  0.39652  0.44005999999999995  0.7063800000000001  1.0000
  C   C32       1.0  0.08034  0.76071  0.46639  1.0000
  C   C33       1.0  0.34662  0.63491  0.31783  1.0000
  C   C34       1.0  0.7932  0.35432  0.299  1.0000
  C   C35       1.0  0.9238199999999999  0.22452  0.58478  1.0000
  C   C36       1.0  0.24584  0.13707  0.6133800000000001  1.0000
  C   C37       1.0  0.32764  0.20056  0.52146  1.0000
  C   C38       1.0  0.44614000000000004  0.8082699999999999  0.7998600000000001  1.0000
  C   C39       1.0  0.07833  0.72515  0.91522  1.0000
  C   C40       1.0  0.70633  0.29069  0.39066  1.0000
  C   C41       1.0  0.62672  0.34376  0.34975  1.0000
  C   C42       1.0  0.48673  0.7157799999999999  0.02859  1.0000
  C   C43       1.0  0.0478  0.24675999999999998  0.8789300000000001  1.0000
  C   C44       1.0  0.66001  0.13609  0.1818  1.0000
  C   C45       1.0  0.79051  0.02509  0.7137600000000001  1.0000
  C   C46       1.0  0.30819  0.55069  0.22809000000000004  1.0000
  C   C47       1.0  0.67394  0.70144  0.97855  1.0000
  C   C48       1.0  0.60798  0.06140999999999999  0.20662  1.0000
  C   C49       1.0  0.0478  0.75324  0.12107  1.0000
  C   C50       1.0  0.40887  0.14741  0.56209  1.0000
  C   C51       1.0  0.9238199999999999  0.7754799999999998  0.4152100000000001  1.0000
  C   C52       1.0  0.37868  0.8440299999999998  0.15068  1.0000
  C   C53       1.0  0.51438  0.78525  0.52867  1.0000
  C   C54       1.0  0.79321  0.64568  0.7010000000000001  1.0000
  C   C55       1.0  0.21279  0.8544899999999999  0.20156  1.0000
  C   C56       1.0  0.9211799999999999  0.74018  0.96624  1.0000
  C   C57       1.0  0.757  0.63747  0.88702  1.0000
  C   C58       1.0  0.95463  0.25204  0.3791700000000001  1.0000
  C   C59       1.0  0.51732  0.27642  0.4403100000000001  1.0000
  C   C60       1.0  0.40887  0.85259  0.43790000000000007  1.0000
  C   C61       1.0  0.45253  0.06101  0.3687500000000001  1.0000
  C   C62       1.0  0.70633  0.70931  0.6093400000000001  1.0000
  C   C63       1.0  0.1107  0.26586  0.32774  1.0000
  C   C64       1.0  0.79051  0.97491  0.28623  1.0000
  C   C65       1.0  0.62672  0.65624  0.65025  1.0000
  C   C66       1.0  0.45253  0.93899  0.63124  1.0000
  C   C67       1.0  0.55993  0.30912  0.70032  1.0000
  C   C68       1.0  0.9211799999999999  0.25981999999999994  0.033760000000000005  1.0000
  C   C69       1.0  0.59377  0.35204  0.061760000000000016  1.0000
  C   C70       1.0  0.32764  0.79943  0.47854  1.0000
  C   C71       1.0  0.08034  0.23928999999999997  0.5336000000000001  1.0000
  C   C72       1.0  0.07833  0.27485  0.08478  1.0000
  N   N1        1.0  0.22045  0.91022  0.59987  1.0000
  N   N2        1.0  0.9801199999999999  0.18463  0.7866100000000001  1.0000
  N   N3        1.0  0.46904  0.07806  0.31003  1.0000
  N   N4        1.0  0.78173  0.40745  0.8996500000000001  1.0000
  N   N5        1.0  0.5395  0.57634  0.19070000000000004  1.0000
  N   N6        1.0  0.01025  0.82477  0.37492  1.0000
  N   N7        1.0  0.9922999999999998  0.32432  0.12485000000000003  1.0000
  N   N8        1.0  0.5395  0.42365  0.80929  1.0000
  N   N9        1.0  0.02438  0.31473  0.28711  1.0000
  N   N10       1.0  0.9801199999999999  0.8153699999999999  0.21339000000000002  1.0000
  N   N11       1.0  0.22044  0.08977999999999998  0.40013  1.0000
  N   N12       1.0  0.01025  0.17523  0.6250700000000001  1.0000
  N   N13       1.0  0.9922999999999998  0.67568  0.8751500000000002  1.0000
  N   N14       1.0  0.78173  0.59255  0.10035000000000001  1.0000
  N   N15       1.0  0.46905  0.92194  0.68997  1.0000
  N   N16       1.0  0.02438  0.68526  0.7128800000000002  1.0000
  O   O1        1.0  0.3568  0.47189  0.89393  1.0000
  O   O2        1.0  0.64371  0.024759999999999997  0.39337000000000005  1.0000
  O   O3        1.0  0.97241  0.5358099999999999  0.80731  1.0000
  O   O4        1.0  0.50345  0.25667  0.18467000000000003  1.0000
  O   O5        1.0  0.031219999999999998  0.03553  0.6925  1.0000
  O   O6        1.0  0.38916  0.42257  0.22771000000000002  1.0000
  O   O7        1.0  0.031219999999999998  0.9644699999999999  0.3075  1.0000
  O   O8        1.0  0.22731  0.8248  0.77026  1.0000
  O   O9        1.0  0.49919  0.24431  0.68494  1.0000
  O   O10       1.0  0.38916  0.5774299999999999  0.7722800000000002  1.0000
  O   O11       1.0  0.64371  0.9752399999999999  0.60662  1.0000
  O   O12       1.0  0.77995  0.325  0.7297600000000001  1.0000
  O   O13       1.0  0.22731  0.1752  0.22973000000000005  1.0000
  O   O14       1.0  0.61197  0.0759  0.7268200000000001  1.0000
  O   O15       1.0  0.97241  0.46419  0.19269000000000003  1.0000
  O   O16       1.0  0.49918  0.75569  0.31505000000000005  1.0000
  O   O17       1.0  0.3568  0.52811  0.10606  1.0000
  O   O18       1.0  0.50345  0.74333  0.81533  1.0000
  O   O19       1.0  0.77995  0.675  0.27023  1.0000
  O   O20       1.0  0.61197  0.9240999999999999  0.27317  1.0000
