data_image0
_chemical_formula_structural       Mn7H42C112O42
_chemical_formula_sum              "Mn7 H42 C112 O42"
_cell_length_a       14.61481
_cell_length_b       16.75386
_cell_length_c       20.57202
_cell_angle_alpha    99.32420999999998
_cell_angle_beta     107.81021
_cell_angle_gamma    100.76435

_symmetry_space_group_name_H-M    'P 1'
_symmetry_Int_Tables_number       1

loop_
  _symmetry_equiv_pos_as_xyz
  'x,y,z'

loop_
  _atom_site_type_symbol
  _atom_site_label
  _atom_site_symmetry_multiplicity
  _atom_site_fract_x
  _atom_site_fract_y
  _atom_site_fract_z
  _atom_site_occupancy
  Mn  Mn1       1.0  0.06205  0.21767  0.23633  1.0000
  Mn  Mn2       1.0  0.1539  0.07262999999999997  0.17948  1.0000
  Mn  Mn3       1.0  0.01422000000000001  0.37561  0.3362  1.0000
  Mn  Mn4       1.0  0.93794  0.78233  0.76368  1.0000
  Mn  Mn5       1.0  0.84609  0.92738  0.82052  1.0000
  Mn  Mn6       1.0  0.98577  0.62439  0.6638  1.0000
  Mn  Mn7       1.0  0.0  0.0  0.0  1.0000
  H   H1        1.0  0.42955999999999994  0.24732  0.37613  1.0000
  H   H2        1.0  0.41415  0.05113999999999999  0.12615  1.0000
  H   H3        1.0  0.86112  0.8812599999999998  0.05255  1.0000
  H   H4        1.0  0.7699499999999998  0.08164  0.1556  1.0000
  H   H5        1.0  0.32927999999999996  0.78107  0.9515199999999999  1.0000
  H   H6        1.0  0.6831999999999999  0.79981  0.99731  1.0000
  H   H7        1.0  0.6957299999999997  0.48054  0.5473  1.0000
  H   H8        1.0  0.94402  0.74642  0.03051  1.0000
  H   H9        1.0  0.1933  0.84424  0.97186  1.0000
  H   H10       1.0  0.14864000000000005  0.1774  0.40554  1.0000
  H   H11       1.0  0.78378  0.67168  0.8075  1.0000
  H   H12       1.0  0.9198099999999999  0.08615  0.28207  1.0000
  H   H13       1.0  0.89415  0.27062  0.06179  1.0000
  H   H14       1.0  0.7516  0.52126  0.81454  1.0000
  H   H15       1.0  0.01640999999999998  0.21203999999999995  0.50105  1.0000
  H   H16       1.0  0.9809399999999999  0.52995  0.17015  1.0000
  H   H17       1.0  0.64491  0.62387  0.72082  1.0000
  H   H18       1.0  0.47823  0.52347  0.68747  1.0000
  H   H19       1.0  0.91782  0.94832  0.31647  1.0000
  H   H20       1.0  0.21574999999999994  0.28325  0.5212  1.0000
  H   H21       1.0  0.8210999999999998  0.30968000000000007  0.9467700000000001  1.0000
  H   H22       1.0  0.57044  0.75269  0.62388  1.0000
  H   H23       1.0  0.58585  0.94886  0.8738600000000001  1.0000
  H   H24       1.0  0.13887999999999995  0.11873999999999996  0.94745  1.0000
  H   H25       1.0  0.23004999999999998  0.91837  0.8444  1.0000
  H   H26       1.0  0.67071  0.21892999999999996  0.04849  1.0000
  H   H27       1.0  0.3168  0.20019  0.00269  1.0000
  H   H28       1.0  0.30426999999999993  0.51946  0.45271  1.0000
  H   H29       1.0  0.05596999999999993  0.25358  0.9694899999999999  1.0000
  H   H30       1.0  0.8067  0.15577  0.028139999999999995  1.0000
  H   H31       1.0  0.8513499999999999  0.8226000000000001  0.59446  1.0000
  H   H32       1.0  0.21621  0.32833  0.1925  1.0000
  H   H33       1.0  0.08018999999999998  0.9138499999999999  0.71794  1.0000
  H   H34       1.0  0.10585  0.72938  0.93821  1.0000
  H   H35       1.0  0.24839999999999998  0.4787399999999999  0.18546  1.0000
  H   H36       1.0  0.98358  0.7879599999999998  0.49896  1.0000
  H   H37       1.0  0.01905  0.47006  0.82985  1.0000
  H   H38       1.0  0.35508  0.37613  0.27919  1.0000
  H   H39       1.0  0.52177  0.47653  0.31253  1.0000
  H   H40       1.0  0.08216999999999994  0.05167999999999998  0.68354  1.0000
  H   H41       1.0  0.78424  0.7167499999999998  0.47881000000000007  1.0000
  H   H42       1.0  0.17889999999999992  0.69032  0.05323  1.0000
  C   C1        1.0  0.62894  0.89444  0.04611  1.0000
  C   C2        1.0  0.38220999999999994  0.25443999999999994  0.40739  1.0000
  C   C3        1.0  0.29508  0.94944  0.05141  1.0000
  C   C4        1.0  0.8273800000000001  0.98711  0.10706  1.0000
  C   C5        1.0  0.65323  0.97383  0.09168  1.0000
  C   C6        1.0  0.4190800000000001  0.3147  0.47104000000000007  1.0000
  C   C7        1.0  0.9752699999999995  0.23845  0.36886  1.0000
  C   C8        1.0  0.68163  0.55818  0.63684  1.0000
  C   C9        1.0  0.3944899999999999  0.9926099999999999  0.08726  1.0000
  C   C10       1.0  0.96713  0.15741  0.38926  1.0000
  C   C11       1.0  0.88826  0.80616  0.91081  1.0000
  C   C12       1.0  0.80286  0.9068999999999998  0.06325  1.0000
  C   C13       1.0  0.9320499999999998  0.03895  0.13766  1.0000
  C   C14       1.0  0.47017  0.9609999999999997  0.07267  1.0000
  C   C15       1.0  0.75242  0.01984  0.12162  1.0000
  C   C16       1.0  0.55467  0.4370099999999999  0.55788  1.0000
  C   C17       1.0  0.21373000000000003  0.9812400000000001  0.06755  1.0000
  C   C18       1.0  0.5753  0.010569999999999993  0.10809999999999999  1.0000
  C   C19       1.0  0.44577  0.88322  0.02454  1.0000
  C   C20       1.0  0.3458999999999999  0.84043  0.98872  1.0000
  C   C21       1.0  0.70432  0.8613299999999999  0.03252  1.0000
  C   C22       1.0  0.52416  0.84469  0.0112  1.0000
  C   C23       1.0  0.28394  0.20682  0.38325  1.0000
  C   C24       1.0  0.6487699999999998  0.49123  0.5781  1.0000
  C   C25       1.0  0.78325  0.61406  0.65776  1.0000
  C   C26       1.0  0.90196  0.698  0.98287  1.0000
  C   C27       1.0  0.9116399999999998  0.50358  0.05773  1.0000
  C   C28       1.0  0.27125  0.87464  0.00065  1.0000
  C   C29       1.0  0.22419999999999998  0.21615999999999994  0.42474  1.0000
  C   C30       1.0  0.35815  0.32539  0.51179  1.0000
  C   C31       1.0  0.23965999999999998  0.15132999999999994  0.31156  1.0000
  C   C32       1.0  0.52172  0.36838  0.49346000000000007  1.0000
  C   C33       1.0  0.93783  0.39668  0.12282000000000001  1.0000
  C   C34       1.0  0.81075  0.6545799999999999  0.85731  1.0000
  C   C35       1.0  0.8665399999999998  0.71818  0.91796  1.0000
  C   C36       1.0  0.9395999999999999  0.083  0.33687  1.0000
  C   C37       1.0  0.8326700000000001  0.55062  0.9253  1.0000
  C   C38       1.0  0.97127  0.3672  0.18883  1.0000
  C   C39       1.0  0.49353  0.44854  0.5982  1.0000
  C   C40       1.0  0.8857699999999997  0.61407  0.98688  1.0000
  C   C41       1.0  0.89577  0.33509  0.05945  1.0000
  C   C42       1.0  0.8637099999999998  0.44066  0.9949999999999999  1.0000
  C   C43       1.0  0.7937499999999997  0.5715  0.8608999999999999  1.0000
  C   C44       1.0  0.9941699999999999  0.15499  0.46011  1.0000
  C   C45       1.0  0.3938400000000001  0.39056  0.57876  1.0000
  C   C46       1.0  0.9464099999999998  0.48107  0.12194999999999999  1.0000
  C   C47       1.0  0.6195  0.57084  0.67592  1.0000
  C   C48       1.0  0.9682999999999998  0.00416000000000002  0.4266400000000001  1.0000
  C   C49       1.0  0.52673  0.51574  0.65725  1.0000
  C   C50       1.0  0.92637  0.59379  0.05639  1.0000
  C   C51       1.0  0.9966  0.07868000000000001  0.47917000000000004  1.0000
  C   C52       1.0  0.93915  0.0069100000000000055  0.35561  1.0000
  C   C53       1.0  0.26105999999999996  0.2745399999999999  0.48864  1.0000
  C   C54       1.0  0.85697  0.35645  0.99617  1.0000
  C   C55       1.0  0.96865  0.92167  0.44494000000000006  1.0000
  C   C56       1.0  0.8179999999999998  0.46091  0.92663  1.0000
  C   C57       1.0  0.37105  0.10556000000000006  0.9539  1.0000
  C   C58       1.0  0.6177799999999998  0.74557  0.59261  1.0000
  C   C59       1.0  0.70492  0.05056000000000001  0.9486  1.0000
  C   C60       1.0  0.17261  0.012889999999999945  0.89295  1.0000
  C   C61       1.0  0.34676999999999997  0.026169999999999968  0.9083199999999999  1.0000
  C   C62       1.0  0.5809199999999999  0.6852999999999998  0.52896  1.0000
  C   C63       1.0  0.024720000000000034  0.76155  0.63114  1.0000
  C   C64       1.0  0.31837  0.44182  0.36316  1.0000
  C   C65       1.0  0.60551  0.007400000000000019  0.91274  1.0000
  C   C66       1.0  0.032869999999999996  0.8426  0.61074  1.0000
  C   C67       1.0  0.11172999999999998  0.19385  0.0892  1.0000
  C   C68       1.0  0.19713000000000003  0.09309999999999996  0.93676  1.0000
  C   C69       1.0  0.06794000000000004  0.9610499999999997  0.86235  1.0000
  C   C70       1.0  0.5298199999999998  0.03899999999999996  0.9273399999999999  1.0000
  C   C71       1.0  0.24756999999999996  0.9801700000000001  0.87838  1.0000
  C   C72       1.0  0.44533  0.563  0.44212999999999997  1.0000
  C   C73       1.0  0.78626  0.01875999999999998  0.9324499999999999  1.0000
  C   C74       1.0  0.4247  0.9894299999999998  0.8919099999999999  1.0000
  C   C75       1.0  0.55423  0.11677999999999997  0.9754699999999998  1.0000
  C   C76       1.0  0.65409  0.15957  0.01128  1.0000
  C   C77       1.0  0.29567000000000004  0.13866999999999996  0.9674800000000001  1.0000
  C   C78       1.0  0.47583000000000003  0.15531000000000006  0.9888  1.0000
  C   C79       1.0  0.71606  0.79318  0.61676  1.0000
  C   C80       1.0  0.35123  0.50878  0.4219  1.0000
  C   C81       1.0  0.21674  0.38595  0.34225  1.0000
  C   C82       1.0  0.09803  0.302  0.01713  1.0000
  C   C83       1.0  0.08836000000000001  0.49642  0.94228  1.0000
  C   C84       1.0  0.72875  0.12537  0.99935  1.0000
  C   C85       1.0  0.77579  0.78384  0.57527  1.0000
  C   C86       1.0  0.64184  0.67461  0.4882099999999999  1.0000
  C   C87       1.0  0.76034  0.84868  0.68844  1.0000
  C   C88       1.0  0.47828  0.63162  0.50654  1.0000
  C   C89       1.0  0.06215999999999997  0.60332  0.87719  1.0000
  C   C90       1.0  0.18923999999999994  0.34542  0.14269  1.0000
  C   C91       1.0  0.13344999999999999  0.28182999999999997  0.08204  1.0000
  C   C92       1.0  0.06040000000000002  0.917  0.66313  1.0000
  C   C93       1.0  0.16733  0.44937999999999984  0.0747  1.0000
  C   C94       1.0  0.028730000000000047  0.6328  0.81118  1.0000
  C   C95       1.0  0.50647  0.55147  0.40181  1.0000
  C   C96       1.0  0.11421999999999999  0.38593  0.01312  1.0000
  C   C97       1.0  0.10422999999999998  0.66492  0.94055  1.0000
  C   C98       1.0  0.13629  0.55935  0.005  1.0000
  C   C99       1.0  0.20625  0.42851  0.1391  1.0000
  C   C100      1.0  0.005819999999999981  0.84501  0.53989  1.0000
  C   C101      1.0  0.60615  0.6094499999999998  0.42124  1.0000
  C   C102      1.0  0.053589999999999964  0.51893  0.87805  1.0000
  C   C103      1.0  0.38049999999999984  0.4291599999999999  0.32408  1.0000
  C   C104      1.0  0.03170000000000003  0.99584  0.57336  1.0000
  C   C105      1.0  0.47326  0.48427  0.34275  1.0000
  C   C106      1.0  0.07362000000000002  0.40621  0.94362  1.0000
  C   C107      1.0  0.003389999999999983  0.92133  0.52084  1.0000
  C   C108      1.0  0.06084999999999998  0.9930899999999999  0.64439  1.0000
  C   C109      1.0  0.73893  0.72546  0.51137  1.0000
  C   C110      1.0  0.14302999999999996  0.6435499999999997  0.00383  1.0000
  C   C111      1.0  0.03135  0.07832999999999997  0.55506  1.0000
  C   C112      1.0  0.18198999999999999  0.5390899999999998  0.07338  1.0000
  O   O1        1.0  0.98071  0.24103999999999992  0.30717  1.0000
  O   O2        1.0  0.94883  0.10726  0.18126  1.0000
  O   O3        1.0  0.23770999999999998  0.031020000000000002  0.12752  1.0000
  O   O4        1.0  0.14244  0.13164  0.28184  1.0000
  O   O5        1.0  0.92158  0.86582  0.96453  1.0000
  O   O6        1.0  0.9860099999999999  0.29449000000000003  0.18239  1.0000
  O   O7        1.0  0.12638  0.95594  0.02197  1.0000
  O   O8        1.0  0.8693899999999998  0.8159099999999998  0.84681  1.0000
  O   O9        1.0  0.83809  0.59129  0.62344  1.0000
  O   O10       1.0  0.0002700000000000015  0.011720000000000006  0.11896  1.0000
  O   O11       1.0  0.81041  0.67888  0.70754  1.0000
  O   O12       1.0  0.9802399999999997  0.30652  0.40921  1.0000
  O   O13       1.0  0.29112  0.12512999999999996  0.27779  1.0000
  O   O14       1.0  0.59694  0.07966  0.14874  1.0000
  O   O15       1.0  0.50352  0.77411  0.97314  1.0000
  O   O16       1.0  0.98008  0.41571999999999987  0.24718  1.0000
  O   O17       1.0  0.57681  0.3574999999999999  0.45957  1.0000
  O   O18       1.0  0.34244  0.39678  0.6162  1.0000
  O   O19       1.0  0.97143  0.64966  0.11024999999999999  1.0000
  O   O20       1.0  0.9402999999999999  0.85634  0.39894  1.0000
  O   O21       1.0  0.76983  0.40524000000000004  0.8730900000000001  1.0000
  O   O22       1.0  0.019290000000000005  0.75896  0.69283  1.0000
  O   O23       1.0  0.05117000000000003  0.8927500000000002  0.81875  1.0000
  O   O24       1.0  0.7622799999999998  0.96898  0.87248  1.0000
  O   O25       1.0  0.85755  0.86836  0.71816  1.0000
  O   O26       1.0  0.07842  0.13418  0.03548  1.0000
  O   O27       1.0  0.013989999999999976  0.70551  0.81761  1.0000
  O   O28       1.0  0.87361  0.044059999999999946  0.97804  1.0000
  O   O29       1.0  0.13061  0.18409  0.15319  1.0000
  O   O30       1.0  0.1619  0.4087199999999999  0.37657  1.0000
  O   O31       1.0  0.9997199999999999  0.98829  0.88105  1.0000
  O   O32       1.0  0.18959  0.32112  0.29247  1.0000
  O   O33       1.0  0.01975000000000001  0.69348  0.5908  1.0000
  O   O34       1.0  0.7088699999999999  0.8748699999999998  0.72221  1.0000
  O   O35       1.0  0.40304999999999985  0.9203399999999998  0.85126  1.0000
  O   O36       1.0  0.49648  0.2259  0.02687  1.0000
  O   O37       1.0  0.019920000000000035  0.58428  0.75282  1.0000
  O   O38       1.0  0.42318999999999996  0.6424999999999998  0.54044  1.0000
  O   O39       1.0  0.65756  0.60322  0.38381  1.0000
  O   O40       1.0  0.02856999999999999  0.35034  0.88975  1.0000
  O   O41       1.0  0.05968999999999999  0.14366  0.60107  1.0000
  O   O42       1.0  0.2301699999999999  0.5947699999999998  0.12691  1.0000
