data_image0
_chemical_formula_structural       Cu4H72C94O20
_chemical_formula_sum              "Cu4 H72 C94 O20"
_cell_length_a       14.73422
_cell_length_b       14.73495
_cell_length_c       19.112750000000002
_cell_angle_alpha    91.51566
_cell_angle_beta     91.51653
_cell_angle_gamma    90.25668000000002

_symmetry_space_group_name_H-M    'P 1'
_symmetry_Int_Tables_number       1

loop_
  _symmetry_equiv_pos_as_xyz
  'x,y,z'

loop_
  _atom_site_type_symbol
  _atom_site_label
  _atom_site_symmetry_multiplicity
  _atom_site_fract_x
  _atom_site_fract_y
  _atom_site_fract_z
  _atom_site_occupancy
  Cu  Cu1       1.0  0.45674  0.47593000000000013  0.54988  1.0000
  Cu  Cu2       1.0  0.47593999999999986  0.4567400000000001  0.04988  1.0000
  Cu  Cu3       1.0  0.52405  0.54326  0.9501099999999999  1.0000
  Cu  Cu4       1.0  0.5432599999999997  0.52407  0.45012  1.0000
  H   H1        1.0  0.11968  0.13249000000000002  0.80885  1.0000
  H   H2        1.0  0.5503  0.18009000000000006  0.98041  1.0000
  H   H3        1.0  0.4497  0.8199100000000002  0.01959  1.0000
  H   H4        1.0  0.11589  0.8917600000000002  0.16449  1.0000
  H   H5        1.0  0.32393  0.23782000000000003  0.47203  1.0000
  H   H6        1.0  0.012489999999999996  0.02474000000000001  0.36295  1.0000
  H   H7        1.0  0.90401  0.44525  0.7488  1.0000
  H   H8        1.0  0.41971  0.9908500000000002  0.31207  1.0000
  H   H9        1.0  0.0312  0.9035700000000002  0.82165  1.0000
  H   H10       1.0  0.08695999999999997  0.54681  0.77134  1.0000
  H   H11       1.0  0.4452499999999998  0.9040300000000002  0.24879999999999997  1.0000
  H   H12       1.0  0.2850799999999999  0.6411000000000002  0.13749  1.0000
  H   H13       1.0  0.46816999999999986  0.31807  0.29128  1.0000
  H   H14       1.0  0.9688  0.09643000000000003  0.17835  1.0000
  H   H15       1.0  0.00915  0.5803000000000003  0.18792  1.0000
  H   H16       1.0  0.2442  0.11679000000000002  0.40058  1.0000
  H   H17       1.0  0.9035499999999997  0.031180000000000006  0.32166  1.0000
  H   H18       1.0  0.9908399999999998  0.4197  0.81207  1.0000
  H   H19       1.0  0.78847  0.22604000000000005  0.80611  1.0000
  H   H20       1.0  0.57111  0.0052  0.20414  1.0000
  H   H21       1.0  0.10824999999999997  0.8841000000000002  0.33552  1.0000
  H   H22       1.0  0.4288799999999999  0.9948000000000002  0.79586  1.0000
  H   H23       1.0  0.6819399999999998  0.53184  0.20871  1.0000
  H   H24       1.0  0.67606  0.76218  0.52796  1.0000
  H   H25       1.0  0.38907  0.19674000000000005  0.21944  1.0000
  H   H26       1.0  0.02176  0.4107500000000001  0.20656  1.0000
  H   H27       1.0  0.19672999999999993  0.3890700000000001  0.71944  1.0000
  H   H28       1.0  0.88184  0.01539  0.19073  1.0000
  H   H29       1.0  0.8803199999999998  0.8675200000000002  0.19115  1.0000
  H   H30       1.0  0.61891  0.04608  0.91977  1.0000
  H   H31       1.0  0.9874999999999998  0.9752600000000001  0.63705  1.0000
  H   H32       1.0  0.13248  0.11967  0.30887  1.0000
  H   H33       1.0  0.11816  0.98461  0.80927  1.0000
  H   H34       1.0  0.046069999999999986  0.61894  0.4197600000000001  1.0000
  H   H35       1.0  0.22605999999999996  0.7884700000000002  0.30612  1.0000
  H   H36       1.0  0.6109299999999998  0.8032600000000002  0.78056  1.0000
  H   H37       1.0  0.4107299999999999  0.02176  0.70655  1.0000
  H   H38       1.0  0.7558  0.8832100000000003  0.59942  1.0000
  H   H39       1.0  0.9539199999999998  0.38106  0.58024  1.0000
  H   H40       1.0  0.53182  0.68194  0.70872  1.0000
  H   H41       1.0  0.35894000000000004  0.7149200000000002  0.36252  1.0000
  H   H42       1.0  0.7149199999999998  0.35891  0.8625100000000001  1.0000
  H   H43       1.0  0.7622000000000001  0.6760800000000002  0.02796  1.0000
  H   H44       1.0  0.8917499999999998  0.11590000000000003  0.66447  1.0000
  H   H45       1.0  0.77393  0.21153000000000005  0.69388  1.0000
  H   H46       1.0  0.81991  0.4496900000000001  0.51959  1.0000
  H   H47       1.0  0.02475  0.012520000000000002  0.86293  1.0000
  H   H48       1.0  0.5547399999999998  0.09598000000000002  0.7512  1.0000
  H   H49       1.0  0.9947999999999999  0.4289100000000001  0.29586  1.0000
  H   H50       1.0  0.91304  0.4531900000000001  0.22866  1.0000
  H   H51       1.0  0.23779999999999996  0.3239200000000001  0.97204  1.0000
  H   H52       1.0  0.18008  0.55031  0.48041  1.0000
  H   H53       1.0  0.8841  0.10825000000000003  0.83551  1.0000
  H   H54       1.0  0.58927  0.97824  0.29345  1.0000
  H   H55       1.0  0.8675099999999998  0.8803300000000003  0.69113  1.0000
  H   H56       1.0  0.9845699999999997  0.11814000000000002  0.30928  1.0000
  H   H57       1.0  0.80326  0.61093  0.28056  1.0000
  H   H58       1.0  0.9752499999999997  0.98748  0.13707  1.0000
  H   H59       1.0  0.38109  0.9539300000000001  0.08023  1.0000
  H   H60       1.0  0.21153  0.7739600000000002  0.19388  1.0000
  H   H61       1.0  0.97824  0.5892500000000002  0.79344  1.0000
  H   H62       1.0  0.54683  0.08696000000000002  0.27134  1.0000
  H   H63       1.0  0.09645  0.9688200000000002  0.67834  1.0000
  H   H64       1.0  0.31806  0.46816000000000013  0.79129  1.0000
  H   H65       1.0  0.64106  0.28509  0.63748  1.0000
  H   H66       1.0  0.01543  0.8818600000000001  0.69071  1.0000
  H   H67       1.0  0.11675999999999999  0.2442  0.90057  1.0000
  H   H68       1.0  0.8832399999999999  0.7558000000000002  0.09943  1.0000
  H   H69       1.0  0.09599  0.55475  0.2512  1.0000
  H   H70       1.0  0.005199999999999999  0.57109  0.70414  1.0000
  H   H71       1.0  0.45317  0.9130400000000002  0.72866  1.0000
  H   H72       1.0  0.58029  0.009159999999999996  0.68793  1.0000
  C   C1        1.0  0.99093  0.009080000000000006  0.74999  1.0000
  C   C2        1.0  0.0144  0.54439  0.75689  1.0000
  C   C3        1.0  0.017809999999999996  0.30026000000000025  0.71689  1.0000
  C   C4        1.0  0.4183  0.6413100000000003  0.04477  1.0000
  C   C5        1.0  0.64131  0.41832000000000014  0.54477  1.0000
  C   C6        1.0  0.7361799999999997  0.21557000000000007  0.8441699999999999  1.0000
  C   C7        1.0  0.4482399999999999  0.97757  0.26026  1.0000
  C   C8        1.0  0.72666  0.5806000000000002  0.18517  1.0000
  C   C9        1.0  0.7422099999999998  0.9203400000000003  0.73708  1.0000
  C   C10       1.0  0.85076  0.69012  0.19539  1.0000
  C   C11       1.0  0.9553399999999997  0.02388  0.18506  1.0000
  C   C12       1.0  0.70845  0.12643  0.85833  1.0000
  C   C13       1.0  0.6019399999999998  0.18926  0.9415800000000001  1.0000
  C   C14       1.0  0.3980599999999999  0.8107500000000002  0.05842  1.0000
  C   C15       1.0  0.58058  0.7266600000000001  0.68517  1.0000
  C   C16       1.0  0.8387299999999998  0.7072600000000002  0.12358  1.0000
  C   C17       1.0  0.30459999999999987  0.7096700000000002  0.12433  1.0000
  C   C18       1.0  0.37245999999999996  0.7222600000000002  0.07545  1.0000
  C   C19       1.0  0.9283299999999999  0.8363600000000001  0.22724  1.0000
  C   C20       1.0  0.6625299999999997  0.7715300000000003  0.58332  1.0000
  C   C21       1.0  0.05463999999999999  0.8450600000000001  0.30828  1.0000
  C   C22       1.0  0.15494  0.9453600000000002  0.19173  1.0000
  C   C23       1.0  0.78441  0.26381  0.65582  1.0000
  C   C24       1.0  0.33747  0.22847000000000003  0.41668  1.0000
  C   C25       1.0  0.26382  0.78444  0.15583  1.0000
  C   C26       1.0  0.41942  0.2733500000000001  0.31482  1.0000
  C   C27       1.0  0.9855999999999998  0.45562  0.24310999999999997  1.0000
  C   C28       1.0  0.11435999999999996  0.64083  0.4079  1.0000
  C   C29       1.0  0.63898  0.5565  0.07105  1.0000
  C   C30       1.0  0.16364  0.07166000000000002  0.27277  1.0000
  C   C31       1.0  0.5444  0.014400000000000003  0.25689  1.0000
  C   C32       1.0  0.3591899999999999  0.88565  0.09209  1.0000
  C   C33       1.0  0.5517599999999998  0.02243  0.73973  1.0000
  C   C34       1.0  0.7715399999999998  0.66255  0.08331  1.0000
  C   C35       1.0  0.99501  0.8890300000000002  0.26221  1.0000
  C   C36       1.0  0.88564  0.35918  0.5921  1.0000
  C   C37       1.0  0.6408099999999998  0.11435  0.9079000000000002  1.0000
  C   C38       1.0  0.07965999999999997  0.25779  0.76291  1.0000
  C   C39       1.0  0.12645  0.7084600000000002  0.35833  1.0000
  C   C40       1.0  0.11096999999999999  0.004980000000000003  0.23780000000000004  1.0000
  C   C41       1.0  0.69973  0.98218  0.78311  1.0000
  C   C42       1.0  0.92033  0.74221  0.23708000000000004  1.0000
  C   C43       1.0  0.81074  0.39805  0.55842  1.0000
  C   C44       1.0  0.35869  0.58169  0.45521999999999996  1.0000
  C   C45       1.0  0.27334  0.4194100000000001  0.81483  1.0000
  C   C46       1.0  0.8363499999999998  0.9283400000000002  0.72723  1.0000
  C   C47       1.0  0.29274  0.16129  0.37642  1.0000
  C   C48       1.0  0.62754  0.27775  0.9245500000000001  1.0000
  C   C49       1.0  0.59938  0.7142100000000002  0.61391  1.0000
  C   C50       1.0  0.84506  0.054640000000000015  0.80827  1.0000
  C   C51       1.0  0.94536  0.15494000000000005  0.69172  1.0000
  C   C52       1.0  0.79437  0.62515  0.22531  1.0000
  C   C53       1.0  0.29155  0.8735800000000002  0.14166  1.0000
  C   C54       1.0  0.7072599999999996  0.8387100000000001  0.62358  1.0000
  C   C55       1.0  0.62514  0.79436  0.72531  1.0000
  C   C56       1.0  0.29035  0.69541  0.37567  1.0000
  C   C57       1.0  0.36101  0.44351  0.92894  1.0000
  C   C58       1.0  0.009070000000000002  0.9909300000000002  0.25001  1.0000
  C   C59       1.0  0.14924  0.3098800000000001  0.80461  1.0000
  C   C60       1.0  0.7222499999999997  0.3724500000000001  0.57544  1.0000
  C   C61       1.0  0.27775  0.6275500000000003  0.42456  1.0000
  C   C62       1.0  0.24875999999999998  0.94886  0.18154  1.0000
  C   C63       1.0  0.8890299999999999  0.9950200000000002  0.76219  1.0000
  C   C64       1.0  0.22846  0.3374600000000001  0.9166800000000002  1.0000
  C   C65       1.0  0.75123  0.051150000000000015  0.81845  1.0000
  C   C66       1.0  0.9761  0.04464000000000001  0.31496  1.0000
  C   C67       1.0  0.004989999999999998  0.11097000000000003  0.73779  1.0000
  C   C68       1.0  0.20562999999999995  0.37486000000000014  0.77469  1.0000
  C   C69       1.0  0.37486  0.20564000000000004  0.27469  1.0000
  C   C70       1.0  0.40062  0.28579  0.38609  1.0000
  C   C71       1.0  0.0239  0.9553600000000002  0.68504  1.0000
  C   C72       1.0  0.87355  0.29154  0.64167  1.0000
  C   C73       1.0  0.30027  0.017820000000000006  0.21689000000000003  1.0000
  C   C74       1.0  0.69012  0.85076  0.69538  1.0000
  C   C75       1.0  0.28578  0.4006000000000001  0.88609  1.0000
  C   C76       1.0  0.5817  0.35870000000000013  0.95523  1.0000
  C   C77       1.0  0.70964  0.3046  0.62433  1.0000
  C   C78       1.0  0.051160000000000004  0.7512400000000002  0.31846  1.0000
  C   C79       1.0  0.30988  0.14925  0.30461  1.0000
  C   C80       1.0  0.25779  0.07967  0.26292  1.0000
  C   C81       1.0  0.02244  0.5517700000000002  0.23973000000000003  1.0000
  C   C82       1.0  0.5564699999999998  0.6389900000000002  0.57105  1.0000
  C   C83       1.0  0.7142199999999999  0.5994  0.11391  1.0000
  C   C84       1.0  0.18926  0.6019600000000003  0.44158  1.0000
  C   C85       1.0  0.07166999999999997  0.16364000000000004  0.77276  1.0000
  C   C86       1.0  0.04465  0.97612  0.81494  1.0000
  C   C87       1.0  0.4556  0.9856000000000003  0.74311  1.0000
  C   C88       1.0  0.9821899999999998  0.69974  0.28311  1.0000
  C   C89       1.0  0.94884  0.24876000000000004  0.68154  1.0000
  C   C90       1.0  0.16127  0.29274  0.8764200000000001  1.0000
  C   C91       1.0  0.4435299999999999  0.3610100000000001  0.42895  1.0000
  C   C92       1.0  0.9775599999999998  0.44823000000000013  0.76026  1.0000
  C   C93       1.0  0.6954  0.29033  0.8756599999999999  1.0000
  C   C94       1.0  0.21559  0.7361900000000002  0.34417  1.0000
  O   O1        1.0  0.41300999999999993  0.49998000000000004  0.8992900000000001  1.0000
  O   O2        1.0  0.4135399999999999  0.56838  0.07978  1.0000
  O   O3        1.0  0.58699  0.50002  0.10071  1.0000
  O   O4        1.0  0.60716  0.9767700000000002  0.79232  1.0000
  O   O5        1.0  0.6503499999999998  0.4592400000000001  0.48702  1.0000
  O   O6        1.0  0.36869999999999997  0.4186200000000001  0.9927400000000001  1.0000
  O   O7        1.0  0.5683799999999999  0.41354000000000013  0.57978  1.0000
  O   O8        1.0  0.45918  0.6503400000000003  0.9869999999999999  1.0000
  O   O9        1.0  0.97678  0.6071700000000002  0.29232  1.0000
  O   O10       1.0  0.4999999999999999  0.5869800000000002  0.60071  1.0000
  O   O11       1.0  0.6312999999999998  0.5813800000000001  0.00726  1.0000
  O   O12       1.0  0.4316199999999999  0.58646  0.42022  1.0000
  O   O13       1.0  0.54081  0.34967  0.013  1.0000
  O   O14       1.0  0.58137  0.63131  0.50726  1.0000
  O   O15       1.0  0.5864499999999998  0.43162  0.92022  1.0000
  O   O16       1.0  0.34965  0.54076  0.51298  1.0000
  O   O17       1.0  0.39284  0.023230000000000008  0.20768  1.0000
  O   O18       1.0  0.41863  0.36870000000000014  0.49274  1.0000
  O   O19       1.0  0.02322  0.39283  0.70768  1.0000
  O   O20       1.0  0.4999999999999999  0.4130200000000001  0.39929  1.0000
