data_image0
_chemical_formula_structural       Sm4Zn6H48C48O60
_chemical_formula_sum              "Sm4 Zn6 H48 C48 O60"
_cell_length_a       14.93538
_cell_length_b       14.93351
_cell_length_c       15.03993
_cell_angle_alpha    90.00731000000002
_cell_angle_beta     89.97607
_cell_angle_gamma    120.09055999999998

_symmetry_space_group_name_H-M    'P 1'
_symmetry_Int_Tables_number       1

loop_
  _symmetry_equiv_pos_as_xyz
  'x,y,z'

loop_
  _atom_site_type_symbol
  _atom_site_label
  _atom_site_symmetry_multiplicity
  _atom_site_fract_x
  _atom_site_fract_y
  _atom_site_fract_z
  _atom_site_occupancy
  Sm  Sm1       1.0  0.33264000000000005  0.6676300000000001  0.24993999999999994  1.0000
  Sm  Sm2       1.0  0.6667800000000003  0.33329  0.24830999999999998  1.0000
  Sm  Sm3       1.0  0.66671  0.33344  0.7517499999999998  1.0000
  Sm  Sm4       1.0  0.33506000000000014  0.66847  0.74806  1.0000
  Zn  Zn1       1.0  0.50005  0.00013  0.00216  1.0000
  Zn  Zn2       1.0  5.000000000000241e-05  0.49984  0.99817  1.0000
  Zn  Zn3       1.0  0.50002  0.50011  0.0003  1.0000
  Zn  Zn4       1.0  0.9997  0.49975  0.5005999999999999  1.0000
  Zn  Zn5       1.0  0.50019  0.00033  0.49985  1.0000
  Zn  Zn6       1.0  0.50004  0.49979000000000007  0.4986699999999999  1.0000
  H   H1        1.0  0.27829000000000004  0.91994  0.23912  1.0000
  H   H2        1.0  0.19840000000000005  0.8378400000000001  0.15087  1.0000
  H   H3        1.0  0.08036000000000003  0.36177  0.23843  1.0000
  H   H4        1.0  0.16264000000000003  0.36027  0.15204  1.0000
  H   H5        1.0  0.63867  0.7183100000000001  0.23723999999999995  1.0000
  H   H6        1.0  0.63988  0.80242  0.15142  1.0000
  H   H7        1.0  0.7196000000000002  0.08003  0.23726999999999995  1.0000
  H   H8        1.0  0.80338  0.16299  0.15130999999999997  1.0000
  H   H9        1.0  0.9210199999999998  0.6384  0.23527999999999993  1.0000
  H   H10       1.0  0.8376799999999999  0.6405499999999998  0.15047999999999995  1.0000
  H   H11       1.0  0.36148  0.28138  0.23708999999999994  1.0000
  H   H12       1.0  0.35925  0.19646000000000002  0.15157  1.0000
  H   H13       1.0  0.9198400000000002  0.28091  0.26266  1.0000
  H   H14       1.0  0.8368  0.1972  0.3487099999999999  1.0000
  H   H15       1.0  0.36062  0.08003  0.26289  1.0000
  H   H16       1.0  0.3604  0.16328  0.3489099999999999  1.0000
  H   H17       1.0  0.71971  0.6388300000000001  0.2618  1.0000
  H   H18       1.0  0.80378  0.64024  0.34777999999999987  1.0000
  H   H19       1.0  0.07946000000000004  0.71925  0.26178  1.0000
  H   H20       1.0  0.16096000000000005  0.80148  0.3490299999999999  1.0000
  H   H21       1.0  0.63816  0.91952  0.26108  1.0000
  H   H22       1.0  0.6406  0.8380200000000001  0.3476499999999999  1.0000
  H   H23       1.0  0.28086  0.36121  0.26203  1.0000
  H   H24       1.0  0.19817999999999997  0.36082999999999993  0.34894  1.0000
  H   H25       1.0  0.71744  0.07937000000000001  0.7645199999999998  1.0000
  H   H26       1.0  0.8030800000000001  0.16278  0.8493099999999998  1.0000
  H   H27       1.0  0.9198099999999999  0.63977  0.76257  1.0000
  H   H28       1.0  0.83698  0.64069  0.84861  1.0000
  H   H29       1.0  0.36172  0.28177  0.7632599999999998  1.0000
  H   H30       1.0  0.3592  0.19659  0.84862  1.0000
  H   H31       1.0  0.2822400000000001  0.9200100000000001  0.76306  1.0000
  H   H32       1.0  0.19809999999999994  0.83681  0.8488899999999998  1.0000
  H   H33       1.0  0.07997999999999997  0.36088  0.7626399999999998  1.0000
  H   H34       1.0  0.16277000000000005  0.36103  0.849  1.0000
  H   H35       1.0  0.6394300000000002  0.7198100000000001  0.76245  1.0000
  H   H36       1.0  0.63926  0.8023200000000001  0.84898  1.0000
  H   H37       1.0  0.08048999999999999  0.71869  0.73857  1.0000
  H   H38       1.0  0.16201  0.80143  0.6514499999999998  1.0000
  H   H39       1.0  0.63975  0.9205  0.73919  1.0000
  H   H40       1.0  0.6411700000000002  0.8393800000000001  0.65192  1.0000
  H   H41       1.0  0.28093  0.36134  0.7389899999999998  1.0000
  H   H42       1.0  0.19698  0.35892  0.65252  1.0000
  H   H43       1.0  0.91934  0.28083  0.73778  1.0000
  H   H44       1.0  0.83637  0.19664  0.6519399999999997  1.0000
  H   H45       1.0  0.36048  0.08002  0.73715  1.0000
  H   H46       1.0  0.36043  0.16323  0.65115  1.0000
  H   H47       1.0  0.71835  0.63878  0.73691  1.0000
  H   H48       1.0  0.80221  0.63976  0.6509299999999998  1.0000
  C   C1        1.0  0.35688000000000003  0.8775000000000001  0.14238  1.0000
  C   C2        1.0  0.2620400000000001  0.85327  0.19680999999999996  1.0000
  C   C3        1.0  0.12639000000000006  0.48151  0.13999  1.0000
  C   C4        1.0  0.14803000000000005  0.41042  0.19633  1.0000
  C   C5        1.0  0.5188  0.64476  0.13838999999999996  1.0000
  C   C6        1.0  0.5898400000000003  0.73725  0.19548999999999994  1.0000
  C   C7        1.0  0.64571  0.12579  0.13876999999999998  1.0000
  C   C8        1.0  0.73831  0.1478  0.1955  1.0000
  C   C9        1.0  0.87294  0.5187  0.13642999999999994  1.0000
  C   C10       1.0  0.85256  0.59001  0.19396999999999995  1.0000
  C   C11       1.0  0.4808700000000001  0.35402  0.13834  1.0000
  C   C12       1.0  0.4098  0.2617  0.19538  1.0000
  C   C13       1.0  0.8735899999999999  0.35495999999999994  0.3604099999999999  1.0000
  C   C14       1.0  0.8519300000000002  0.26201  0.30429  1.0000
  C   C15       1.0  0.48121  0.12621  0.3604099999999999  1.0000
  C   C16       1.0  0.4099000000000001  0.14796  0.30442999999999987  1.0000
  C   C17       1.0  0.64596  0.51886  0.36  1.0000
  C   C18       1.0  0.73888  0.59016  0.30353  1.0000
  C   C19       1.0  0.12429999999999998  0.64365  0.35967  1.0000
  C   C20       1.0  0.14665000000000009  0.73731  0.3040699999999999  1.0000
  C   C21       1.0  0.51926  0.87391  0.36019  1.0000
  C   C22       1.0  0.59  0.85202  0.3034799999999999  1.0000
  C   C23       1.0  0.35635  0.4814  0.36017  1.0000
  C   C24       1.0  0.26283  0.41042  0.30423  1.0000
  C   C25       1.0  0.6458200000000002  0.12721  0.8634599999999998  1.0000
  C   C26       1.0  0.73758  0.14781  0.8058599999999998  1.0000
  C   C27       1.0  0.87381  0.52  0.8611899999999998  1.0000
  C   C28       1.0  0.8520000000000004  0.59077  0.8044  1.0000
  C   C29       1.0  0.48107  0.35398  0.8620599999999998  1.0000
  C   C30       1.0  0.4099000000000001  0.26184  0.80487  1.0000
  C   C31       1.0  0.3554  0.87277  0.8612899999999998  1.0000
  C   C32       1.0  0.26297  0.85186  0.8045499999999998  1.0000
  C   C33       1.0  0.12579  0.48194  0.85987  1.0000
  C   C34       1.0  0.14779000000000003  0.41052  0.8042299999999999  1.0000
  C   C35       1.0  0.51816  0.64387  0.8598999999999998  1.0000
  C   C36       1.0  0.5898400000000003  0.73768  0.80426  1.0000
  C   C37       1.0  0.12523  0.64363  0.64013  1.0000
  C   C38       1.0  0.14773  0.7371  0.6961699999999997  1.0000
  C   C39       1.0  0.5205099999999999  0.8766600000000001  0.6403399999999998  1.0000
  C   C40       1.0  0.59092  0.8535899999999998  0.6964399999999997  1.0000
  C   C41       1.0  0.3546700000000001  0.48041  0.63964  1.0000
  C   C42       1.0  0.26197  0.4096000000000001  0.69647  1.0000
  C   C43       1.0  0.8728100000000001  0.35433  0.6398  1.0000
  C   C44       1.0  0.8513200000000001  0.26153  0.69621  1.0000
  C   C45       1.0  0.4812800000000002  0.12626  0.63963  1.0000
  C   C46       1.0  0.40991000000000005  0.14799  0.6956699999999998  1.0000
  C   C47       1.0  0.6445900000000002  0.51794  0.6393399999999998  1.0000
  C   C48       1.0  0.73748  0.58987  0.6954499999999999  1.0000
  O   O1        1.0  0.39365  0.81756  0.14713999999999997  1.0000
  O   O2        1.0  0.38886  0.95824  0.09458  1.0000
  O   O3        1.0  0.18903000000000003  0.57793  0.14305999999999994  1.0000
  O   O4        1.0  0.044610000000000004  0.43388  0.0933  1.0000
  O   O5        1.0  0.42282  0.61169  0.13907  1.0000
  O   O6        1.0  0.5678  0.61083  0.09308999999999998  1.0000
  O   O7        1.0  0.61211  0.1884  0.13913999999999996  1.0000
  O   O8        1.0  0.61131  0.0426  0.09388999999999997  1.0000
  O   O9        1.0  0.8105400000000001  0.42235000000000006  0.13875999999999994  1.0000
  O   O10       1.0  0.95461  0.5669  0.08940999999999998  1.0000
  O   O11       1.0  0.57709  0.38699  0.13882999999999995  1.0000
  O   O12       1.0  0.4326  0.38886  0.09349999999999997  1.0000
  O   O13       1.0  0.8117400000000002  0.38935  0.35729  1.0000
  O   O14       1.0  0.95539  0.38857  0.4071499999999999  1.0000
  O   O15       1.0  0.57757  0.18805  0.35729  1.0000
  O   O16       1.0  0.43293  0.04424  0.4070699999999999  1.0000
  O   O17       1.0  0.61139  0.42247  0.3571699999999999  1.0000
  O   O18       1.0  0.6123900000000002  0.56709  0.40667  1.0000
  O   O19       1.0  0.18486000000000008  0.60776  0.35577  1.0000
  O   O20       1.0  0.04342  0.61121  0.40749  1.0000
  O   O21       1.0  0.4227699999999999  0.8118  0.3571699999999999  1.0000
  O   O22       1.0  0.5672100000000001  0.95529  0.4072099999999999  1.0000
  O   O23       1.0  0.39171  0.57778  0.3573199999999999  1.0000
  O   O24       1.0  0.38886  0.43218  0.40688  1.0000
  O   O25       1.0  0.61183  0.18943  0.8612899999999998  1.0000
  O   O26       1.0  0.6123000000000002  0.04553  0.9104299999999997  1.0000
  O   O27       1.0  0.81082  0.42363  0.8608099999999997  1.0000
  O   O28       1.0  0.957  0.56853  0.9060199999999998  1.0000
  O   O29       1.0  0.57732  0.3871800000000001  0.8611799999999997  1.0000
  O   O30       1.0  0.43280000000000013  0.38852  0.9072999999999998  1.0000
  O   O31       1.0  0.39073000000000013  0.81163  0.8567399999999997  1.0000
  O   O32       1.0  0.38756  0.95252  0.9103399999999998  1.0000
  O   O33       1.0  0.18699000000000002  0.57823  0.8568499999999998  1.0000
  O   O34       1.0  0.04375  0.43272  0.90659  1.0000
  O   O35       1.0  0.42184999999999995  0.60895  0.85681  1.0000
  O   O36       1.0  0.5669  0.61079  0.9064899999999998  1.0000
  O   O37       1.0  0.1859800000000001  0.60789  0.64304  1.0000
  O   O38       1.0  0.04392000000000002  0.61128  0.5929499999999998  1.0000
  O   O39       1.0  0.42366  0.81603  0.64395  1.0000
  O   O40       1.0  0.5691  0.95756  0.59278  1.0000
  O   O41       1.0  0.38868  0.57679  0.6427199999999997  1.0000
  O   O42       1.0  0.38834  0.43277000000000004  0.59264  1.0000
  O   O43       1.0  0.8109400000000002  0.38870000000000005  0.6427599999999999  1.0000
  O   O44       1.0  0.95465  0.38799  0.59303  1.0000
  O   O45       1.0  0.5776400000000003  0.18801  0.64279  1.0000
  O   O46       1.0  0.43294000000000016  0.04438  0.5928599999999999  1.0000
  O   O47       1.0  0.6106400000000001  0.42168  0.64265  1.0000
  O   O48       1.0  0.6107  0.56571  0.5924699999999998  1.0000
  O   O49       1.0  0.23511000000000012  0.76484  0.25035  1.0000
  O   O50       1.0  0.23637  0.47188  0.25010999999999994  1.0000
  O   O51       1.0  0.52851  0.7635  0.24996999999999994  1.0000
  O   O52       1.0  0.76438  0.23545  0.24975999999999995  1.0000
  O   O53       1.0  0.76534  0.52894  0.24910999999999994  1.0000
  O   O54       1.0  0.47113  0.23538  0.24968999999999994  1.0000
  O   O55       1.0  0.76371  0.235  0.75081  1.0000
  O   O56       1.0  0.76423  0.52916  0.7501599999999999  1.0000
  O   O57       1.0  0.47108  0.2354  0.75042  1.0000
  O   O58       1.0  0.23618  0.7643000000000001  0.74983  1.0000
  O   O59       1.0  0.23552  0.47154  0.74982  1.0000
  O   O60       1.0  0.5290700000000002  0.7647400000000001  0.74969  1.0000
