data_image0
_chemical_formula_structural       Co4H84C80N16O20
_chemical_formula_sum              "Co4 H84 C80 N16 O20"
_cell_length_a       8.1422
_cell_length_b       17.337969999999995
_cell_length_c       17.459139999999998
_cell_angle_alpha    89.89822
_cell_angle_beta     90.13250000000001
_cell_angle_gamma    98.55917

_space_group_name_H-M_alt    "P 1"
_space_group_IT_number       1

loop_
  _space_group_symop_operation_xyz
  'x, y, z'

loop_
  _atom_site_type_symbol
  _atom_site_label
  _atom_site_symmetry_multiplicity
  _atom_site_fract_x
  _atom_site_fract_y
  _atom_site_fract_z
  _atom_site_occupancy
  Co  Co1       1.0  0.8907600000000001  0.7624000000000002  0.80858  1.0000
  Co  Co2       1.0  0.6114300000000001  0.7358600000000002  0.3087  1.0000
  Co  Co3       1.0  0.10922999999999998  0.2376  0.19142  1.0000
  Co  Co4       1.0  0.38857000000000025  0.26414  0.6913  1.0000
  H   H1        1.0  0.6662100000000001  0.48844  0.71998  1.0000
  H   H2        1.0  0.99645  0.37845  0.5792999999999998  1.0000
  H   H3        1.0  0.14757000000000003  0.61257  0.66247  1.0000
  H   H4        1.0  0.27379  0.39085  0.5798299999999998  1.0000
  H   H5        1.0  0.22368000000000005  0.4293800000000001  0.48887  1.0000
  H   H6        1.0  0.54455  0.68446  0.88831  1.0000
  H   H7        1.0  0.78408  0.7333000000000001  0.10198  1.0000
  H   H8        1.0  0.009760000000000046  0.7757800000000002  0.98159  1.0000
  H   H9        1.0  0.38397000000000003  0.6357000000000002  0.008339999999999998  1.0000
  H   H10       1.0  0.48911  0.6448000000000002  0.09791  1.0000
  H   H11       1.0  0.36963000000000007  0.7800600000000002  0.00976  1.0000
  H   H12       1.0  0.4591  0.78614  0.10303  1.0000
  H   H13       1.0  0.98607  0.78269  0.24588999999999997  1.0000
  H   H14       1.0  0.66385  0.56859  0.23833999999999997  1.0000
  H   H15       1.0  0.9698399999999999  0.54775  0.17608999999999994  1.0000
  H   H16       1.0  0.27026  0.72752  0.2175  1.0000
  H   H17       1.0  0.25143  0.63393  0.17609999999999995  1.0000
  H   H18       1.0  0.14897000000000007  0.7807300000000003  0.10114  1.0000
  H   H19       1.0  0.12595  0.68876  0.05676999999999999  1.0000
  H   H20       1.0  0.52872  0.4145  0.50287  1.0000
  H   H21       1.0  0.54382  0.4774900000000001  0.5819799999999999  1.0000
  H   H22       1.0  0.8363  0.011160000000000003  0.22105  1.0000
  H   H23       1.0  0.50607  0.12111  0.0794  1.0000
  H   H24       1.0  0.3558100000000002  0.8864500000000001  0.16221999999999995  1.0000
  H   H25       1.0  0.22744  0.10905000000000002  0.07934  1.0000
  H   H26       1.0  0.27588  0.06997  0.98879  1.0000
  H   H27       1.0  0.95713  0.81373  0.38887  1.0000
  H   H28       1.0  0.71495  0.76873  0.6021  1.0000
  H   H29       1.0  0.49042  0.72469  0.4816099999999999  1.0000
  H   H30       1.0  0.11570000000000012  0.8650800000000001  0.50897  1.0000
  H   H31       1.0  0.011450000000000005  0.85495  0.59854  1.0000
  H   H32       1.0  0.13077  0.72084  0.50927  1.0000
  H   H33       1.0  0.042379999999999994  0.71356  0.60255  1.0000
  H   H34       1.0  0.51484  0.7157000000000001  0.74467  1.0000
  H   H35       1.0  0.83833  0.92946  0.73877  1.0000
  H   H36       1.0  0.53124  0.9517600000000002  0.67782  1.0000
  H   H37       1.0  0.23003000000000004  0.7721100000000001  0.71725  1.0000
  H   H38       1.0  0.25008  0.86595  0.67603  1.0000
  H   H39       1.0  0.35204  0.71935  0.6011799999999998  1.0000
  H   H40       1.0  0.37495000000000006  0.8115800000000002  0.55694  1.0000
  H   H41       1.0  0.97024  0.08526  0.004319999999999998  1.0000
  H   H42       1.0  0.95786  0.02083  0.08257  1.0000
  H   H43       1.0  0.3337900000000001  0.5115600000000002  0.28002  1.0000
  H   H44       1.0  0.00355  0.62155  0.4206999999999999  1.0000
  H   H45       1.0  0.8524300000000002  0.3874300000000001  0.33753  1.0000
  H   H46       1.0  0.7262000000000001  0.60915  0.4201699999999999  1.0000
  H   H47       1.0  0.77632  0.57062  0.5111299999999998  1.0000
  H   H48       1.0  0.45545  0.31554  0.11168  1.0000
  H   H49       1.0  0.21591999999999997  0.2667  0.8980199999999999  1.0000
  H   H50       1.0  0.99024  0.22422000000000006  0.01841  1.0000
  H   H51       1.0  0.6160300000000002  0.3643000000000001  0.99165  1.0000
  H   H52       1.0  0.51088  0.3552000000000001  0.9020899999999997  1.0000
  H   H53       1.0  0.63037  0.21994000000000002  0.9902399999999999  1.0000
  H   H54       1.0  0.54089  0.21386000000000002  0.89697  1.0000
  H   H55       1.0  0.013920000000000002  0.21731  0.75411  1.0000
  H   H56       1.0  0.33614  0.4314100000000001  0.7616599999999998  1.0000
  H   H57       1.0  0.030159999999999992  0.45225  0.82391  1.0000
  H   H58       1.0  0.72974  0.27248  0.7824999999999998  1.0000
  H   H59       1.0  0.7485600000000001  0.36607  0.8239  1.0000
  H   H60       1.0  0.85103  0.21926  0.8988599999999998  1.0000
  H   H61       1.0  0.87405  0.31123  0.94322  1.0000
  H   H62       1.0  0.47128000000000003  0.5855000000000002  0.49713  1.0000
  H   H63       1.0  0.45618  0.5225000000000002  0.4180199999999999  1.0000
  H   H64       1.0  0.16369  0.98883  0.7789399999999997  1.0000
  H   H65       1.0  0.49393  0.87889  0.9206  1.0000
  H   H66       1.0  0.64418  0.11355  0.83778  1.0000
  H   H67       1.0  0.77255  0.8909500000000002  0.92066  1.0000
  H   H68       1.0  0.72412  0.93003  0.01121  1.0000
  H   H69       1.0  0.04287  0.18626  0.6111299999999997  1.0000
  H   H70       1.0  0.28505  0.23127  0.3979  1.0000
  H   H71       1.0  0.50957  0.27531  0.51839  1.0000
  H   H72       1.0  0.8843  0.13492  0.49103  1.0000
  H   H73       1.0  0.98855  0.14505  0.40146  1.0000
  H   H74       1.0  0.86922  0.27916  0.49072999999999994  1.0000
  H   H75       1.0  0.95761  0.28644  0.39745  1.0000
  H   H76       1.0  0.4851500000000001  0.2843000000000001  0.25533  1.0000
  H   H77       1.0  0.16166  0.07054000000000003  0.26123  1.0000
  H   H78       1.0  0.46875  0.04824  0.32218  1.0000
  H   H79       1.0  0.76996  0.22789000000000006  0.28275  1.0000
  H   H80       1.0  0.74992  0.13405000000000003  0.32397  1.0000
  H   H81       1.0  0.64795  0.28065  0.3988199999999999  1.0000
  H   H82       1.0  0.62505  0.18842000000000006  0.44306  1.0000
  H   H83       1.0  0.029760000000000016  0.91474  0.99568  1.0000
  H   H84       1.0  0.042139999999999976  0.97917  0.91742  1.0000
  C   C1        1.0  0.90192  0.55834  0.69523  1.0000
  C   C2        1.0  0.78468  0.49053  0.69107  1.0000
  C   C3        1.0  0.82087  0.42604  0.65  1.0000
  C   C4        1.0  0.9725200000000002  0.42947  0.6109  1.0000
  C   C5        1.0  0.08917  0.49745  0.6146  1.0000
  C   C6        1.0  0.05414999999999999  0.56114  0.65789  1.0000
  C   C7        1.0  0.2957500000000001  0.44207  0.542  1.0000
  C   C8        1.0  0.64195  0.70367  0.9291599999999999  1.0000
  C   C9        1.0  0.77074  0.72988  0.04036  1.0000
  C   C10       1.0  0.87975  0.75103  0.98141  1.0000
  C   C11       1.0  0.46292  0.67645  0.04584  1.0000
  C   C12       1.0  0.3796300000000002  0.7479100000000002  0.06354  1.0000
  C   C13       1.0  0.9392499999999999  0.72178  0.23599999999999996  1.0000
  C   C14       1.0  0.77536  0.60996  0.22905  1.0000
  C   C15       1.0  0.9253400000000002  0.5990400000000002  0.19819  1.0000
  C   C16       1.0  0.19924000000000003  0.68866  0.17581  1.0000
  C   C17       1.0  0.20492000000000007  0.7269200000000002  0.09666  1.0000
  C   C18       1.0  0.69827  0.3519500000000001  0.64792  1.0000
  C   C19       1.0  0.8642800000000002  0.6272000000000002  0.7396399999999999  1.0000
  C   C20       1.0  0.48023000000000016  0.46505000000000013  0.52694  1.0000
  C   C21       1.0  0.60114  0.9409800000000001  0.19566999999999996  1.0000
  C   C22       1.0  0.71778  0.00896  0.19188999999999995  1.0000
  C   C23       1.0  0.68129  0.07324  0.15037  1.0000
  C   C24       1.0  0.52927  0.07  0.1113  1.0000
  C   C25       1.0  0.41224000000000005  0.00216  0.11520999999999999  1.0000
  C   C26       1.0  0.4485  0.9382  0.15818  1.0000
  C   C27       1.0  0.20473  0.05752  0.04210999999999999  1.0000
  C   C28       1.0  0.85898  0.79549  0.4294999999999999  1.0000
  C   C29       1.0  0.72895  0.7712  0.5404999999999998  1.0000
  C   C30       1.0  0.62046  0.7493100000000001  0.48136  1.0000
  C   C31       1.0  0.03737000000000002  0.82386  0.54625  1.0000
  C   C32       1.0  0.12129000000000008  0.7523500000000002  0.56335  1.0000
  C   C33       1.0  0.5619  0.77671  0.73544  1.0000
  C   C34       1.0  0.72632  0.88845  0.7293099999999998  1.0000
  C   C35       1.0  0.57587  0.9000500000000002  0.69909  1.0000
  C   C36       1.0  0.30166  0.81106  0.67586  1.0000
  C   C37       1.0  0.2960700000000001  0.7731800000000002  0.59664  1.0000
  C   C38       1.0  0.80541  0.14654  0.14636  1.0000
  C   C39       1.0  0.6417000000000002  0.8720800000000002  0.23959999999999998  1.0000
  C   C40       1.0  0.01996  0.03448  0.02742  1.0000
  C   C41       1.0  0.09808000000000001  0.44166  0.30475999999999986  1.0000
  C   C42       1.0  0.21531000000000003  0.5094700000000001  0.30893  1.0000
  C   C43       1.0  0.17912000000000006  0.5739600000000002  0.35  1.0000
  C   C44       1.0  0.027469999999999994  0.57053  0.3891  1.0000
  C   C45       1.0  0.91082  0.50255  0.3854  1.0000
  C   C46       1.0  0.94585  0.43886  0.34211  1.0000
  C   C47       1.0  0.70424  0.55793  0.45799999999999996  1.0000
  C   C48       1.0  0.35804  0.29633  0.07083  1.0000
  C   C49       1.0  0.22926  0.27012  0.9596399999999999  1.0000
  C   C50       1.0  0.12024  0.24897000000000002  0.01859  1.0000
  C   C51       1.0  0.53708  0.32355  0.9541599999999999  1.0000
  C   C52       1.0  0.62036  0.25209  0.9364599999999997  1.0000
  C   C53       1.0  0.06074  0.27822  0.7639999999999998  1.0000
  C   C54       1.0  0.22463  0.39004  0.7709499999999998  1.0000
  C   C55       1.0  0.07465999999999999  0.40096  0.80181  1.0000
  C   C56       1.0  0.8007499999999999  0.31134  0.82419  1.0000
  C   C57       1.0  0.79508  0.27308  0.9033399999999998  1.0000
  C   C58       1.0  0.30172  0.64805  0.35208  1.0000
  C   C59       1.0  0.13572000000000004  0.3728000000000001  0.26036  1.0000
  C   C60       1.0  0.51976  0.53495  0.47306  1.0000
  C   C61       1.0  0.39886  0.05902  0.80433  1.0000
  C   C62       1.0  0.28222  0.99104  0.8081099999999998  1.0000
  C   C63       1.0  0.3187  0.92676  0.84963  1.0000
  C   C64       1.0  0.47073  0.93  0.8887  1.0000
  C   C65       1.0  0.58775  0.99784  0.8847899999999997  1.0000
  C   C66       1.0  0.55149  0.06180000000000001  0.84182  1.0000
  C   C67       1.0  0.79527  0.94248  0.95789  1.0000
  C   C68       1.0  0.14101000000000005  0.20451  0.5705  1.0000
  C   C69       1.0  0.27105  0.22880000000000006  0.4595  1.0000
  C   C70       1.0  0.37954000000000004  0.25069000000000013  0.51864  1.0000
  C   C71       1.0  0.9626300000000002  0.17614  0.45375  1.0000
  C   C72       1.0  0.8787  0.24765  0.43665  1.0000
  C   C73       1.0  0.4381  0.22328  0.2645599999999999  1.0000
  C   C74       1.0  0.27367  0.11155  0.27068  1.0000
  C   C75       1.0  0.42412  0.09994  0.3009  1.0000
  C   C76       1.0  0.69833  0.18893  0.32414  1.0000
  C   C77       1.0  0.7039300000000001  0.22682000000000005  0.4033599999999999  1.0000
  C   C78       1.0  0.19457999999999998  0.85346  0.85364  1.0000
  C   C79       1.0  0.35830000000000006  0.12792  0.7604  1.0000
  C   C80       1.0  0.98004  0.9655200000000002  0.9725799999999999  1.0000
  N   N1        1.0  0.79804  0.73454  0.91234  1.0000
  N   N2        1.0  0.6210900000000001  0.6993700000000002  0.0063  1.0000
  N   N3        1.0  0.7852  0.68701  0.2523  1.0000
  N   N4        1.0  0.02777  0.67008  0.20343  1.0000
  N   N5        1.0  0.7029500000000001  0.7645900000000002  0.4124199999999999  1.0000
  N   N6        1.0  0.8790100000000001  0.8009900000000002  0.50663  1.0000
  N   N7        1.0  0.71641  0.81105  0.75165  1.0000
  N   N8        1.0  0.47312000000000015  0.82907  0.7038  1.0000
  N   N9        1.0  0.20196  0.26546  0.08766  1.0000
  N   N10       1.0  0.3789  0.3006300000000001  0.9937  1.0000
  N   N11       1.0  0.21479  0.31299  0.7477  1.0000
  N   N12       1.0  0.97222  0.32992  0.7965699999999998  1.0000
  N   N13       1.0  0.29705  0.23541000000000004  0.58758  1.0000
  N   N14       1.0  0.12099  0.19901  0.49335999999999997  1.0000
  N   N15       1.0  0.28359  0.18895  0.24834999999999993  1.0000
  N   N16       1.0  0.52687  0.17093  0.2962  1.0000
  O   O1        1.0  0.98462  0.68561  0.74634  1.0000
  O   O2        1.0  0.7238000000000001  0.6287900000000001  0.76885  1.0000
  O   O3        1.0  0.24100000000000005  0.5080400000000003  0.57993  1.0000
  O   O4        1.0  0.55978  0.35553  0.68488  1.0000
  O   O5        1.0  0.73196  0.2928800000000001  0.61374  1.0000
  O   O6        1.0  0.52256  0.81306  0.24583  1.0000
  O   O7        1.0  0.78288  0.8712900000000002  0.26873  1.0000
  O   O8        1.0  0.25977  0.9917100000000001  0.08069  1.0000
  O   O9        1.0  0.94188  0.14433000000000007  0.18551  1.0000
  O   O10       1.0  0.77529  0.20395000000000005  0.10812  1.0000
  O   O11       1.0  0.015380000000000007  0.31439  0.25366  1.0000
  O   O12       1.0  0.27619  0.37121  0.23114999999999997  1.0000
  O   O13       1.0  0.75899  0.49196000000000006  0.42006  1.0000
  O   O14       1.0  0.44021  0.64447  0.31512  1.0000
  O   O15       1.0  0.26804  0.70712  0.3862599999999999  1.0000
  O   O16       1.0  0.47744  0.18694  0.75417  1.0000
  O   O17       1.0  0.21712000000000006  0.12871  0.7312599999999998  1.0000
  O   O18       1.0  0.74022  0.00829  0.9193099999999998  1.0000
  O   O19       1.0  0.05811000000000001  0.85567  0.81449  1.0000
  O   O20       1.0  0.22471000000000005  0.79605  0.89188  1.0000
