data_image0
_chemical_formula_structural       La4Co6H48C48O60
_chemical_formula_sum              "La4 Co6 H48 C48 O60"
_cell_length_a       14.31019
_cell_length_b       15.40284
_cell_length_c       15.403290000000002
_cell_angle_alpha    120.04971
_cell_angle_beta     89.99955
_cell_angle_gamma    90.00136999999998

_symmetry_space_group_name_H-M    'P 1'
_symmetry_Int_Tables_number       1

loop_
  _symmetry_equiv_pos_as_xyz
  'x,y,z'

loop_
  _atom_site_type_symbol
  _atom_site_label
  _atom_site_symmetry_multiplicity
  _atom_site_fract_x
  _atom_site_fract_y
  _atom_site_fract_z
  _atom_site_occupancy
  La  La1       1.0  0.7499699999999999  0.33312000000000014  0.6666400000000002  1.0000
  La  La2       1.0  0.7499699999999999  0.6668400000000002  0.3333500000000001  1.0000
  La  La3       1.0  0.25000999999999995  0.6668100000000002  0.3333500000000001  1.0000
  La  La4       1.0  0.25002999999999986  0.3331600000000001  0.6666500000000002  1.0000
  Co  Co1       1.0  1.9999999999999995e-05  0.000649999999999983  0.50069  1.0000
  Co  Co2       1.0  0.9999899999999999  0.49997  1.0000000000000003e-05  1.0000
  Co  Co3       1.0  0.9999899999999999  0.50056  0.5001400000000001  1.0000
  Co  Co4       1.0  0.49996999999999997  0.9989800000000001  0.5001400000000001  1.0000
  Co  Co5       1.0  0.5000199999999999  0.50003  0.50093  1.0000
  Co  Co6       1.0  0.49997999999999987  0.5003  0.00030000000000000003  1.0000
  H   H1        1.0  0.84623  0.15048000000000003  0.35828000000000004  1.0000
  H   H2        1.0  0.7498099999999998  0.08184000000000002  0.36921  1.0000
  H   H3        1.0  0.84613  0.20767000000000005  0.84947  1.0000
  H   H4        1.0  0.7495699999999997  0.2872700000000001  0.9177600000000001  1.0000
  H   H5        1.0  0.8461099999999999  0.64187  0.79242  1.0000
  H   H6        1.0  0.74956  0.63026  0.7127  1.0000
  H   H7        1.0  0.8461599999999998  0.8495000000000001  0.64179  1.0000
  H   H8        1.0  0.7497199999999998  0.918  0.63072  1.0000
  H   H9        1.0  0.8461699999999998  0.79233  0.15049  1.0000
  H   H10       1.0  0.7496299999999998  0.71267  0.08217  1.0000
  H   H11       1.0  0.8461499999999997  0.358  0.2076  1.0000
  H   H12       1.0  0.74955  0.36966  0.2873  1.0000
  H   H13       1.0  0.6538099999999998  0.84955  0.20781  1.0000
  H   H14       1.0  0.7502899999999998  0.91785  0.28745  1.0000
  H   H15       1.0  0.6538299999999999  0.79233  0.6420300000000002  1.0000
  H   H16       1.0  0.75044  0.7126100000000002  0.6303  1.0000
  H   H17       1.0  0.6538099999999998  0.35820000000000013  0.15045000000000003  1.0000
  H   H18       1.0  0.7502699999999998  0.36939  0.08196000000000002  1.0000
  H   H19       1.0  0.65384  0.15042999999999995  0.79229  1.0000
  H   H20       1.0  0.7503699999999998  0.08208999999999997  0.7127  1.0000
  H   H21       1.0  0.6538999999999998  0.20766  0.35795  1.0000
  H   H22       1.0  0.7504099999999999  0.28735  0.36978000000000005  1.0000
  H   H23       1.0  0.65374  0.6418  0.84962  1.0000
  H   H24       1.0  0.7502299999999997  0.63059  0.91811  1.0000
  H   H25       1.0  0.15388  0.84943  0.64175  1.0000
  H   H26       1.0  0.2503099999999999  0.91799  0.63073  1.0000
  H   H27       1.0  0.15383999999999995  0.79231  0.15055  1.0000
  H   H28       1.0  0.25035  0.71265  0.08213000000000001  1.0000
  H   H29       1.0  0.15378999999999995  0.35805  0.20763  1.0000
  H   H30       1.0  0.25038  0.3696  0.28733  1.0000
  H   H31       1.0  0.15381999999999996  0.15046  0.35824  1.0000
  H   H32       1.0  0.25027  0.08193000000000003  0.36927  1.0000
  H   H33       1.0  0.15386999999999995  0.2077100000000001  0.8495000000000003  1.0000
  H   H34       1.0  0.2504  0.28734  0.9178200000000001  1.0000
  H   H35       1.0  0.15384999999999996  0.6418800000000001  0.7923900000000001  1.0000
  H   H36       1.0  0.25036  0.6303  0.71268  1.0000
  H   H37       1.0  0.34615  0.15043999999999993  0.79229  1.0000
  H   H38       1.0  0.24959999999999996  0.08212999999999997  0.7127  1.0000
  H   H39       1.0  0.34614  0.2077  0.35806  1.0000
  H   H40       1.0  0.24966999999999995  0.28738  0.36976  1.0000
  H   H41       1.0  0.34625  0.6418600000000001  0.8496500000000002  1.0000
  H   H42       1.0  0.24970999999999996  0.63063  0.9180800000000001  1.0000
  H   H43       1.0  0.34611999999999987  0.8496200000000003  0.20778000000000002  1.0000
  H   H44       1.0  0.24963999999999995  0.91781  0.28743  1.0000
  H   H45       1.0  0.34616999999999987  0.79234  0.64202  1.0000
  H   H46       1.0  0.24961999999999995  0.7126600000000001  0.6303300000000002  1.0000
  H   H47       1.0  0.34614  0.35811  0.15037000000000003  1.0000
  H   H48       1.0  0.24963999999999995  0.36939  0.08201  1.0000
  C   C1        1.0  0.8584199999999997  0.12142000000000003  0.4796200000000001  1.0000
  C   C2        1.0  0.79936  0.14379  0.41141  1.0000
  C   C3        1.0  0.8584099999999998  0.35811  0.87843  1.0000
  C   C4        1.0  0.7993399999999998  0.26750999999999997  0.85602  1.0000
  C   C5        1.0  0.85849  0.52019  0.64196  1.0000
  C   C6        1.0  0.79937  0.58842  0.73258  1.0000
  C   C7        1.0  0.8584599999999998  0.87866  0.52047  1.0000
  C   C8        1.0  0.79938  0.85618  0.58859  1.0000
  C   C9        1.0  0.8584499999999998  0.64188  0.12153  1.0000
  C   C10       1.0  0.79937  0.73248  0.14394000000000004  1.0000
  C   C11       1.0  0.8584599999999998  0.47981999999999997  0.35805  1.0000
  C   C12       1.0  0.79936  0.4115  0.2674  1.0000
  C   C13       1.0  0.6415299999999998  0.87839  0.3581500000000001  1.0000
  C   C14       1.0  0.70061  0.85605  0.26761  1.0000
  C   C15       1.0  0.6415199999999998  0.6419200000000002  0.52028  1.0000
  C   C16       1.0  0.70062  0.7325500000000001  0.58852  1.0000
  C   C17       1.0  0.64151  0.47965  0.12141000000000002  1.0000
  C   C18       1.0  0.7005899999999999  0.41144000000000003  0.14379000000000003  1.0000
  C   C19       1.0  0.64158  0.12132  0.64182  1.0000
  C   C20       1.0  0.7006399999999998  0.14386  0.7324500000000002  1.0000
  C   C21       1.0  0.6415499999999997  0.35801  0.4798300000000001  1.0000
  C   C22       1.0  0.70061  0.26743  0.41154  1.0000
  C   C23       1.0  0.6415  0.52032  0.87858  1.0000
  C   C24       1.0  0.7005799999999999  0.58855  0.85621  1.0000
  C   C25       1.0  0.14157  0.87863  0.52044  1.0000
  C   C26       1.0  0.20064999999999994  0.85615  0.58857  1.0000
  C   C27       1.0  0.14156  0.64185  0.12152000000000003  1.0000
  C   C28       1.0  0.20064  0.7324400000000002  0.14393  1.0000
  C   C29       1.0  0.14152  0.47982000000000025  0.35806  1.0000
  C   C30       1.0  0.20061999999999994  0.41149  0.26743  1.0000
  C   C31       1.0  0.14162  0.12145999999999997  0.47964  1.0000
  C   C32       1.0  0.20066999999999993  0.14384000000000002  0.4114300000000001  1.0000
  C   C33       1.0  0.14157999999999996  0.35814  0.87844  1.0000
  C   C34       1.0  0.20065999999999998  0.2675600000000001  0.8560500000000001  1.0000
  C   C35       1.0  0.14149  0.52022  0.64196  1.0000
  C   C36       1.0  0.20059999999999995  0.58845  0.73256  1.0000
  C   C37       1.0  0.35841  0.12138  0.64184  1.0000
  C   C38       1.0  0.29934  0.14390000000000006  0.73247  1.0000
  C   C39       1.0  0.35847  0.35805  0.47985  1.0000
  C   C40       1.0  0.2994099999999999  0.26749  0.4115800000000001  1.0000
  C   C41       1.0  0.3584799999999999  0.52038  0.87859  1.0000
  C   C42       1.0  0.2994  0.58861  0.85622  1.0000
  C   C43       1.0  0.35842  0.87836  0.35813  1.0000
  C   C44       1.0  0.2993599999999999  0.85603  0.26757  1.0000
  C   C45       1.0  0.35847  0.64187  0.52027  1.0000
  C   C46       1.0  0.2994  0.73254  0.5885  1.0000
  C   C47       1.0  0.35847  0.4796  0.12141000000000002  1.0000
  C   C48       1.0  0.29938  0.41140000000000004  0.14379000000000003  1.0000
  O   O1        1.0  0.9031799999999998  0.03888999999999999  0.43252  1.0000
  O   O2        1.0  0.86046  0.18317  0.57267  1.0000
  O   O3        1.0  0.9031299999999998  0.39358000000000004  0.9610300000000002  1.0000
  O   O4        1.0  0.8604899999999998  0.38935  0.8167  1.0000
  O   O5        1.0  0.9030999999999998  0.5674000000000001  0.6065000000000002  1.0000
  O   O6        1.0  0.8605999999999998  0.4272  0.61066  1.0000
  O   O7        1.0  0.90317  0.96126  0.5677  1.0000
  O   O8        1.0  0.8605099999999998  0.81694  0.42741  1.0000
  O   O9        1.0  0.9031299999999998  0.60637  0.03891  1.0000
  O   O10       1.0  0.86056  0.6106400000000001  0.18327000000000002  1.0000
  O   O11       1.0  0.9030999999999998  0.43282  0.39365  1.0000
  O   O12       1.0  0.8605899999999997  0.57286  0.38927000000000006  1.0000
  O   O13       1.0  0.5967799999999999  0.9609699999999999  0.39378  1.0000
  O   O14       1.0  0.6394599999999998  0.81656  0.38926  1.0000
  O   O15       1.0  0.59695  0.6065  0.56754  1.0000
  O   O16       1.0  0.6393599999999998  0.61059  0.4272600000000001  1.0000
  O   O17       1.0  0.59684  0.43248  0.03878  1.0000
  O   O18       1.0  0.6394599999999998  0.57269  0.18314  1.0000
  O   O19       1.0  0.5968799999999997  0.03873  0.60643  1.0000
  O   O20       1.0  0.63952  0.18300000000000016  0.6105200000000002  1.0000
  O   O21       1.0  0.5969699999999998  0.3937  0.4328800000000001  1.0000
  O   O22       1.0  0.6394499999999997  0.38908000000000004  0.57283  1.0000
  O   O23       1.0  0.5968699999999998  0.56759  0.9612300000000003  1.0000
  O   O24       1.0  0.63942  0.4272700000000001  0.8169000000000002  1.0000
  O   O25       1.0  0.09684999999999998  0.9612400000000001  0.5677  1.0000
  O   O26       1.0  0.13952  0.8169400000000001  0.4274  1.0000
  O   O27       1.0  0.09687  0.60638  0.03891  1.0000
  O   O28       1.0  0.13946  0.61059  0.18323000000000003  1.0000
  O   O29       1.0  0.09685999999999997  0.4328  0.39361  1.0000
  O   O30       1.0  0.13939999999999994  0.57286  0.38931  1.0000
  O   O31       1.0  0.09687999999999998  0.038890000000000015  0.43255  1.0000
  O   O32       1.0  0.13956  0.18322  0.57268  1.0000
  O   O33       1.0  0.09687  0.3936000000000001  0.96105  1.0000
  O   O34       1.0  0.13949999999999999  0.38937  0.81672  1.0000
  O   O35       1.0  0.09688999999999998  0.5674  0.60649  1.0000
  O   O36       1.0  0.13938  0.42721000000000003  0.6106800000000001  1.0000
  O   O37       1.0  0.40307  0.038780000000000016  0.6064500000000002  1.0000
  O   O38       1.0  0.3604999999999999  0.18307000000000012  0.6105700000000002  1.0000
  O   O39       1.0  0.4030899999999999  0.39368  0.43284  1.0000
  O   O40       1.0  0.36055  0.3892  0.57285  1.0000
  O   O41       1.0  0.4031099999999999  0.56762  0.9612400000000002  1.0000
  O   O42       1.0  0.36058999999999997  0.42732  0.81688  1.0000
  O   O43       1.0  0.4031499999999999  0.96093  0.3938  1.0000
  O   O44       1.0  0.36049  0.8164799999999999  0.38921  1.0000
  O   O45       1.0  0.4030099999999999  0.6064  0.5674800000000001  1.0000
  O   O46       1.0  0.3605699999999999  0.61058  0.4272600000000001  1.0000
  O   O47       1.0  0.4031199999999999  0.43247  0.03877  1.0000
  O   O48       1.0  0.3605699999999999  0.57265  0.18319000000000005  1.0000
  O   O49       1.0  0.7499099999999997  0.23521000000000006  0.4708200000000001  1.0000
  O   O50       1.0  0.7499699999999999  0.23535  0.7645400000000001  1.0000
  O   O51       1.0  0.75011  0.52912  0.76482  1.0000
  O   O52       1.0  0.7499199999999998  0.76473  0.52918  1.0000
  O   O53       1.0  0.74999  0.76458  0.23541000000000006  1.0000
  O   O54       1.0  0.7501499999999998  0.4708300000000001  0.23515000000000003  1.0000
  O   O55       1.0  0.2500599999999999  0.76468  0.52916  1.0000
  O   O56       1.0  0.2500599999999999  0.76451  0.23535  1.0000
  O   O57       1.0  0.24988999999999995  0.4708  0.23520000000000005  1.0000
  O   O58       1.0  0.25005  0.23532  0.47086  1.0000
  O   O59       1.0  0.25005  0.23541  0.7646  1.0000
  O   O60       1.0  0.24991999999999995  0.52917  0.76478  1.0000
