data_image0
_chemical_formula_structural       Ag6H96C36S24
_chemical_formula_sum              "Ag6 H96 C36 S24"
_cell_length_a       8.98723
_cell_length_b       8.91091
_cell_length_c       32.41367
_cell_angle_alpha    112.71224999999998
_cell_angle_beta     79.1039
_cell_angle_gamma    123.54183

_space_group_name_H-M_alt    "P 1"
_space_group_IT_number       1

loop_
  _space_group_symop_operation_xyz
  'x, y, z'

loop_
  _atom_site_type_symbol
  _atom_site_label
  _atom_site_symmetry_multiplicity
  _atom_site_fract_x
  _atom_site_fract_y
  _atom_site_fract_z
  _atom_site_occupancy
  Ag  Ag1       1.0  0.08162000000000005  0.051459999999999784  0.9525699999999998  1.0000
  Ag  Ag2       1.0  0.06689999999999995  0.47800999999999977  0.7622899999999998  1.0000
  Ag  Ag3       1.0  0.002180000000000034  0.8433599999999997  0.5961499999999997  1.0000
  Ag  Ag4       1.0  0.2781199999999998  0.9024599999999999  0.12143999999999999  1.0000
  Ag  Ag5       1.0  0.6855200000000001  0.5662  0.27846999999999994  1.0000
  Ag  Ag6       1.0  0.98408  0.6975499999999998  0.4316399999999999  1.0000
  H   H1        1.0  0.9785  0.9848299999999995  0.5346299999999998  1.0000
  H   H2        1.0  0.3267999999999999  0.9152199999999998  0.8571699999999998  1.0000
  H   H3        1.0  0.27321  0.7401  0.88056  1.0000
  H   H4        1.0  0.7201300000000002  0.4180499999999997  0.9259399999999998  1.0000
  H   H5        1.0  0.55312  0.4777699999999999  0.94475  1.0000
  H   H6        1.0  0.7491799999999997  0.6244699999999996  0.9190799999999998  1.0000
  H   H7        1.0  0.40879  0.2058499999999998  0.42903999999999987  1.0000
  H   H8        1.0  0.55622  0.21927999999999978  0.3828999999999999  1.0000
  H   H9        1.0  0.53432  0.42029999999999984  0.4148499999999999  1.0000
  H   H10       1.0  0.61539  0.93476  0.55103  1.0000
  H   H11       1.0  0.65449  0.12915999999999986  0.60232  1.0000
  H   H12       1.0  0.7619199999999999  0.9997099999999998  0.5942399999999999  1.0000
  H   H13       1.0  0.5029199999999998  0.7856099999999996  0.9310999999999998  1.0000
  H   H14       1.0  0.7381500000000001  0.9073299999999997  0.9208099999999998  1.0000
  H   H15       1.0  0.5843099999999998  0.6967299999999996  0.8780299999999998  1.0000
  H   H16       1.0  0.9378499999999999  0.70211  0.04009  1.0000
  H   H17       1.0  0.02622999999999995  0.5698899999999998  0.99845  1.0000
  H   H18       1.0  0.02471000000000023  0.7557600000000002  0.98928  1.0000
  H   H19       1.0  0.1395  0.36062  0.61227  1.0000
  H   H20       1.0  0.11344999999999998  0.20128999999999994  0.6366  1.0000
  H   H21       1.0  0.2743600000000001  0.27265000000000017  0.78758  1.0000
  H   H22       1.0  0.2270599999999999  0.10257999999999985  0.73202  1.0000
  H   H23       1.0  0.22829999999999992  0.1495299999999999  0.08137999999999997  1.0000
  H   H24       1.0  0.6350199999999997  0.20835999999999955  0.7969699999999997  1.0000
  H   H25       1.0  0.7861800000000001  0.29962  0.84083  1.0000
  H   H26       1.0  0.16957000000000008  0.19010999999999986  0.8586599999999998  1.0000
  H   H27       1.0  0.06274999999999985  0.9590099999999995  0.8622099999999998  1.0000
  H   H28       1.0  0.9377500000000002  0.017419999999999974  0.84116  1.0000
  H   H29       1.0  0.64399  0.3994199999999997  0.75354  1.0000
  H   H30       1.0  0.77712  0.6564999999999999  0.7715699999999998  1.0000
  H   H31       1.0  0.5890199999999999  0.5421099999999998  0.80327  1.0000
  H   H32       1.0  0.20779999999999998  0.7226599999999999  0.68022  1.0000
  H   H33       1.0  0.002649999999999992  0.6906599999999997  0.7053599999999998  1.0000
  H   H34       1.0  0.011439999999999968  0.5996299999999999  0.64544  1.0000
  H   H35       1.0  0.6195200000000001  0.5962799999999998  0.5010899999999998  1.0000
  H   H36       1.0  0.7596899999999998  0.5835499999999997  0.5302499999999998  1.0000
  H   H37       1.0  0.37639000000000006  0.38186  0.71563  1.0000
  H   H38       1.0  0.5688599999999999  0.4268499999999996  0.6817699999999998  1.0000
  H   H39       1.0  0.3549999999999999  0.2173899999999997  0.6595999999999997  1.0000
  H   H40       1.0  0.4588499999999999  0.9091199999999998  0.7779299999999998  1.0000
  H   H41       1.0  0.51121  0.7370599999999996  0.7411399999999998  1.0000
  H   H42       1.0  0.64456  0.9088900000000001  0.7920099999999999  1.0000
  H   H43       1.0  0.60911  0.2016100000000001  0.53505  1.0000
  H   H44       1.0  0.42539  0.16718  0.57189  1.0000
  H   H45       1.0  0.6320199999999999  0.3977699999999996  0.5846599999999997  1.0000
  H   H46       1.0  0.9700000000000001  0.9734499999999998  0.6823099999999998  1.0000
  H   H47       1.0  0.7643099999999998  0.9554699999999999  0.70324  1.0000
  H   H48       1.0  0.8275  0.8125299999999998  0.7122899999999999  1.0000
  H   H49       1.0  0.10841999999999999  0.15693999999999975  0.5070799999999998  1.0000
  H   H50       1.0  0.5433699999999997  0.22486999999999988  0.19343999999999995  1.0000
  H   H51       1.0  0.6647899999999997  0.3593699999999999  0.15695999999999993  1.0000
  H   H52       1.0  0.33891999999999994  0.57911  0.046359999999999985  1.0000
  H   H53       1.0  0.10040999999999999  0.44562  0.041149999999999985  1.0000
  H   H54       1.0  0.2082  0.33869  0.04736  1.0000
  H   H55       1.0  0.3270899999999999  0.8140799999999997  0.5761499999999998  1.0000
  H   H56       1.0  0.41395000000000004  0.6805399999999998  0.5812299999999998  1.0000
  H   H57       1.0  0.17765999999999998  0.5843699999999996  0.5818599999999998  1.0000
  H   H58       1.0  0.84496  0.16690000000000005  0.46582999999999997  1.0000
  H   H59       1.0  0.77703  0.97843  0.41267  1.0000
  H   H60       1.0  0.00855999999999996  0.1267299999999998  0.4299499999999999  1.0000
  H   H61       1.0  0.72769  0.20231  0.07303  1.0000
  H   H62       1.0  0.7585699999999997  0.004949999999999988  0.05681999999999999  1.0000
  H   H63       1.0  0.9022099999999998  0.22597999999999996  0.10001999999999997  1.0000
  H   H64       1.0  0.58887  0.09226999999999956  0.9888799999999998  1.0000
  H   H65       1.0  0.7026300000000001  0.3329399999999998  0.9898799999999998  1.0000
  H   H66       1.0  0.4707900000000001  0.17342999999999967  0.9732699999999997  1.0000
  H   H67       1.0  0.68202  0.60613  0.3651  1.0000
  H   H68       1.0  0.8749700000000002  0.8215699999999999  0.3623099999999999  1.0000
  H   H69       1.0  0.9270199999999998  0.6815  0.17924999999999996  1.0000
  H   H70       1.0  0.08852000000000011  0.8644  0.22365  1.0000
  H   H71       1.0  0.22025999999999998  0.08783  0.021019999999999994  1.0000
  H   H72       1.0  0.45024  0.74993  0.16596999999999998  1.0000
  H   H73       1.0  0.48620999999999986  0.6216599999999999  0.11172999999999997  1.0000
  H   H74       1.0  0.85593  0.72381  0.11621999999999999  1.0000
  H   H75       1.0  0.93118  0.9513399999999999  0.11231999999999998  1.0000
  H   H76       1.0  0.7744899999999998  0.8717799999999997  0.15321999999999994  1.0000
  H   H77       1.0  0.41879000000000005  0.67214  0.23376  1.0000
  H   H78       1.0  0.28271999999999997  0.4320499999999999  0.23380999999999993  1.0000
  H   H79       1.0  0.18626  0.52817  0.21576  1.0000
  H   H80       1.0  0.50493  0.2609899999999998  0.3186699999999999  1.0000
  H   H81       1.0  0.3654299999999999  0.023709999999999964  0.28131  1.0000
  H   H82       1.0  0.2679  0.14406  0.32198  1.0000
  H   H83       1.0  0.030679999999999912  0.5598299999999999  0.51105  1.0000
  H   H84       1.0  0.09692999999999999  0.47739  0.45521  1.0000
  H   H85       1.0  0.08823999999999992  0.6815299999999997  0.2890699999999999  1.0000
  H   H86       1.0  0.21604999999999994  0.64857  0.31789  1.0000
  H   H87       1.0  0.20308999999999994  0.8594399999999999  0.3409099999999999  1.0000
  H   H88       1.0  0.6597099999999999  0.18092999999999995  0.24665999999999996  1.0000
  H   H89       1.0  0.8890799999999995  0.30066999999999994  0.26183999999999996  1.0000
  H   H90       1.0  0.8003699999999998  0.09879999999999994  0.21133999999999994  1.0000
  H   H91       1.0  0.50685  0.8381299999999999  0.4681099999999999  1.0000
  H   H92       1.0  0.49268  0.0027199999999998727  0.45257999999999987  1.0000
  H   H93       1.0  0.38500999999999985  0.7544899999999999  0.41766999999999993  1.0000
  H   H94       1.0  0.9540800000000003  0.0008499999999998257  0.31108999999999987  1.0000
  H   H95       1.0  0.8404  0.10085999999999985  0.3024499999999999  1.0000
  H   H96       1.0  0.047699999999999965  0.14217999999999995  0.2751  1.0000
  C   C1        1.0  0.3687599999999998  0.8251799999999996  0.8602099999999998  1.0000
  C   C2        1.0  0.6520399999999998  0.47724999999999973  0.9190299999999998  1.0000
  C   C3        1.0  0.5354199999999999  0.30019999999999974  0.41637999999999986  1.0000
  C   C4        1.0  0.71449  0.053730000000000076  0.57778  1.0000
  C   C5        1.0  0.60262  0.8261499999999998  0.9056599999999998  1.0000
  C   C6        1.0  0.038940000000000016  0.70995  0.01467  1.0000
  C   C7        1.0  0.15962999999999994  0.3532399999999996  0.6436599999999998  1.0000
  C   C8        1.0  0.17441999999999996  0.13028999999999993  0.76569  1.0000
  C   C9        1.0  0.7003599999999998  0.3258899999999996  0.8283799999999998  1.0000
  C   C10       1.0  0.06944000000000002  0.038339999999999694  0.8423299999999998  1.0000
  C   C11       1.0  0.6976100000000001  0.5321500000000002  0.78266  1.0000
  C   C12       1.0  0.06208999999999992  0.6255999999999997  0.6773199999999998  1.0000
  C   C13       1.0  0.6462999999999999  0.49790000000000006  0.50587  1.0000
  C   C14       1.0  0.42461  0.36899  0.68146  1.0000
  C   C15       1.0  0.51056  0.82068  0.7762699999999999  1.0000
  C   C16       1.0  0.53981  0.27004999999999957  0.5577399999999998  1.0000
  C   C17       1.0  0.87737  0.9528299999999996  0.7102399999999998  1.0000
  C   C18       1.0  0.65919  0.2633599999999999  0.17134999999999997  1.0000
  C   C19       1.0  0.21440999999999988  0.4743299999999999  0.05735999999999999  1.0000
  C   C20       1.0  0.30443999999999993  0.6713699999999996  0.5679399999999998  1.0000
  C   C21       1.0  0.8709799999999999  0.05863999999999998  0.44121  1.0000
  C   C22       1.0  0.76596  0.12781  0.0849  1.0000
  C   C23       1.0  0.5751499999999999  0.21421999999999966  0.9955699999999997  1.0000
  C   C24       1.0  0.7991799999999999  0.6662599999999996  0.3449599999999999  1.0000
  C   C25       1.0  0.97845  0.82582  0.20396  1.0000
  C   C26       1.0  0.39217  0.61053  0.13898999999999995  1.0000
  C   C27       1.0  0.8904999999999997  0.87163  0.13508  1.0000
  C   C28       1.0  0.30734999999999996  0.52784  0.21647999999999995  1.0000
  C   C29       1.0  0.37887999999999994  0.16371999999999987  0.2989799999999999  1.0000
  C   C30       1.0  0.14430000000000004  0.5852999999999999  0.48865999999999987  1.0000
  C   C31       1.0  0.13061999999999999  0.70539  0.32188  1.0000
  C   C32       1.0  0.7939599999999999  0.2238799999999999  0.23364999999999994  1.0000
  C   C33       1.0  0.42133  0.8547499999999999  0.4522099999999999  1.0000
  C   C34       1.0  0.9227100000000001  0.03890000000000002  0.28695  1.0000
  C   C35       1.0  0.9734599999999998  0.06656999999999974  0.5171999999999998  1.0000
  C   C36       1.0  0.28801  0.10747  0.04967  1.0000
  S   S1        1.0  0.90041  0.22365  0.55412  1.0000
  S   S2        1.0  0.5890099999999998  0.9834199999999997  0.88605  1.0000
  S   S3        1.0  0.3597599999999999  0.6522599999999998  0.8043399999999998  1.0000
  S   S4        1.0  0.44714999999999994  0.3359899999999997  0.5279399999999997  1.0000
  S   S5        1.0  0.13780999999999993  0.9498099999999998  0.7864399999999998  1.0000
  S   S6        1.0  0.39452999999999977  0.5067999999999996  0.6583199999999998  1.0000
  S   S7        1.0  0.7181899999999998  0.38629  0.45255  1.0000
  S   S8        1.0  0.9792300000000002  0.1404100000000001  0.7635499999999998  1.0000
  S   S9        1.0  0.2645199999999999  0.8779  0.0393  1.0000
  S   S10       1.0  0.5240799999999997  0.31862999999999964  0.8665899999999997  1.0000
  S   S11       1.0  0.8490899999999999  0.5481299999999997  0.8160699999999997  1.0000
  S   S12       1.0  0.0018599999999998795  0.4021499999999996  0.6821499999999998  1.0000
  S   S13       1.0  0.8295599999999996  0.8923899999999998  0.4672599999999999  1.0000
  S   S14       1.0  0.615  0.04062999999999994  0.12712999999999997  1.0000
  S   S15       1.0  0.8571899999999998  0.39117999999999997  0.20584999999999998  1.0000
  S   S16       1.0  0.2276799999999999  0.8217899999999997  0.4859799999999999  1.0000
  S   S17       1.0  0.07702999999999996  0.99726  0.17428  1.0000
  S   S18       1.0  0.9305099999999997  0.57632  0.3498  1.0000
  S   S19       1.0  0.29833000000000004  0.5554599999999997  0.5078599999999999  1.0000
  S   S20       1.0  0.79555  0.8239499999999998  0.23954999999999996  1.0000
  S   S21       1.0  0.51965  0.29734  0.05354  1.0000
  S   S22       1.0  0.19043000000000002  0.5663  0.11755999999999997  1.0000
  S   S23       1.0  0.36638  0.43639  0.1597  1.0000
  S   S24       1.0  0.37744  0.2641  0.25914  1.0000
