data_image0
_chemical_formula_structural       Zn16H16C80O72
_chemical_formula_sum              "Zn16 H16 C80 O72"
_cell_length_a       11.82338
_cell_length_b       15.58449
_cell_length_c       15.87951
_cell_angle_alpha    89.99953999999998
_cell_angle_beta     89.99953999999998
_cell_angle_gamma    90.0

_space_group_name_H-M_alt    "P 1"
_space_group_IT_number       1

loop_
  _space_group_symop_operation_xyz
  'x, y, z'

loop_
  _atom_site_type_symbol
  _atom_site_label
  _atom_site_symmetry_multiplicity
  _atom_site_fract_x
  _atom_site_fract_y
  _atom_site_fract_z
  _atom_site_occupancy
  Zn  Zn1       1.0  0.9712300000000001  0.18861  0.05152  1.0000
  Zn  Zn2       1.0  0.02869  0.18862  0.44845  1.0000
  Zn  Zn3       1.0  0.47153  0.30982999999999994  0.44794  1.0000
  Zn  Zn4       1.0  0.52847  0.30982999999999994  0.05206  1.0000
  Zn  Zn5       1.0  0.028760000000000008  0.8113899999999997  0.94848  1.0000
  Zn  Zn6       1.0  0.97131  0.8113799999999998  0.55155  1.0000
  Zn  Zn7       1.0  0.52847  0.69017  0.55206  1.0000
  Zn  Zn8       1.0  0.47153  0.69017  0.94793  1.0000
  Zn  Zn9       1.0  0.7506900000000001  0.25016  0.15682  1.0000
  Zn  Zn10      1.0  0.24933  0.25017  0.3432  1.0000
  Zn  Zn11      1.0  0.2493  0.74984  0.84318  1.0000
  Zn  Zn12      1.0  0.75066  0.7498299999999998  0.6568  1.0000
  Zn  Zn13      1.0  0.99955  0.8208899999999998  0.75022  1.0000
  Zn  Zn14      1.0  0.5  0.67704  0.75  1.0000
  Zn  Zn15      1.0  0.00045  0.17910999999999994  0.24978  1.0000
  Zn  Zn16      1.0  0.5  0.3229599999999999  0.25  1.0000
  H   H1        1.0  0.04895  0.4191199999999999  0.91446  1.0000
  H   H2        1.0  0.04417000000000001  0.5591299999999998  0.83748  1.0000
  H   H3        1.0  0.9510500000000001  0.41910999999999987  0.58554  1.0000
  H   H4        1.0  0.95583  0.5591299999999998  0.66252  1.0000
  H   H5        1.0  0.5489  0.08105999999999997  0.58655  1.0000
  H   H6        1.0  0.54567  0.94043  0.66224  1.0000
  H   H7        1.0  0.4511  0.08105999999999997  0.91345  1.0000
  H   H8        1.0  0.45433  0.94043  0.83776  1.0000
  H   H9        1.0  0.9510500000000001  0.5808899999999998  0.08554  1.0000
  H   H10       1.0  0.95583  0.44086999999999993  0.16252000000000005  1.0000
  H   H11       1.0  0.04895  0.5808899999999998  0.41446  1.0000
  H   H12       1.0  0.04417000000000001  0.44088  0.33748  1.0000
  H   H13       1.0  0.4511  0.9189399999999998  0.41345  1.0000
  H   H14       1.0  0.45433  0.05957999999999999  0.33776  1.0000
  H   H15       1.0  0.5489  0.9189399999999998  0.08655  1.0000
  H   H16       1.0  0.54567  0.05957  0.16224  1.0000
  C   C1        1.0  0.9711600000000001  0.45623  0.91054  1.0000
  C   C2        1.0  0.8755500000000002  0.42745  0.95397  1.0000
  C   C3        1.0  0.88476  0.34600999999999993  0.00479  1.0000
  C   C4        1.0  0.77321  0.4745699999999999  0.94915  1.0000
  C   C5        1.0  0.76657  0.5476699999999998  0.89714  1.0000
  C   C6        1.0  0.65519  0.5953599999999998  0.88683  1.0000
  C   C7        1.0  0.8644  0.5770699999999997  0.85646  1.0000
  C   C8        1.0  0.8645800000000001  0.65715  0.80336  1.0000
  C   C9        1.0  0.96741  0.5329599999999998  0.86539  1.0000
  C   C10       1.0  0.67269  0.4455599999999999  0.00134  1.0000
  C   C11       1.0  0.02884  0.45623  0.5894600000000002  1.0000
  C   C12       1.0  0.12445  0.42745  0.54602  1.0000
  C   C13       1.0  0.11523  0.34600999999999993  0.4952  1.0000
  C   C14       1.0  0.22679  0.4745699999999999  0.55084  1.0000
  C   C15       1.0  0.23343000000000003  0.54768  0.60285  1.0000
  C   C16       1.0  0.34481  0.5953599999999998  0.6131700000000002  1.0000
  C   C17       1.0  0.1356  0.57708  0.64353  1.0000
  C   C18       1.0  0.1354  0.65717  0.69662  1.0000
  C   C19       1.0  0.03259  0.5329599999999998  0.6346  1.0000
  C   C20       1.0  0.32731  0.4455599999999999  0.49866  1.0000
  C   C21       1.0  0.47145000000000004  0.04348  0.59008  1.0000
  C   C22       1.0  0.37579  0.07229  0.54675  1.0000
  C   C23       1.0  0.38443  0.15417999999999996  0.49633  1.0000
  C   C24       1.0  0.27369  0.02475  0.55148  1.0000
  C   C25       1.0  0.26798  0.9509399999999998  0.60287  1.0000
  C   C26       1.0  0.15704  0.9028199999999997  0.61307  1.0000
  C   C27       1.0  0.3660300000000001  0.92142  0.6433  1.0000
  C   C28       1.0  0.36657000000000006  0.8409799999999997  0.6962  1.0000
  C   C29       1.0  0.4685000000000001  0.96629  0.63467  1.0000
  C   C30       1.0  0.17318  0.053749999999999985  0.49928  1.0000
  C   C31       1.0  0.52855  0.04348  0.90991  1.0000
  C   C32       1.0  0.62421  0.07229999999999998  0.95325  1.0000
  C   C33       1.0  0.61556  0.15417999999999996  0.00367  1.0000
  C   C34       1.0  0.7263  0.02475  0.94853  1.0000
  C   C35       1.0  0.7320100000000002  0.9509399999999998  0.89715  1.0000
  C   C36       1.0  0.84294  0.9028199999999997  0.88695  1.0000
  C   C37       1.0  0.63397  0.92142  0.8567  1.0000
  C   C38       1.0  0.63343  0.84099  0.8038  1.0000
  C   C39       1.0  0.53149  0.9662999999999998  0.86533  1.0000
  C   C40       1.0  0.82681  0.053749999999999985  0.00072  1.0000
  C   C41       1.0  0.02884  0.5437699999999998  0.08946  1.0000
  C   C42       1.0  0.12445  0.57255  0.04602  1.0000
  C   C43       1.0  0.11524  0.654  0.99521  1.0000
  C   C44       1.0  0.22679  0.52544  0.05084  1.0000
  C   C45       1.0  0.23343000000000003  0.4523299999999999  0.10285  1.0000
  C   C46       1.0  0.34481  0.4046399999999999  0.11317  1.0000
  C   C47       1.0  0.1356  0.42292999999999986  0.14353  1.0000
  C   C48       1.0  0.13542  0.34285  0.19663  1.0000
  C   C49       1.0  0.03259  0.4670399999999999  0.1346  1.0000
  C   C50       1.0  0.32731  0.55445  0.99866  1.0000
  C   C51       1.0  0.9711600000000001  0.5437699999999998  0.41054  1.0000
  C   C52       1.0  0.8755500000000002  0.57255  0.45398  1.0000
  C   C53       1.0  0.88477  0.654  0.50479  1.0000
  C   C54       1.0  0.77321  0.5254299999999997  0.4491500000000001  1.0000
  C   C55       1.0  0.76657  0.4523299999999999  0.39715  1.0000
  C   C56       1.0  0.65519  0.4046399999999999  0.38683  1.0000
  C   C57       1.0  0.8644  0.42292999999999986  0.35647  1.0000
  C   C58       1.0  0.8646000000000001  0.34284  0.30337  1.0000
  C   C59       1.0  0.96741  0.4670499999999999  0.3654  1.0000
  C   C60       1.0  0.67269  0.55445  0.50133  1.0000
  C   C61       1.0  0.52855  0.9565299999999999  0.40992  1.0000
  C   C62       1.0  0.62421  0.9277099999999998  0.45325  1.0000
  C   C63       1.0  0.61556  0.84583  0.50367  1.0000
  C   C64       1.0  0.72631  0.9752499999999997  0.44852  1.0000
  C   C65       1.0  0.73202  0.049059999999999986  0.39713  1.0000
  C   C66       1.0  0.84296  0.09718999999999997  0.38693  1.0000
  C   C67       1.0  0.63397  0.07859  0.3567  1.0000
  C   C68       1.0  0.63343  0.15902  0.30379  1.0000
  C   C69       1.0  0.5315  0.03370999999999998  0.36533  1.0000
  C   C70       1.0  0.82682  0.9462599999999998  0.50072  1.0000
  C   C71       1.0  0.47145000000000004  0.9565199999999998  0.09008  1.0000
  C   C72       1.0  0.37579  0.9277099999999998  0.04675  1.0000
  C   C73       1.0  0.38443  0.84583  0.99633  1.0000
  C   C74       1.0  0.27369  0.9752499999999997  0.05147  1.0000
  C   C75       1.0  0.26799  0.049059999999999986  0.10285  1.0000
  C   C76       1.0  0.15706  0.09718  0.11304  1.0000
  C   C77       1.0  0.3660300000000001  0.07859  0.14329  1.0000
  C   C78       1.0  0.36657000000000006  0.15902  0.1962  1.0000
  C   C79       1.0  0.46851000000000004  0.0337  0.13467  1.0000
  C   C80       1.0  0.17319000000000004  0.9462599999999998  0.99928  1.0000
  O   O1        1.0  0.96793  0.2971099999999999  0.98711  1.0000
  O   O2        1.0  0.81095  0.33367999999999987  0.06095  1.0000
  O   O3        1.0  0.66284  0.4840799999999999  0.06982  1.0000
  O   O4        1.0  0.6118  0.38557999999999987  0.97064  1.0000
  O   O5        1.0  0.62519  0.64033  0.94968  1.0000
  O   O6        1.0  0.60566  0.58494  0.81706  1.0000
  O   O7        1.0  0.8062800000000001  0.6535099999999998  0.73677  1.0000
  O   O8        1.0  0.9256200000000001  0.71857  0.82881  1.0000
  O   O9        1.0  0.60916  0.31969  0.15758  1.0000
  O   O10       1.0  0.03207  0.2971099999999999  0.51289  1.0000
  O   O11       1.0  0.18905  0.3336899999999999  0.43905  1.0000
  O   O12       1.0  0.33716  0.4840799999999999  0.43018  1.0000
  O   O13       1.0  0.3882  0.38557999999999987  0.52936  1.0000
  O   O14       1.0  0.37481  0.64033  0.55031  1.0000
  O   O15       1.0  0.39434  0.58494  0.68294  1.0000
  O   O16       1.0  0.19371  0.6535099999999998  0.76322  1.0000
  O   O17       1.0  0.07436  0.7185799999999998  0.6712100000000001  1.0000
  O   O18       1.0  0.39086  0.31969  0.34242  1.0000
  O   O19       1.0  0.4691  0.20222  0.51279  1.0000
  O   O20       1.0  0.30872  0.16813999999999996  0.4419400000000001  1.0000
  O   O21       1.0  0.16582  0.01714999999999999  0.4296  1.0000
  O   O22       1.0  0.10947000000000001  0.11193999999999997  0.53008  1.0000
  O   O23       1.0  0.12654  0.85802  0.55022  1.0000
  O   O24       1.0  0.10796  0.9128799999999998  0.68306  1.0000
  O   O25       1.0  0.30858  0.8445299999999998  0.76297  1.0000
  O   O26       1.0  0.42783  0.7795599999999998  0.67091  1.0000
  O   O27       1.0  0.10825000000000001  0.18171  0.3423  1.0000
  O   O28       1.0  0.53091  0.20222  0.98721  1.0000
  O   O29       1.0  0.69128  0.16815  0.05806  1.0000
  O   O30       1.0  0.83419  0.01714999999999999  0.07040000000000003  1.0000
  O   O31       1.0  0.89053  0.11192999999999997  0.9699000000000002  1.0000
  O   O32       1.0  0.87346  0.8580099999999998  0.94978  1.0000
  O   O33       1.0  0.892  0.9128899999999998  0.81693  1.0000
  O   O34       1.0  0.69142  0.8445299999999998  0.73703  1.0000
  O   O35       1.0  0.57216  0.7795599999999998  0.82908  1.0000
  O   O36       1.0  0.89183  0.1817  0.15771  1.0000
  O   O37       1.0  0.03207  0.7028899999999999  0.01289  1.0000
  O   O38       1.0  0.18905  0.6663199999999998  0.93905  1.0000
  O   O39       1.0  0.33716  0.51592  0.93018  1.0000
  O   O40       1.0  0.3882  0.6144199999999997  0.02936  1.0000
  O   O41       1.0  0.37481  0.3596699999999999  0.05031  1.0000
  O   O42       1.0  0.39434  0.41506  0.18294  1.0000
  O   O43       1.0  0.19372  0.3464899999999999  0.26322  1.0000
  O   O44       1.0  0.07438  0.2814299999999999  0.17119  1.0000
  O   O45       1.0  0.39084  0.6803099999999997  0.8424200000000002  1.0000
  O   O46       1.0  0.96793  0.7028899999999999  0.48711  1.0000
  O   O47       1.0  0.81095  0.6663199999999998  0.56095  1.0000
  O   O48       1.0  0.66284  0.51592  0.56981  1.0000
  O   O49       1.0  0.6118  0.6144199999999997  0.47064  1.0000
  O   O50       1.0  0.62519  0.3596799999999999  0.4496900000000001  1.0000
  O   O51       1.0  0.60566  0.41506  0.31706  1.0000
  O   O52       1.0  0.80629  0.3464899999999999  0.23678  1.0000
  O   O53       1.0  0.9256400000000001  0.2814199999999999  0.32879  1.0000
  O   O54       1.0  0.60914  0.6803099999999997  0.65758  1.0000
  O   O55       1.0  0.5309  0.79779  0.4872100000000001  1.0000
  O   O56       1.0  0.69128  0.8318599999999998  0.55806  1.0000
  O   O57       1.0  0.8341800000000001  0.9828599999999997  0.57039  1.0000
  O   O58       1.0  0.89053  0.8880599999999997  0.4699200000000001  1.0000
  O   O59       1.0  0.87346  0.14198999999999995  0.44978  1.0000
  O   O60       1.0  0.8920400000000002  0.08712  0.31694  1.0000
  O   O61       1.0  0.69142  0.15546999999999994  0.23702  1.0000
  O   O62       1.0  0.57217  0.22045  0.32908  1.0000
  O   O63       1.0  0.8917500000000002  0.8182999999999998  0.65769  1.0000
  O   O64       1.0  0.46909000000000006  0.79779  0.01279  1.0000
  O   O65       1.0  0.30872  0.8318599999999998  0.94193  1.0000
  O   O66       1.0  0.16581  0.9828599999999997  0.9296  1.0000
  O   O67       1.0  0.10947000000000001  0.88807  0.0301  1.0000
  O   O68       1.0  0.12653  0.14198999999999995  0.05022  1.0000
  O   O69       1.0  0.10800000000000001  0.08710999999999999  0.18306  1.0000
  O   O70       1.0  0.30858  0.15547999999999995  0.26297  1.0000
  O   O71       1.0  0.42783  0.22045  0.17091  1.0000
  O   O72       1.0  0.10817  0.8182999999999998  0.84229  1.0000
