data_image0
_chemical_formula_structural       Zn6H44C84O24
_chemical_formula_sum              "Zn6 H44 C84 O24"
_cell_length_a       9.5988
_cell_length_b       10.95923
_cell_length_c       25.65473
_cell_angle_alpha    92.56491000000001
_cell_angle_beta     90.04129999999999
_cell_angle_gamma    115.71945

_symmetry_space_group_name_H-M    'P 1'
_symmetry_Int_Tables_number       1

loop_
  _symmetry_equiv_pos_as_xyz
  'x,y,z'

loop_
  _atom_site_type_symbol
  _atom_site_label
  _atom_site_symmetry_multiplicity
  _atom_site_fract_x
  _atom_site_fract_y
  _atom_site_fract_z
  _atom_site_occupancy
  Zn  Zn1       1.0  0.46467999999999987  0.8297299999999999  0.52696  1.0000
  Zn  Zn2       1.0  0.63047  0.17016000000000006  0.9728900000000003  1.0000
  Zn  Zn3       1.0  0.53533  0.17028  0.47304000000000007  1.0000
  Zn  Zn4       1.0  0.3695399999999999  0.8298499999999999  0.027110000000000002  1.0000
  Zn  Zn5       1.0  0.50001  0.5  0.5  1.0000
  Zn  Zn6       1.0  9.999999999999093e-06  0.5  0.9999900000000002  1.0000
  H   H1        1.0  0.020929999999999987  0.24592  0.50356  1.0000
  H   H2        1.0  0.21128999999999998  0.016850000000000004  0.58562  1.0000
  H   H3        1.0  0.7345499999999999  0.9419999999999998  0.6059700000000001  1.0000
  H   H4        1.0  0.18177999999999983  0.9647899999999999  0.67328  1.0000
  H   H5        1.0  0.13324999999999995  0.8113399999999998  0.74543  1.0000
  H   H6        1.0  0.65893  0.58898  0.6927300000000001  1.0000
  H   H7        1.0  0.7095099999999999  0.7391499999999999  0.6197400000000001  1.0000
  H   H8        1.0  0.016980000000000033  0.7675900000000001  0.8231400000000001  1.0000
  H   H9        1.0  0.9593299999999999  0.62717  0.90013  1.0000
  H   H10       1.0  0.63691  0.28266  0.80911  1.0000
  H   H11       1.0  0.6927  0.42195  0.7308800000000002  1.0000
  H   H12       1.0  0.7764799999999998  0.75519  0.9963200000000001  1.0000
  H   H13       1.0  0.19524  0.98221  0.91499  1.0000
  H   H14       1.0  0.79439  0.05945000000000003  0.8934100000000003  1.0000
  H   H15       1.0  0.21809999999999996  0.03457000000000002  0.8267800000000001  1.0000
  H   H16       1.0  0.32243  0.18786999999999998  0.7546400000000002  1.0000
  H   H17       1.0  0.07050999999999996  0.41180999999999995  0.8071600000000002  1.0000
  H   H18       1.0  0.97133  0.26176  0.88009  1.0000
  H   H19       1.0  0.2484  0.23164  0.6768200000000001  1.0000
  H   H20       1.0  0.3320299999999999  0.37209999999999993  0.59995  1.0000
  H   H21       1.0  0.35422  0.7178  0.69089  1.0000
  H   H22       1.0  0.26979999999999993  0.5782500000000002  0.7690400000000002  1.0000
  H   H23       1.0  0.9790799999999998  0.75408  0.49643  1.0000
  H   H24       1.0  0.7887200000000001  0.9831599999999999  0.41438000000000014  1.0000
  H   H25       1.0  0.26546  0.05801  0.39403  1.0000
  H   H26       1.0  0.81824  0.03522000000000001  0.32672000000000007  1.0000
  H   H27       1.0  0.86676  0.18866999999999998  0.2545700000000001  1.0000
  H   H28       1.0  0.3410899999999999  0.41102999999999995  0.30727000000000004  1.0000
  H   H29       1.0  0.29050999999999993  0.2608599999999999  0.38026000000000004  1.0000
  H   H30       1.0  0.9830299999999998  0.23240999999999998  0.17686000000000004  1.0000
  H   H31       1.0  0.04069000000000003  0.37284  0.09987  1.0000
  H   H32       1.0  0.36310999999999993  0.71735  0.19089  1.0000
  H   H33       1.0  0.30732  0.57806  0.26912  1.0000
  H   H34       1.0  0.22354  0.24480999999999997  0.0036800000000000005  1.0000
  H   H35       1.0  0.80477  0.0178  0.08501000000000002  1.0000
  H   H36       1.0  0.2056299999999999  0.94055  0.10659000000000003  1.0000
  H   H37       1.0  0.7819100000000001  0.9654300000000002  0.17322000000000007  1.0000
  H   H38       1.0  0.67759  0.81213  0.24536  1.0000
  H   H39       1.0  0.9295099999999998  0.5882  0.19284  1.0000
  H   H40       1.0  0.02867999999999999  0.73825  0.11991000000000003  1.0000
  H   H41       1.0  0.75161  0.76837  0.32318000000000013  1.0000
  H   H42       1.0  0.6679899999999999  0.62791  0.4000500000000001  1.0000
  H   H43       1.0  0.6458  0.2822  0.30911000000000005  1.0000
  H   H44       1.0  0.7302199999999999  0.42175999999999997  0.23096  1.0000
  C   C1        1.0  0.0061300000000000104  0.16783000000000003  0.5305800000000002  1.0000
  C   C2        1.0  0.13116  0.14047  0.5434  1.0000
  C   C3        1.0  0.11327999999999999  0.0392  0.5781400000000001  1.0000
  C   C4        1.0  0.9709299999999998  0.9668799999999999  0.60202  1.0000
  C   C5        1.0  0.84639  0.9946299999999999  0.5881000000000001  1.0000
  C   C6        1.0  0.86181  0.09144999999999999  0.5519900000000001  1.0000
  C   C7        1.0  0.9481599999999999  0.8664499999999999  0.6418100000000002  1.0000
  C   C8        1.0  0.06722999999999991  0.88224  0.6772700000000003  1.0000
  C   C9        1.0  0.03932999999999995  0.7962499999999999  0.7183300000000001  1.0000
  C   C10       1.0  0.8918499999999999  0.68997  0.72539  1.0000
  C   C11       1.0  0.7744799999999998  0.67009  0.6884600000000001  1.0000
  C   C12       1.0  0.8023999999999999  0.7565399999999999  0.6475900000000002  1.0000
  C   C13       1.0  0.8605  0.6047899999999999  0.7709100000000002  1.0000
  C   C14       1.0  0.9365  0.66067  0.81922  1.0000
  C   C15       1.0  0.90405  0.58248  0.8627100000000002  1.0000
  C   C16       1.0  0.79634  0.44583  0.85935  1.0000
  C   C17       1.0  0.7204499999999998  0.38865999999999995  0.81133  1.0000
  C   C18       1.0  0.75167  0.46732  0.76791  1.0000
  C   C19       1.0  0.28497000000000006  0.22031000000000006  0.5201600000000001  1.0000
  C   C20       1.0  0.72093  0.10465  0.53476  1.0000
  C   C21       1.0  0.7581800000000001  0.36446  0.90618  1.0000
  C   C22       1.0  0.83994  0.83308  0.96935  1.0000
  C   C23       1.0  0.99208  0.85994  0.9569000000000002  1.0000
  C   C24       1.0  0.07517000000000007  0.9607  0.92212  1.0000
  C   C25       1.0  0.0051800000000000145  0.03327000000000002  0.8979000000000003  1.0000
  C   C26       1.0  0.85308  0.006220000000000034  0.9115300000000002  1.0000
  C   C27       1.0  0.7719199999999999  0.90966  0.9476100000000001  1.0000
  C   C28       1.0  0.08281000000000001  0.13364  0.85818  1.0000
  C   C29       1.0  0.18604999999999997  0.11751000000000003  0.8227900000000002  1.0000
  C   C30       1.0  0.24373  0.20333  0.7817  1.0000
  C   C31       1.0  0.20227999999999996  0.31001  0.7745800000000003  1.0000
  C   C32       1.0  0.10505  0.33036  0.81147  1.0000
  C   C33       1.0  0.04685000000000003  0.24402000000000004  0.8523300000000001  1.0000
  C   C34       1.0  0.25552  0.3951200000000001  0.7290700000000002  1.0000
  C   C35       1.0  0.27526  0.33884  0.68076  1.0000
  C   C36       1.0  0.32139999999999996  0.41709  0.6373200000000002  1.0000
  C   C37       1.0  0.35111  0.55424  0.64073  1.0000
  C   C38       1.0  0.33181  0.61158  0.6886800000000002  1.0000
  C   C39       1.0  0.2839  0.53283  0.73204  1.0000
  C   C40       1.0  0.06560999999999992  0.7796499999999998  0.9805600000000002  1.0000
  C   C41       1.0  0.6177899999999998  0.8956499999999998  0.9649200000000002  1.0000
  C   C42       1.0  0.39588  0.63605  0.59404  1.0000
  C   C43       1.0  0.99388  0.83217  0.46942  1.0000
  C   C44       1.0  0.86886  0.8595299999999999  0.4565900000000001  1.0000
  C   C45       1.0  0.88673  0.9608099999999999  0.42186  1.0000
  C   C46       1.0  0.029090000000000005  0.03313000000000001  0.3979800000000001  1.0000
  C   C47       1.0  0.15361999999999998  0.00538000000000002  0.41190000000000004  1.0000
  C   C48       1.0  0.1381999999999999  0.9085499999999999  0.44801  1.0000
  C   C49       1.0  0.05184999999999999  0.13354999999999997  0.35819  1.0000
  C   C50       1.0  0.9327899999999999  0.11776  0.32273  1.0000
  C   C51       1.0  0.96068  0.20376  0.28167  1.0000
  C   C52       1.0  0.10815999999999999  0.31004  0.27461  1.0000
  C   C53       1.0  0.22554  0.32991  0.31154000000000004  1.0000
  C   C54       1.0  0.19761  0.24346  0.3524  1.0000
  C   C55       1.0  0.13952  0.39522  0.22909  1.0000
  C   C56       1.0  0.06351999999999998  0.33933  0.18078000000000002  1.0000
  C   C57       1.0  0.09595999999999998  0.41751999999999995  0.13729  1.0000
  C   C58       1.0  0.20367999999999997  0.55418  0.14065000000000003  1.0000
  C   C59       1.0  0.2795599999999999  0.61134  0.18867  1.0000
  C   C60       1.0  0.24834999999999996  0.53269  0.23209000000000002  1.0000
  C   C61       1.0  0.7150499999999999  0.77969  0.47984  1.0000
  C   C62       1.0  0.27908  0.8953499999999999  0.4652400000000001  1.0000
  C   C63       1.0  0.24183  0.63555  0.09382000000000001  1.0000
  C   C64       1.0  0.16007  0.16693  0.030650000000000007  1.0000
  C   C65       1.0  0.00793000000000001  0.14006  0.0431  1.0000
  C   C66       1.0  0.92485  0.03931  0.07788  1.0000
  C   C67       1.0  0.9948399999999998  0.96674  0.10210000000000002  1.0000
  C   C68       1.0  0.14693000000000003  0.99378  0.08847000000000001  1.0000
  C   C69       1.0  0.2281  0.09034999999999999  0.05239000000000001  1.0000
  C   C70       1.0  0.9172000000000001  0.86636  0.14182000000000003  1.0000
  C   C71       1.0  0.81396  0.8824999999999998  0.17721000000000006  1.0000
  C   C72       1.0  0.75628  0.79667  0.21830000000000005  1.0000
  C   C73       1.0  0.79774  0.69  0.22542000000000006  1.0000
  C   C74       1.0  0.89497  0.66965  0.18853000000000006  1.0000
  C   C75       1.0  0.9531599999999998  0.7559799999999999  0.14767000000000002  1.0000
  C   C76       1.0  0.7444899999999999  0.60488  0.27093000000000006  1.0000
  C   C77       1.0  0.7247499999999999  0.6611599999999999  0.31924  1.0000
  C   C78       1.0  0.67862  0.58291  0.36268  1.0000
  C   C79       1.0  0.6489  0.44576999999999994  0.35927  1.0000
  C   C80       1.0  0.66821  0.38842999999999994  0.31132  1.0000
  C   C81       1.0  0.71611  0.4671699999999999  0.26796  1.0000
  C   C82       1.0  0.93441  0.22035  0.019440000000000002  1.0000
  C   C83       1.0  0.38222  0.10435  0.03508  1.0000
  C   C84       1.0  0.60414  0.36395000000000005  0.4059600000000001  1.0000
  O   O1        1.0  0.58965  0.02428  0.55187  1.0000
  O   O2        1.0  0.66506  0.23826  0.90108  1.0000
  O   O3        1.0  0.38821  0.17778000000000002  0.5259100000000001  1.0000
  O   O4        1.0  0.73696  0.19537000000000002  0.50234  1.0000
  O   O5        1.0  0.30432  0.32888  0.49772  1.0000
  O   O6        1.0  0.8129199999999999  0.4199  0.95138  1.0000
  O   O7        1.0  0.56332  0.9744  0.94804  1.0000
  O   O8        1.0  0.4313399999999999  0.7628499999999999  0.59912  1.0000
  O   O9        1.0  0.21116999999999994  0.8221699999999998  0.9760100000000003  1.0000
  O   O10       1.0  0.54644  0.80501  0.9977000000000003  1.0000
  O   O11       1.0  0.9751  0.67041  0.00216  1.0000
  O   O12       1.0  0.39406  0.58025  0.54872  1.0000
  O   O13       1.0  0.41037  0.97572  0.44813  1.0000
  O   O14       1.0  0.33495  0.76175  0.09892000000000002  1.0000
  O   O15       1.0  0.6118  0.82222  0.47409  1.0000
  O   O16       1.0  0.26305  0.80463  0.4976600000000001  1.0000
  O   O17       1.0  0.69569  0.67112  0.5022800000000001  1.0000
  O   O18       1.0  0.18710000000000002  0.5801  0.04861  1.0000
  O   O19       1.0  0.43668999999999997  0.025609999999999997  0.05196000000000001  1.0000
  O   O20       1.0  0.5686699999999999  0.23715999999999998  0.40088000000000007  1.0000
  O   O21       1.0  0.78884  0.17784  0.023990000000000008  1.0000
  O   O22       1.0  0.4535699999999999  0.195  0.0023000000000000004  1.0000
  O   O23       1.0  0.024920000000000005  0.32959  0.99784  1.0000
  O   O24       1.0  0.6059599999999999  0.41975  0.45128  1.0000
