data_image0
_chemical_formula_structural       Cu4H64C96N32O8
_chemical_formula_sum              "Cu4 H64 C96 N32 O8"
_cell_length_a       16.34357
_cell_length_b       12.71336
_cell_length_c       12.74028
_cell_angle_alpha    90.34235
_cell_angle_beta     89.96582
_cell_angle_gamma    90.09601

_space_group_name_H-M_alt    "P 1"
_space_group_IT_number       1

loop_
  _space_group_symop_operation_xyz
  'x, y, z'

loop_
  _atom_site_type_symbol
  _atom_site_label
  _atom_site_symmetry_multiplicity
  _atom_site_fract_x
  _atom_site_fract_y
  _atom_site_fract_z
  _atom_site_occupancy
  Cu  Cu1       1.0  0.49914  0.80134  0.80107  1.0000
  Cu  Cu2       1.0  8.999999999999992e-05  0.19839999999999994  0.19863  1.0000
  Cu  Cu3       1.0  0.24942  0.69719  0.3036  1.0000
  Cu  Cu4       1.0  0.75  0.30332999999999993  0.69653  1.0000
  H   H1        1.0  0.59547  0.97756  0.74064  1.0000
  H   H2        1.0  0.74233  0.01095  0.69998  1.0000
  H   H3        1.0  0.7707  0.67491  0.65555  1.0000
  H   H4        1.0  0.62327  0.65597  0.6981400000000001  1.0000
  H   H5        1.0  0.23672  0.87424  0.4566  1.0000
  H   H6        1.0  0.10971  0.95188  0.52852  1.0000
  H   H7        1.0  0.0020000000000000005  0.6408099999999999  0.52068  1.0000
  H   H8        1.0  0.13463  0.5745099999999999  0.45171  1.0000
  H   H9        1.0  0.09731  0.022809999999999993  0.25557  1.0000
  H   H10       1.0  0.24383  0.9882  0.29666  1.0000
  H   H11       1.0  0.27446  0.32373  0.34189  1.0000
  H   H12       1.0  0.12758  0.34425999999999995  0.29827  1.0000
  H   H13       1.0  0.73925  0.1258  0.54198  1.0000
  H   H14       1.0  0.61375  0.04678  0.46691  1.0000
  H   H15       1.0  0.50356  0.3558  0.47601  1.0000
  H   H16       1.0  0.63434  0.4235299999999999  0.54973  1.0000
  H   H17       1.0  0.34756  0.75644  0.4782300000000001  1.0000
  H   H18       1.0  0.49498  0.7942399999999998  0.51069  1.0000
  H   H19       1.0  0.52326  0.8349  0.17539  1.0000
  H   H20       1.0  0.37548  0.7947599999999999  0.15713  1.0000
  H   H21       1.0  0.9884400000000001  0.0417  0.37493  1.0000
  H   H22       1.0  0.86363  0.96239  0.45060000000000006  1.0000
  H   H23       1.0  0.75439  0.9734299999999999  0.14191  1.0000
  H   H24       1.0  0.88442  0.051759999999999994  0.0774  1.0000
  H   H25       1.0  0.84835  0.24309999999999996  0.52231  1.0000
  H   H26       1.0  0.99559  0.20400999999999994  0.49049  1.0000
  H   H27       1.0  0.02245  0.16201  0.8256400000000002  1.0000
  H   H28       1.0  0.87486  0.2033  0.84359  1.0000
  H   H29       1.0  0.48664  0.9529799999999998  0.6249200000000001  1.0000
  H   H30       1.0  0.36166  0.029859999999999987  0.54758  1.0000
  H   H31       1.0  0.2527  0.02444  0.8571000000000001  1.0000
  H   H32       1.0  0.38336  0.9500399999999998  0.92307  1.0000
  H   H33       1.0  0.15052  0.52391  0.24268  1.0000
  H   H34       1.0  0.00317  0.49344999999999994  0.20355000000000006  1.0000
  H   H35       1.0  0.97847  0.82961  0.16184  1.0000
  H   H36       1.0  0.12639  0.84588  0.20304000000000003  1.0000
  H   H37       1.0  0.51142  0.62552  0.95808  1.0000
  H   H38       1.0  0.63663  0.5509  0.03676  1.0000
  H   H39       1.0  0.74597  0.86041  0.02033  1.0000
  H   H40       1.0  0.61503  0.92403  0.9444800000000001  1.0000
  H   H41       1.0  0.65227  0.47765  0.7571  1.0000
  H   H42       1.0  0.50534  0.51036  0.7972100000000002  1.0000
  H   H43       1.0  0.47718  0.17421999999999999  0.83916  1.0000
  H   H44       1.0  0.62464  0.15592  0.79713  1.0000
  H   H45       1.0  0.01201  0.37452  0.04417  1.0000
  H   H46       1.0  0.13809  0.4513399999999999  0.9692700000000002  1.0000
  H   H47       1.0  0.24548  0.14067  0.9755300000000001  1.0000
  H   H48       1.0  0.11402  0.07513999999999998  0.04784000000000001  1.0000
  H   H49       1.0  0.40319  0.74343  0.9766400000000001  1.0000
  H   H50       1.0  0.25633000000000006  0.7037  0.01186  1.0000
  H   H51       1.0  0.22487  0.65888  0.67724  1.0000
  H   H52       1.0  0.37237  0.70025  0.6560600000000001  1.0000
  H   H53       1.0  0.76141  0.45581999999999995  0.87372  1.0000
  H   H54       1.0  0.8873300000000002  0.5297699999999999  0.95265  1.0000
  H   H55       1.0  0.9957999999999999  0.52782  0.64267  1.0000
  H   H56       1.0  0.86439  0.45512  0.57524  1.0000
  H   H57       1.0  0.90225  0.25952  0.02342  1.0000
  H   H58       1.0  0.75557  0.30094  0.9919900000000001  1.0000
  H   H59       1.0  0.72865  0.34375  0.32761  1.0000
  H   H60       1.0  0.87604  0.30109  0.34489  1.0000
  H   H61       1.0  0.26062  0.54021  0.12694  1.0000
  H   H62       1.0  0.38746  0.46691999999999995  0.05066  1.0000
  H   H63       1.0  0.49478999999999995  0.4788  0.36091000000000006  1.0000
  H   H64       1.0  0.36245  0.54996  0.42588000000000004  1.0000
  C   C1        1.0  0.63664  0.91302  0.7216300000000001  1.0000
  C   C2        1.0  0.71796  0.9312599999999999  0.7000400000000001  1.0000
  C   C3        1.0  0.76929  0.84562  0.6738500000000001  1.0000
  C   C4        1.0  0.73441  0.7441699999999999  0.6743500000000002  1.0000
  C   C5        1.0  0.65203  0.7332  0.6981  1.0000
  C   C6        1.0  0.8519  0.86778  0.6434500000000001  1.0000
  C   C7        1.0  0.97343  0.84866  0.57945  1.0000
  C   C8        1.0  0.18403  0.8243899999999997  0.4732000000000001  1.0000
  C   C9        1.0  0.11337  0.86788  0.51356  1.0000
  C   C10       1.0  0.04505  0.8023899999999998  0.53406  1.0000
  C   C11       1.0  0.05303  0.69445  0.50948  1.0000
  C   C12       1.0  0.12687  0.6575699999999999  0.47056  1.0000
  C   C13       1.0  0.13888  0.08703999999999998  0.27471  1.0000
  C   C14       1.0  0.22  0.06807  0.29656  1.0000
  C   C15       1.0  0.27192  0.15317  0.32325  1.0000
  C   C16       1.0  0.23771  0.25486  0.32261  1.0000
  C   C17       1.0  0.15551  0.26661  0.29845  1.0000
  C   C18       1.0  0.3545  0.1305  0.35308  1.0000
  C   C19       1.0  0.47643  0.14898  0.41606  1.0000
  C   C20       1.0  0.68628  0.17486999999999997  0.5252100000000001  1.0000
  C   C21       1.0  0.61644  0.13066  0.48291  1.0000
  C   C22       1.0  0.54789  0.19529  0.46216  1.0000
  C   C23       1.0  0.55488  0.30304  0.4879800000000001  1.0000
  C   C24       1.0  0.62777  0.34067  0.5292  1.0000
  C   C25       1.0  0.38885  0.7742199999999998  0.41361  1.0000
  C   C26       1.0  0.47051  0.7942899999999998  0.4312800000000001  1.0000
  C   C27       1.0  0.52205  0.8189599999999998  0.3455400000000001  1.0000
  C   C28       1.0  0.4868  0.81755  0.24463  1.0000
  C   C29       1.0  0.40411  0.79536  0.23421  1.0000
  C   C30       1.0  0.60502  0.84855  0.36687000000000003  1.0000
  C   C31       1.0  0.72697  0.9117099999999999  0.34786  1.0000
  C   C32       1.0  0.9358  0.024819999999999995  0.32509  1.0000
  C   C33       1.0  0.8664  0.98006  0.36748  1.0000
  C   C34       1.0  0.79822  0.9586199999999998  0.30217  1.0000
  C   C35       1.0  0.80526  0.98604  0.19535000000000002  1.0000
  C   C36       1.0  0.87772  0.029860000000000005  0.15946000000000002  1.0000
  C   C37       1.0  0.88911  0.22485  0.58722  1.0000
  C   C38       1.0  0.9706  0.20402999999999993  0.56967  1.0000
  C   C39       1.0  0.0217  0.17886999999999995  0.6554  1.0000
  C   C40       1.0  0.9863500000000001  0.17965999999999996  0.75628  1.0000
  C   C41       1.0  0.9037700000000001  0.20267999999999994  0.76666  1.0000
  C   C42       1.0  0.10449  0.14912  0.63351  1.0000
  C   C43       1.0  0.22575  0.08451  0.65147  1.0000
  C   C44       1.0  0.43412  0.97126  0.6744700000000002  1.0000
  C   C45       1.0  0.36466  0.014619999999999998  0.63121  1.0000
  C   C46       1.0  0.29676  0.03733  0.69668  1.0000
  C   C47       1.0  0.30373  0.011759999999999998  0.80391  1.0000
  C   C48       1.0  0.3764  0.9697999999999998  0.84053  1.0000
  C   C49       1.0  0.11007  0.58924  0.2245  1.0000
  C   C50       1.0  0.02846  0.57264  0.20369000000000004  1.0000
  C   C51       1.0  0.9779  0.65914  0.17862000000000003  1.0000
  C   C52       1.0  0.01413  0.75977  0.17953  1.0000
  C   C53       1.0  0.09679  0.7691599999999998  0.20255  1.0000
  C   C54       1.0  0.89492  0.6378499999999999  0.14898  1.0000
  C   C55       1.0  0.77332  0.65566  0.08515  1.0000
  C   C56       1.0  0.56407  0.67581  0.9741  1.0000
  C   C57       1.0  0.63374  0.63403  0.018320000000000003  1.0000
  C   C58       1.0  0.70198  0.70012  0.03802  1.0000
  C   C59       1.0  0.69485  0.80676  0.00949  1.0000
  C   C60       1.0  0.62198  0.84205  0.96687  1.0000
  C   C61       1.0  0.6112  0.41292  0.7757400000000001  1.0000
  C   C62       1.0  0.5298  0.43077999999999994  0.79696  1.0000
  C   C63       1.0  0.47835  0.34504  0.8224100000000002  1.0000
  C   C64       1.0  0.51343  0.24371  0.82112  1.0000
  C   C65       1.0  0.59596  0.23314  0.79783  1.0000
  C   C66       1.0  0.39577  0.36719  0.853  1.0000
  C   C67       1.0  0.27422  0.34791  0.91703  1.0000
  C   C68       1.0  0.06454  0.32461999999999996  0.02688  1.0000
  C   C69       1.0  0.13466  0.3675799999999999  0.98456  1.0000
  C   C70       1.0  0.20258  0.30191  0.9625500000000002  1.0000
  C   C71       1.0  0.1947  0.19437999999999997  0.9876800000000002  1.0000
  C   C72       1.0  0.12145  0.15799999999999995  0.02866  1.0000
  C   C73       1.0  0.36139  0.7241099999999998  0.9128700000000002  1.0000
  C   C74       1.0  0.2801  0.70318  0.93207  1.0000
  C   C75       1.0  0.22806  0.6768899999999999  0.84725  1.0000
  C   C76       1.0  0.26213  0.67729  0.74566  1.0000
  C   C77       1.0  0.34457  0.70027  0.73367  1.0000
  C   C78       1.0  0.14546  0.64681  0.86967  1.0000
  C   C79       1.0  0.02376  0.58322  0.85064  1.0000
  C   C80       1.0  0.81413  0.4736999999999999  0.82449  1.0000
  C   C81       1.0  0.88411  0.51544  0.86867  1.0000
  C   C82       1.0  0.95234  0.5377  0.80386  1.0000
  C   C83       1.0  0.94485  0.51437  0.69579  1.0000
  C   C84       1.0  0.87171  0.47354  0.6583000000000001  1.0000
  C   C85       1.0  0.86156  0.27831999999999996  0.08849  1.0000
  C   C86       1.0  0.78021  0.30033  0.07128  1.0000
  C   C87       1.0  0.7291000000000001  0.32625  0.15722  1.0000
  C   C88       1.0  0.76458  0.3251  0.25806  1.0000
  C   C89       1.0  0.84705  0.30127  0.26802  1.0000
  C   C90       1.0  0.6462100000000001  0.35565  0.13552  1.0000
  C   C91       1.0  0.5241  0.41813999999999996  0.15426  1.0000
  C   C92       1.0  0.31327  0.5245099999999999  0.17693  1.0000
  C   C93       1.0  0.38392  0.48321999999999987  0.13426  1.0000
  C   C94       1.0  0.45213  0.46355  0.19987  1.0000
  C   C95       1.0  0.44389  0.48951999999999996  0.30725  1.0000
  C   C96       1.0  0.37013  0.52945  0.34336  1.0000
  N   N1        1.0  0.60209  0.81534  0.7213600000000002  1.0000
  N   N2        1.0  0.88896  0.96027  0.64972  1.0000
  N   N3        1.0  0.96598  0.9480899999999999  0.60943  1.0000
  N   N4        1.0  0.19279  0.71988  0.45074  1.0000
  N   N5        1.0  0.10488  0.18491  0.27517  1.0000
  N   N6        1.0  0.39066  0.03746  0.34788  1.0000
  N   N7        1.0  0.46795  0.04927999999999999  0.3875200000000001  1.0000
  N   N8        1.0  0.69387  0.27914  0.54959  1.0000
  N   N9        1.0  0.35391  0.7743199999999998  0.31648  1.0000
  N   N10       1.0  0.641  0.8465099999999998  0.45993  1.0000
  N   N11       1.0  0.71816  0.8862899999999998  0.44783000000000006  1.0000
  N   N12       1.0  0.94337  0.05099  0.22179  1.0000
  N   N13       1.0  0.85403  0.22487999999999994  0.68434  1.0000
  N   N14       1.0  0.14073  0.15301999999999996  0.54062  1.0000
  N   N15       1.0  0.21754  0.11231  0.5521  1.0000
  N   N16       1.0  0.442  0.9480999999999999  0.7783900000000001  1.0000
  N   N17       1.0  0.1459  0.68613  0.22466  1.0000
  N   N18       1.0  0.8585  0.54485  0.15347  1.0000
  N   N19       1.0  0.78155  0.55621  0.11332000000000003  1.0000
  N   N20       1.0  0.55626  0.77911  0.9474  1.0000
  N   N21       1.0  0.64605  0.31552  0.77571  1.0000
  N   N22       1.0  0.35991  0.46054  0.85172  1.0000
  N   N23       1.0  0.283  0.44825  0.89216  1.0000
  N   N24       1.0  0.05593  0.22046  0.049850000000000005  1.0000
  N   N25       1.0  0.39532  0.72302  0.8151  1.0000
  N   N26       1.0  0.10909  0.6514299999999998  0.9624300000000002  1.0000
  N   N27       1.0  0.03191  0.61133  0.95033  1.0000
  N   N28       1.0  0.80599  0.4515199999999999  0.7200600000000003  1.0000
  N   N29       1.0  0.89675  0.27827  0.18554000000000004  1.0000
  N   N30       1.0  0.61042  0.35257999999999995  0.04225  1.0000
  N   N31       1.0  0.53316  0.39196  0.05419000000000001  1.0000
  N   N32       1.0  0.3045  0.54884  0.28083  1.0000
  O   O1        1.0  0.90232  0.79214  0.59868  1.0000
  O   O2        1.0  0.4059  0.20626999999999998  0.39608000000000004  1.0000
  O   O3        1.0  0.65681  0.8889699999999998  0.2906  1.0000
  O   O4        1.0  0.15543  0.10611  0.70896  1.0000
  O   O5        1.0  0.84377  0.7134999999999999  0.10619  1.0000
  O   O6        1.0  0.34427  0.29069  0.89384  1.0000
  O   O7        1.0  0.09442  0.6037  0.79374  1.0000
  O   O8        1.0  0.59432  0.39658  0.21171000000000006  1.0000
