data_image0
_chemical_formula_structural       Ni24H48C48N72O8
_chemical_formula_sum              "Ni24 H48 C48 N72 O8"
_cell_length_a       17.1614
_cell_length_b       17.16187
_cell_length_c       17.16249
_cell_angle_alpha    59.94418999999999
_cell_angle_beta     59.947520000000004
_cell_angle_gamma    59.95208

_symmetry_space_group_name_H-M    'P 1'
_symmetry_Int_Tables_number       1

loop_
  _symmetry_equiv_pos_as_xyz
  'x,y,z'

loop_
  _atom_site_type_symbol
  _atom_site_label
  _atom_site_symmetry_multiplicity
  _atom_site_fract_x
  _atom_site_fract_y
  _atom_site_fract_z
  _atom_site_occupancy
  Ni  Ni1       1.0  0.7502399999999998  0.13919  0.8607100000000002  1.0000
  Ni  Ni2       1.0  0.13934999999999978  0.74959  0.7501400000000003  1.0000
  Ni  Ni3       1.0  0.25005999999999995  0.3608399999999999  0.6390600000000002  1.0000
  Ni  Ni4       1.0  0.36069000000000007  0.24991000000000008  0.25017  1.0000
  Ni  Ni5       1.0  0.25003999999999976  0.7499000000000002  0.8607400000000002  1.0000
  Ni  Ni6       1.0  0.3608899999999999  0.13898999999999992  0.7498300000000002  1.0000
  Ni  Ni7       1.0  0.7499699999999998  0.25005000000000005  0.6393100000000003  1.0000
  Ni  Ni8       1.0  0.13927000000000012  0.36071  0.24996  1.0000
  Ni  Ni9       1.0  0.13911999999999983  0.24997  0.8608200000000003  1.0000
  Ni  Ni10      1.0  0.7503299999999999  0.36086000000000007  0.7498500000000002  1.0000
  Ni  Ni11      1.0  0.3608400000000001  0.7494800000000003  0.63946  1.0000
  Ni  Ni12      1.0  0.25003  0.13919999999999996  0.24986000000000005  1.0000
  Ni  Ni13      1.0  0.25003999999999993  0.86072  0.13921  1.0000
  Ni  Ni14      1.0  0.86083  0.25003  0.24997000000000005  1.0000
  Ni  Ni15      1.0  0.74987  0.6392000000000002  0.36079000000000006  1.0000
  Ni  Ni16      1.0  0.63912  0.7499000000000003  0.75009  1.0000
  Ni  Ni17      1.0  0.7500500000000001  0.24975000000000006  0.13934  1.0000
  Ni  Ni18      1.0  0.6390399999999999  0.8608000000000002  0.24994  1.0000
  Ni  Ni19      1.0  0.2500299999999999  0.75005  0.36079000000000006  1.0000
  Ni  Ni20      1.0  0.8605899999999997  0.6392300000000002  0.7503800000000002  1.0000
  Ni  Ni21      1.0  0.8608200000000001  0.75002  0.13899  1.0000
  Ni  Ni22      1.0  0.2498199999999999  0.6392300000000002  0.24999000000000002  1.0000
  Ni  Ni23      1.0  0.63919  0.24987  0.36083  1.0000
  Ni  Ni24      1.0  0.7499199999999998  0.8605100000000004  0.7504  1.0000
  H   H1        1.0  0.7391299999999996  0.9384600000000003  0.89462  1.0000
  H   H2        1.0  0.93862  0.7391300000000001  0.9276900000000002  1.0000
  H   H3        1.0  0.42798  0.3945800000000002  0.43847  1.0000
  H   H4        1.0  0.39450999999999997  0.4278400000000001  0.23874000000000006  1.0000
  H   H5        1.0  0.42779999999999996  0.7392  0.8943500000000002  1.0000
  H   H6        1.0  0.39472000000000007  0.93858  0.9277500000000002  1.0000
  H   H7        1.0  0.7389299999999999  0.4280300000000002  0.43871  1.0000
  H   H8        1.0  0.93867  0.39467000000000013  0.23858  1.0000
  H   H9        1.0  0.9384399999999999  0.42807999999999996  0.8943800000000002  1.0000
  H   H10       1.0  0.7390200000000002  0.39449  0.9277700000000002  1.0000
  H   H11       1.0  0.39459999999999995  0.7391499999999999  0.4385900000000001  1.0000
  H   H12       1.0  0.42788000000000015  0.9389200000000002  0.23858  1.0000
  H   H13       1.0  0.7612600000000002  0.5612799999999998  0.5720200000000002  1.0000
  H   H14       1.0  0.5612699999999998  0.7613400000000001  0.6051600000000003  1.0000
  H   H15       1.0  0.07238  0.10548  0.26091  1.0000
  H   H16       1.0  0.10545999999999998  0.07195000000000001  0.06150000000000001  1.0000
  H   H17       1.0  0.07188999999999986  0.7615200000000002  0.06106000000000001  1.0000
  H   H18       1.0  0.10529999999999992  0.5614500000000002  0.26097  1.0000
  H   H19       1.0  0.7611899999999999  0.07216999999999998  0.60553  1.0000
  H   H20       1.0  0.5613299999999998  0.10529999999999995  0.5720500000000002  1.0000
  H   H21       1.0  0.56135  0.07208000000000003  0.26085  1.0000
  H   H22       1.0  0.76125  0.10537  0.06136000000000001  1.0000
  H   H23       1.0  0.10540999999999993  0.7614199999999999  0.5721600000000002  1.0000
  H   H24       1.0  0.07230999999999989  0.5612799999999999  0.6051300000000002  1.0000
  H   H25       1.0  0.26111  0.061270000000000005  0.10527000000000003  1.0000
  H   H26       1.0  0.06133000000000001  0.26096  0.07214000000000002  1.0000
  H   H27       1.0  0.5718299999999996  0.6054399999999999  0.5614900000000003  1.0000
  H   H28       1.0  0.60555  0.5723500000000002  0.76079  1.0000
  H   H29       1.0  0.5723299999999999  0.2610300000000001  0.10548000000000003  1.0000
  H   H30       1.0  0.60557  0.06138000000000001  0.07194000000000003  1.0000
  H   H31       1.0  0.2611399999999999  0.57213  0.5612500000000001  1.0000
  H   H32       1.0  0.061399999999999996  0.60532  0.76082  1.0000
  H   H33       1.0  0.06126999999999982  0.5722600000000002  0.10519000000000003  1.0000
  H   H34       1.0  0.2609199999999999  0.6056300000000002  0.07217  1.0000
  H   H35       1.0  0.6053300000000003  0.26105000000000006  0.5614  1.0000
  H   H36       1.0  0.5724199999999999  0.06109  0.76074  1.0000
  H   H37       1.0  0.23887999999999993  0.4388500000000001  0.4278300000000001  1.0000
  H   H38       1.0  0.43855999999999995  0.23872000000000002  0.3947  1.0000
  H   H39       1.0  0.9278899999999999  0.8946800000000001  0.73844  1.0000
  H   H40       1.0  0.8948499999999998  0.9277000000000004  0.9386  1.0000
  H   H41       1.0  0.9278899999999999  0.23871000000000006  0.9388900000000001  1.0000
  H   H42       1.0  0.8948999999999998  0.43909000000000004  0.7383700000000002  1.0000
  H   H43       1.0  0.23887999999999998  0.92781  0.39451000000000014  1.0000
  H   H44       1.0  0.43844999999999984  0.8948200000000002  0.42777  1.0000
  H   H45       1.0  0.43915999999999994  0.92766  0.7383400000000002  1.0000
  H   H46       1.0  0.23874  0.89484  0.93869  1.0000
  H   H47       1.0  0.89449  0.23890000000000003  0.4277  1.0000
  H   H48       1.0  0.92795  0.43855  0.3944400000000001  1.0000
  C   C1        1.0  0.74459  0.99046  0.8237200000000001  1.0000
  C   C2        1.0  0.9905899999999996  0.7444300000000003  0.9412300000000002  1.0000
  C   C3        1.0  0.44145000000000006  0.32364  0.4904600000000001  1.0000
  C   C4        1.0  0.3236199999999999  0.44142  0.24411000000000005  1.0000
  C   C5        1.0  0.44130999999999976  0.7445700000000002  0.8234800000000002  1.0000
  C   C6        1.0  0.32375  0.9904799999999999  0.94135  1.0000
  C   C7        1.0  0.7444  0.44140000000000024  0.49069  1.0000
  C   C8        1.0  0.99076  0.32381  0.24393  1.0000
  C   C9        1.0  0.9905099999999997  0.44151  0.8235000000000002  1.0000
  C   C10       1.0  0.7445499999999998  0.3235700000000001  0.9412800000000002  1.0000
  C   C11       1.0  0.32371999999999995  0.74441  0.4906300000000001  1.0000
  C   C12       1.0  0.44138999999999984  0.9908700000000003  0.24393  1.0000
  C   C13       1.0  0.7559199999999998  0.50932  0.5585200000000002  1.0000
  C   C14       1.0  0.50931  0.7559  0.67608  1.0000
  C   C15       1.0  0.05876999999999999  0.17641  0.25543  1.0000
  C   C16       1.0  0.17633  0.05844000000000002  0.009410000000000002  1.0000
  C   C17       1.0  0.058510000000000006  0.75595  0.009140000000000004  1.0000
  C   C18       1.0  0.17624  0.50948  0.25548000000000004  1.0000
  C   C19       1.0  0.75583  0.05859999999999999  0.67639  1.0000
  C   C20       1.0  0.50936  0.17620000000000005  0.55851  1.0000
  C   C21       1.0  0.50935  0.05870000000000002  0.2554  1.0000
  C   C22       1.0  0.75602  0.17619000000000007  0.00922  1.0000
  C   C23       1.0  0.17633999999999997  0.75581  0.55868  1.0000
  C   C24       1.0  0.05866999999999999  0.50939  0.67608  1.0000
  C   C25       1.0  0.25573999999999997  0.009359999999999993  0.17620000000000002  1.0000
  C   C26       1.0  0.009420000000000003  0.25549  0.05866000000000001  1.0000
  C   C27       1.0  0.5583599999999999  0.67633  0.5094100000000001  1.0000
  C   C28       1.0  0.6764800000000001  0.5587  0.75541  1.0000
  C   C29       1.0  0.5586799999999998  0.2555000000000001  0.17643  1.0000
  C   C30       1.0  0.67645  0.009369999999999996  0.05841000000000001  1.0000
  C   C31       1.0  0.25574999999999987  0.55864  0.5092800000000001  1.0000
  C   C32       1.0  0.009470000000000056  0.6762799999999999  0.7554500000000001  1.0000
  C   C33       1.0  0.009329999999999977  0.5586200000000002  0.1761  1.0000
  C   C34       1.0  0.2554999999999999  0.6765200000000002  0.05864  1.0000
  C   C35       1.0  0.67628  0.25556  0.50946  1.0000
  C   C36       1.0  0.5587499999999999  0.009189999999999957  0.7554500000000001  1.0000
  C   C37       1.0  0.24428999999999987  0.49074000000000007  0.4413800000000001  1.0000
  C   C38       1.0  0.4905999999999999  0.24401000000000006  0.3238400000000001  1.0000
  C   C39       1.0  0.9414599999999995  0.82371  0.7440000000000002  1.0000
  C   C40       1.0  0.8238699999999999  0.9413300000000002  0.9904800000000002  1.0000
  C   C41       1.0  0.94146  0.24403000000000002  0.99082  1.0000
  C   C42       1.0  0.8239  0.4909100000000001  0.7438800000000001  1.0000
  C   C43       1.0  0.24431999999999998  0.9413900000000002  0.3236  1.0000
  C   C44       1.0  0.4903599999999999  0.8238200000000002  0.4413600000000001  1.0000
  C   C45       1.0  0.4909199999999998  0.94127  0.7439100000000002  1.0000
  C   C46       1.0  0.24412999999999993  0.8239100000000003  0.9906600000000001  1.0000
  C   C47       1.0  0.8236100000000002  0.24423999999999996  0.4413800000000001  1.0000
  C   C48       1.0  0.9413999999999998  0.49052000000000023  0.3235  1.0000
  N   N1        1.0  0.7471799999999998  0.07748999999999998  0.7970800000000001  1.0000
  N   N2        1.0  0.07768999999999995  0.7466799999999999  0.8783300000000003  1.0000
  N   N3        1.0  0.3784700000000001  0.29707999999999996  0.5775900000000002  1.0000
  N   N4        1.0  0.29708999999999985  0.3785100000000001  0.24654000000000006  1.0000
  N   N5        1.0  0.3783999999999998  0.7468100000000001  0.7971100000000002  1.0000
  N   N6        1.0  0.2971299999999999  0.07754  0.8783800000000002  1.0000
  N   N7        1.0  0.7469299999999999  0.37838  0.5777600000000003  1.0000
  N   N8        1.0  0.07781999999999994  0.2972000000000001  0.24644000000000005  1.0000
  N   N9        1.0  0.07759999999999989  0.37848000000000015  0.79704  1.0000
  N   N10       1.0  0.7471399999999999  0.29706000000000005  0.8782500000000002  1.0000
  N   N11       1.0  0.29723999999999995  0.74661  0.5777600000000003  1.0000
  N   N12       1.0  0.37837999999999994  0.07785999999999998  0.24656000000000006  1.0000
  N   N13       1.0  0.7534699999999999  0.42224999999999996  0.6215200000000002  1.0000
  N   N14       1.0  0.42237999999999976  0.7531500000000002  0.70278  1.0000
  N   N15       1.0  0.12168999999999998  0.20298000000000008  0.25293  1.0000
  N   N16       1.0  0.20286999999999994  0.12144999999999995  0.9222900000000003  1.0000
  N   N17       1.0  0.12163  0.7531800000000002  0.92221  1.0000
  N   N18       1.0  0.20288  0.4224400000000001  0.25295  1.0000
  N   N19       1.0  0.75351  0.12149  0.70289  1.0000
  N   N20       1.0  0.42232  0.20282000000000003  0.6214900000000002  1.0000
  N   N21       1.0  0.4222399999999999  0.12167000000000003  0.25307  1.0000
  N   N22       1.0  0.75361  0.20280999999999988  0.9221200000000003  1.0000
  N   N23       1.0  0.20288999999999996  0.7530400000000002  0.6217400000000002  1.0000
  N   N24       1.0  0.12159000000000003  0.42232  0.70278  1.0000
  N   N25       1.0  0.25324999999999986  0.9222900000000003  0.20287000000000002  1.0000
  N   N26       1.0  0.9223500000000001  0.25301  0.12168000000000002  1.0000
  N   N27       1.0  0.6213600000000001  0.70285  0.4223600000000001  1.0000
  N   N28       1.0  0.7028499999999996  0.6216400000000001  0.7531100000000002  1.0000
  N   N29       1.0  0.6216  0.25295000000000006  0.20304000000000005  1.0000
  N   N30       1.0  0.7029  0.9222600000000002  0.12140000000000002  1.0000
  N   N31       1.0  0.25318999999999986  0.6217000000000003  0.42224000000000006  1.0000
  N   N32       1.0  0.9223899999999998  0.7028600000000002  0.7531300000000002  1.0000
  N   N33       1.0  0.9223099999999997  0.6216200000000002  0.20272000000000007  1.0000
  N   N34       1.0  0.25308999999999987  0.7029200000000002  0.12161000000000002  1.0000
  N   N35       1.0  0.7029099999999999  0.25293  0.42243000000000014  1.0000
  N   N36       1.0  0.62162  0.92203  0.7533200000000001  1.0000
  N   N37       1.0  0.24669999999999997  0.57782  0.3784000000000001  1.0000
  N   N38       1.0  0.5776699999999998  0.24647000000000005  0.2972700000000001  1.0000
  N   N39       1.0  0.8784599999999999  0.7971800000000002  0.74667  1.0000
  N   N40       1.0  0.79715  0.8783400000000002  0.07751  1.0000
  N   N41       1.0  0.8784699999999999  0.24649999999999997  0.07791000000000002  1.0000
  N   N42       1.0  0.7970799999999999  0.57788  0.74664  1.0000
  N   N43       1.0  0.24679999999999988  0.8784100000000001  0.29711  1.0000
  N   N44       1.0  0.5773899999999997  0.7972200000000003  0.3784000000000001  1.0000
  N   N45       1.0  0.5778299999999998  0.87819  0.74676  1.0000
  N   N46       1.0  0.2467099999999999  0.7972500000000002  0.07767  1.0000
  N   N47       1.0  0.7971300000000001  0.24655  0.37848  1.0000
  N   N48       1.0  0.87842  0.5776600000000001  0.2969900000000001  1.0000
  N   N49       1.0  0.7500999999999998  0.9759600000000004  0.7500800000000002  1.0000
  N   N50       1.0  0.9758900000000001  0.7503100000000003  0.023750000000000007  1.0000
  N   N51       1.0  0.524  0.24988  0.47587  1.0000
  N   N52       1.0  0.2499000000000001  0.52404  0.24987  1.0000
  N   N53       1.0  0.5238999999999999  0.7503300000000003  0.7496800000000001  1.0000
  N   N54       1.0  0.2500499999999999  0.9758400000000003  0.024010000000000007  1.0000
  N   N55       1.0  0.75008  0.524  0.4760000000000001  1.0000
  N   N56       1.0  0.9761600000000001  0.25012  0.24969000000000005  1.0000
  N   N57       1.0  0.97599  0.5241  0.7497100000000002  1.0000
  N   N58       1.0  0.75022  0.24983000000000005  0.0239  1.0000
  N   N59       1.0  0.25002999999999986  0.7502100000000003  0.47601  1.0000
  N   N60       1.0  0.5239799999999999  0.9761600000000002  0.24963000000000005  1.0000
  N   N61       1.0  0.25008  0.023989999999999977  0.24981000000000006  1.0000
  N   N62       1.0  0.024030000000000006  0.24981  0.97609  1.0000
  N   N63       1.0  0.47575999999999996  0.75008  0.52401  1.0000
  N   N64       1.0  0.7503599999999998  0.4761900000000002  0.74951  1.0000
  N   N65       1.0  0.47602999999999995  0.24978  0.25012  1.0000
  N   N66       1.0  0.7502099999999999  0.02397999999999989  0.9758200000000002  1.0000
  N   N67       1.0  0.2500599999999999  0.4760500000000002  0.52393  1.0000
  N   N68       1.0  0.024099999999999996  0.7499599999999998  0.7497200000000003  1.0000
  N   N69       1.0  0.023999999999999886  0.47595000000000015  0.24974000000000005  1.0000
  N   N70       1.0  0.24976999999999994  0.7503000000000002  0.97603  1.0000
  N   N71       1.0  0.7499  0.25002000000000013  0.52398  1.0000
  N   N72       1.0  0.4762199999999999  0.023899999999999953  0.7495500000000003  1.0000
  O   O1        1.0  0.7463199999999998  0.25138000000000005  0.7512900000000002  1.0000
  O   O2        1.0  0.2514  0.7456299999999998  0.7515100000000002  1.0000
  O   O3        1.0  0.25084999999999996  0.25074000000000013  0.75076  1.0000
  O   O4        1.0  0.24837999999999996  0.24825000000000008  0.25493  1.0000
  O   O5        1.0  0.24991999999999986  0.7499600000000002  0.24998000000000006  1.0000
  O   O6        1.0  0.74871  0.2538500000000001  0.24874000000000004  1.0000
  O   O7        1.0  0.75075  0.7509  0.25091  1.0000
  O   O8        1.0  0.74812  0.7480699999999999  0.75569  1.0000
