data_image0
_chemical_formula_structural       Zn12H24C72O52
_chemical_formula_sum              "Zn12 H24 C72 O52"
_cell_length_a       17.02567
_cell_length_b       17.06742
_cell_length_c       17.0569
_cell_angle_alpha    63.95591000000002
_cell_angle_beta     73.57982
_cell_angle_gamma    106.16492

_space_group_name_H-M_alt    "P 1"
_space_group_IT_number       1

loop_
  _space_group_symop_operation_xyz
  'x, y, z'

loop_
  _atom_site_type_symbol
  _atom_site_label
  _atom_site_symmetry_multiplicity
  _atom_site_fract_x
  _atom_site_fract_y
  _atom_site_fract_z
  _atom_site_occupancy
  Zn  Zn1       1.0  0.62368  0.31668  0.54473  1.0000
  Zn  Zn2       1.0  0.37675  0.83198  0.30655  1.0000
  Zn  Zn3       1.0  0.8610399999999997  0.6928999999999998  0.68336  1.0000
  Zn  Zn4       1.0  0.14029999999999998  0.45633999999999997  0.1683  1.0000
  Zn  Zn5       1.0  0.13891  0.33266  0.04424  1.0000
  Zn  Zn6       1.0  0.86105  0.8166300000000001  0.80673  1.0000
  Zn  Zn7       1.0  0.62665  0.9561900000000001  0.18279  1.0000
  Zn  Zn8       1.0  0.37335000000000007  0.19081000000000012  0.6703299999999999  1.0000
  Zn  Zn9       1.0  0.5001000000000002  0.36569999999999997  0.45165  1.0000
  Zn  Zn10      1.0  0.5001199999999999  0.048549999999999996  0.13399  1.0000
  Zn  Zn11      1.0  0.81726  0.8684400000000001  0.63169  1.0000
  Zn  Zn12      1.0  0.18303000000000005  0.5510200000000002  0.94888  1.0000
  H   H1        1.0  0.9830900000000002  0.6438000000000003  0.9680899999999998  1.0000
  H   H2        1.0  0.6951899999999999  0.5372400000000002  0.15622999999999995  1.0000
  H   H3        1.0  0.8558000000000002  0.41702000000000006  0.27846  1.0000
  H   H4        1.0  0.016980000000000033  0.04883000000000005  0.33896999999999994  1.0000
  H   H5        1.0  0.3048699999999999  0.15002000000000001  0.15688999999999995  1.0000
  H   H6        1.0  0.14615000000000006  0.8673900000000001  0.4375399999999999  1.0000
  H   H7        1.0  0.6143599999999999  0.6616100000000001  0.35523  1.0000
  H   H8        1.0  0.69295  0.84285  0.4614499999999999  1.0000
  H   H9        1.0  0.6943699999999998  0.56207  0.5850799999999999  1.0000
  H   H10       1.0  0.38506  0.030610000000000054  0.9526599999999998  1.0000
  H   H11       1.0  0.30807  0.84659  0.84885  1.0000
  H   H12       1.0  0.3066999999999999  0.72154  0.13127999999999998  1.0000
  H   H13       1.0  0.38581  0.54736  0.46864  1.0000
  H   H14       1.0  0.30788  0.6503700000000001  0.6537999999999998  1.0000
  H   H15       1.0  0.30664  0.3683400000000001  0.7784499999999999  1.0000
  H   H16       1.0  0.61393  0.14518999999999996  0.83871  1.0000
  H   H17       1.0  0.69262  0.03847000000000014  0.6573999999999998  1.0000
  H   H18       1.0  0.6937200000000001  0.91496  0.9382799999999998  1.0000
  H   H19       1.0  0.9826199999999999  0.5313700000000002  0.8547999999999998  1.0000
  H   H20       1.0  0.69499  0.34465999999999997  0.96109  1.0000
  H   H21       1.0  0.85452  0.22188000000000002  0.08297999999999997  1.0000
  H   H22       1.0  0.016640000000000054  0.16151000000000004  0.4517499999999999  1.0000
  H   H23       1.0  0.30426  0.34345  0.3496699999999999  1.0000
  H   H24       1.0  0.14626  0.062330000000000045  0.63213  1.0000
  C   C1        1.0  0.9274599999999998  0.5281500000000001  0.12107999999999997  1.0000
  C   C2        1.0  0.92214  0.59503  0.04017999999999999  1.0000
  C   C3        1.0  0.83887  0.59937  0.05314999999999999  1.0000
  C   C4        1.0  0.76035  0.53513  0.14632  1.0000
  C   C5        1.0  0.76707  0.47045  0.22730999999999996  1.0000
  C   C6        1.0  0.8506699999999999  0.4668700000000001  0.2153  1.0000
  C   C7        1.0  0.37278000000000006  0.37897000000000014  0.6042999999999997  1.0000
  C   C8        1.0  0.8357999999999999  0.6751000000000003  0.9686099999999997  1.0000
  C   C9        1.0  0.68541  0.41034999999999994  0.32878  1.0000
  C   C10       1.0  0.07348000000000003  0.9522400000000001  0.39886  1.0000
  C   C11       1.0  0.07811999999999998  0.03799000000000002  0.32679  1.0000
  C   C12       1.0  0.16109000000000004  0.10851000000000002  0.23903999999999995  1.0000
  C   C13       1.0  0.24001  0.09449000000000005  0.22437999999999994  1.0000
  C   C14       1.0  0.23395  0.007160000000000043  0.29552999999999996  1.0000
  C   C15       1.0  0.15063999999999997  0.9354  0.38292  1.0000
  C   C16       1.0  0.6273500000000002  0.022610000000000092  0.9939699999999998  1.0000
  C   C17       1.0  0.16338999999999998  0.19562999999999997  0.16051  1.0000
  C   C18       1.0  0.31586  0.98767  0.27367  1.0000
  C   C19       1.0  0.6494700000000001  0.60104  0.47282999999999986  1.0000
  C   C20       1.0  0.63683  0.67357  0.4044299999999999  1.0000
  C   C21       1.0  0.6542799999999998  0.7615199999999999  0.39899  1.0000
  C   C22       1.0  0.6813099999999997  0.7755700000000001  0.4641299999999999  1.0000
  C   C23       1.0  0.6966799999999995  0.7041499999999999  0.53014  1.0000
  C   C24       1.0  0.68114  0.61674  0.53461  1.0000
  C   C25       1.0  0.9837300000000002  0.006840000000000104  0.6217599999999999  1.0000
  C   C26       1.0  0.64791  0.84073  0.32107  1.0000
  C   C27       1.0  0.7383299999999998  0.7262099999999999  0.58967  1.0000
  C   C28       1.0  0.35071  0.87818  0.04800999999999998  1.0000
  C   C29       1.0  0.3631500000000001  0.9591100000000001  0.9629699999999998  1.0000
  C   C30       1.0  0.3463000000000001  0.94731  0.8920799999999999  1.0000
  C   C31       1.0  0.3195800000000001  0.8553800000000001  0.9046899999999998  1.0000
  C   C32       1.0  0.30417  0.7740299999999999  0.99152  1.0000
  C   C33       1.0  0.31954  0.78503  0.06354  1.0000
  C   C34       1.0  0.01645000000000011  0.39505000000000007  0.9761899999999998  1.0000
  C   C35       1.0  0.35263  0.03172  0.80667  1.0000
  C   C36       1.0  0.26265  0.67292  0.01102  1.0000
  C   C37       1.0  0.35094  0.4518  0.62136  1.0000
  C   C38       1.0  0.36380000000000007  0.5370500000000002  0.54029  1.0000
  C   C39       1.0  0.34745  0.608  0.55239  1.0000
  C   C40       1.0  0.31954  0.59465  0.64485  1.0000
  C   C41       1.0  0.3036500000000001  0.5075800000000001  0.7262099999999998  1.0000
  C   C42       1.0  0.3192599999999999  0.43584000000000006  0.71491  1.0000
  C   C43       1.0  0.017669999999999988  0.52382  0.10345999999999997  1.0000
  C   C44       1.0  0.3558  0.69496  0.46778999999999993  1.0000
  C   C45       1.0  0.26225000000000015  0.48850000000000016  0.8273399999999997  1.0000
  C   C46       1.0  0.64917  0.02759000000000002  0.89919  1.0000
  C   C47       1.0  0.6362899999999999  0.09585999999999997  0.82678  1.0000
  C   C48       1.0  0.6531  0.10049000000000007  0.7391899999999999  1.0000
  C   C49       1.0  0.6809  0.03583999999999998  0.72477  1.0000
  C   C50       1.0  0.6964399999999998  0.9701000000000001  0.7961599999999998  1.0000
  C   C51       1.0  0.68086  0.9657499999999999  0.88353  1.0000
  C   C52       1.0  0.98351  0.8797600000000001  0.4934399999999999  1.0000
  C   C53       1.0  0.6447400000000001  0.17666000000000004  0.66051  1.0000
  C   C54       1.0  0.73753  0.91006  0.77414  1.0000
  C   C55       1.0  0.9266200000000001  0.37875000000000003  0.9713699999999998  1.0000
  C   C56       1.0  0.9216899999999997  0.45946000000000004  0.90377  1.0000
  C   C57       1.0  0.8386400000000002  0.44667000000000007  0.8989899999999998  1.0000
  C   C58       1.0  0.75987  0.35403000000000007  0.96365  1.0000
  C   C59       1.0  0.76632  0.27319  0.02889999999999999  1.0000
  C   C60       1.0  0.84964  0.2851  0.03293  1.0000
  C   C61       1.0  0.37181999999999993  0.89396  0.12174  1.0000
  C   C62       1.0  0.8363099999999998  0.5311700000000001  0.82243  1.0000
  C   C63       1.0  0.68554  0.17153  0.08892  1.0000
  C   C64       1.0  0.07342000000000003  0.10131000000000003  0.54789  1.0000
  C   C65       1.0  0.07783000000000001  0.17351000000000003  0.4623699999999999  1.0000
  C   C66       1.0  0.16066000000000003  0.2612400000000001  0.39171999999999996  1.0000
  C   C67       1.0  0.23971000000000006  0.27580000000000005  0.4053099999999999  1.0000
  C   C68       1.0  0.23384000000000008  0.2045200000000001  0.4925299999999999  1.0000
  C   C69       1.0  0.15075999999999998  0.11703999999999998  0.56413  1.0000
  C   C70       1.0  0.62808  0.5062400000000001  0.4780799999999999  1.0000
  C   C71       1.0  0.16218999999999997  0.33997999999999995  0.30543  1.0000
  C   C72       1.0  0.31482000000000004  0.22579000000000005  0.51333  1.0000
  O   O1        1.0  0.35772000000000004  0.30048000000000014  0.6803499999999998  1.0000
  O   O2        1.0  0.40523  0.40353  0.5157699999999998  1.0000
  O   O3        1.0  0.9130000000000001  0.7496  0.89295  1.0000
  O   O4        1.0  0.76048  0.6702  0.96826  1.0000
  O   O5        1.0  0.6068499999999999  0.39821999999999996  0.33242  1.0000
  O   O6        1.0  0.70469  0.38067999999999996  0.40027  1.0000
  O   O7        1.0  0.64244  0.96167  0.05743  1.0000
  O   O8        1.0  0.59479  0.07866  0.0017599999999999996  1.0000
  O   O9        1.0  0.08603000000000002  0.19396000000000002  0.16344999999999996  1.0000
  O   O10       1.0  0.23848999999999998  0.27139  0.08985999999999998  1.0000
  O   O11       1.0  0.3941099999999999  0.06263000000000002  0.20670999999999998  1.0000
  O   O12       1.0  0.29714999999999997  0.8971999999999999  0.32291  1.0000
  O   O13       1.0  0.9802400000000002  0.9452000000000002  0.7016499999999998  1.0000
  O   O14       1.0  0.9205300000000003  0.9979300000000003  0.5958099999999997  1.0000
  O   O15       1.0  0.6486699999999999  0.8380399999999999  0.24616  1.0000
  O   O16       1.0  0.64245  0.91185  0.32437  1.0000
  O   O17       1.0  0.7292200000000002  0.7921800000000002  0.6020199999999998  1.0000
  O   O18       1.0  0.7810399999999997  0.6781  0.61872  1.0000
  O   O19       1.0  0.020049999999999995  0.31883  0.03457  1.0000
  O   O20       1.0  0.07947000000000001  0.48406999999999994  0.9219399999999999  1.0000
  O   O21       1.0  0.3523000000000001  0.1059200000000001  0.8101599999999998  1.0000
  O   O22       1.0  0.35751999999999995  0.03383000000000007  0.7302099999999999  1.0000
  O   O23       1.0  0.2712900000000001  0.6697500000000001  0.9359699999999999  1.0000
  O   O24       1.0  0.22047  0.6013  0.10184  1.0000
  O   O25       1.0  0.020720000000000016  0.46343000000000006  0.17922999999999994  1.0000
  O   O26       1.0  0.08119999999999997  0.57982  0.014559999999999997  1.0000
  O   O27       1.0  0.3576199999999999  0.6934400000000001  0.3920599999999999  1.0000
  O   O28       1.0  0.36006  0.77036  0.4673299999999999  1.0000
  O   O29       1.0  0.26962999999999987  0.5636899999999999  0.82971  1.0000
  O   O30       1.0  0.2215900000000001  0.39821  0.89942  1.0000
  O   O31       1.0  0.9807699999999997  0.8012500000000001  0.55715  1.0000
  O   O32       1.0  0.91971  0.9047900000000001  0.50078  1.0000
  O   O33       1.0  0.6433300000000001  0.2507700000000001  0.6635799999999998  1.0000
  O   O34       1.0  0.63974  0.17239999999999997  0.58975  1.0000
  O   O35       1.0  0.7304699999999998  0.9007299999999999  0.70596  1.0000
  O   O36       1.0  0.77758  0.8778800000000001  0.82442  1.0000
  O   O37       1.0  0.35388  0.8176300000000001  0.20152999999999993  1.0000
  O   O38       1.0  0.40686  0.9828199999999999  0.09609999999999998  1.0000
  O   O39       1.0  0.9139000000000002  0.60596  0.7476099999999998  1.0000
  O   O40       1.0  0.76148  0.5329700000000002  0.8268999999999997  1.0000
  O   O41       1.0  0.60652  0.16713  0.10261  1.0000
  O   O42       1.0  0.70608  0.10086000000000002  0.11707  1.0000
  O   O43       1.0  0.6460499999999999  0.44436  0.53641  1.0000
  O   O44       1.0  0.5927699999999998  0.49696  0.42431999999999986  1.0000
  O   O45       1.0  0.08454000000000006  0.33591000000000004  0.3071799999999999  1.0000
  O   O46       1.0  0.23692999999999997  0.41231000000000007  0.22987999999999995  1.0000
  O   O47       1.0  0.39391000000000004  0.29083  0.4388899999999999  1.0000
  O   O48       1.0  0.29421999999999987  0.17755000000000004  0.6045999999999999  1.0000
  O   O49       1.0  0.49885000000000007  0.26684  0.56641  1.0000
  O   O50       1.0  0.5014599999999998  0.93545  0.23172  1.0000
  O   O51       1.0  0.8327500000000002  0.7696500000000002  0.7302199999999998  1.0000
  O   O52       1.0  0.16757  0.43738  0.06307999999999998  1.0000
