data_image0
_chemical_formula_structural       Cu8H72C80N16Cl8
_chemical_formula_sum              "Cu8 H72 C80 N16 Cl8"
_cell_length_a       12.46111
_cell_length_b       15.87633
_cell_length_c       15.87633
_cell_angle_alpha    90.00046
_cell_angle_beta     89.99908
_cell_angle_gamma    90.00091999999998

_symmetry_space_group_name_H-M    'P 1'
_symmetry_Int_Tables_number       1

loop_
  _symmetry_equiv_pos_as_xyz
  'x,y,z'

loop_
  _atom_site_type_symbol
  _atom_site_label
  _atom_site_symmetry_multiplicity
  _atom_site_fract_x
  _atom_site_fract_y
  _atom_site_fract_z
  _atom_site_occupancy
  Cu  Cu1       1.0  0.62366  0.51873  0.00233  1.0000
  Cu  Cu2       1.0  0.12354  0.4812299999999999  0.9976500000000003  1.0000
  Cu  Cu3       1.0  0.87349  0.49764999999999987  0.01875  1.0000
  Cu  Cu4       1.0  0.37371999999999994  0.5023399999999998  0.9812500000000002  1.0000
  Cu  Cu5       1.0  0.62628  0.9812499999999997  0.50234  1.0000
  Cu  Cu6       1.0  0.12651  0.01875  0.4976500000000001  1.0000
  Cu  Cu7       1.0  0.3763499999999999  0.00233  0.51873  1.0000
  Cu  Cu8       1.0  0.87647  0.99765  0.48123  1.0000
  H   H1        1.0  0.24578999999999998  0.59416  0.8229200000000002  1.0000
  H   H2        1.0  0.24014999999999995  0.62245  0.9298300000000003  1.0000
  H   H3        1.0  0.7613599999999999  0.7085399999999997  0.7168400000000003  1.0000
  H   H4        1.0  0.7526199999999998  0.64231  0.9470300000000003  1.0000
  H   H5        1.0  0.7609499999999998  0.59969  0.8467100000000002  1.0000
  H   H6        1.0  0.13062  0.71968  0.8385800000000002  1.0000
  H   H7        1.0  0.23304999999999998  0.77464  0.8923600000000003  1.0000
  H   H8        1.0  0.8666699999999999  0.72935  0.84748  1.0000
  H   H9        1.0  0.7606499999999998  0.78852  0.89198  1.0000
  H   H10       1.0  0.7458  0.40586  0.17712  1.0000
  H   H11       1.0  0.7401599999999998  0.37758  0.07022  1.0000
  H   H12       1.0  0.26137  0.29149  0.2831700000000001  1.0000
  H   H13       1.0  0.25263  0.3576899999999999  0.05297000000000002  1.0000
  H   H14       1.0  0.26098  0.4003299999999999  0.15328000000000006  1.0000
  H   H15       1.0  0.6306299999999999  0.28035  0.16145  1.0000
  H   H16       1.0  0.7330599999999999  0.22538999999999995  0.10766000000000003  1.0000
  H   H17       1.0  0.3666599999999999  0.27066  0.15252  1.0000
  H   H18       1.0  0.26063  0.21149  0.10803  1.0000
  H   H19       1.0  0.49579  0.6770999999999998  0.09416  1.0000
  H   H20       1.0  0.49012999999999995  0.5702  0.12245  1.0000
  H   H21       1.0  0.01135  0.78317  0.20852000000000007  1.0000
  H   H22       1.0  0.00261  0.55297  0.14231  1.0000
  H   H23       1.0  0.01094  0.65329  0.09969000000000003  1.0000
  H   H24       1.0  0.3806  0.66144  0.21967000000000006  1.0000
  H   H25       1.0  0.4830299999999999  0.6076599999999998  0.27464  1.0000
  H   H26       1.0  0.11663999999999998  0.65253  0.22935000000000005  1.0000
  H   H27       1.0  0.01061  0.60804  0.2885200000000001  1.0000
  H   H28       1.0  0.9957999999999998  0.32291  0.90587  1.0000
  H   H29       1.0  0.9901799999999997  0.4298099999999999  0.87757  1.0000
  H   H30       1.0  0.51138  0.21685  0.79149  1.0000
  H   H31       1.0  0.50264  0.44703  0.8577  1.0000
  H   H32       1.0  0.51099  0.34671999999999986  0.90032  1.0000
  H   H33       1.0  0.88065  0.33857  0.78034  1.0000
  H   H34       1.0  0.98308  0.39234999999999987  0.72539  1.0000
  H   H35       1.0  0.61669  0.34749  0.7706600000000002  1.0000
  H   H36       1.0  0.51066  0.3919899999999999  0.7115  1.0000
  H   H37       1.0  0.004199999999999999  0.90587  0.3229100000000001  1.0000
  H   H38       1.0  0.00982  0.8775699999999997  0.42981  1.0000
  H   H39       1.0  0.4886199999999999  0.79149  0.21684  1.0000
  H   H40       1.0  0.49735999999999997  0.8576999999999998  0.44703  1.0000
  H   H41       1.0  0.48902  0.9003199999999998  0.3467200000000001  1.0000
  H   H42       1.0  0.11934999999999998  0.7803399999999998  0.3385700000000001  1.0000
  H   H43       1.0  0.016919999999999998  0.72539  0.39235  1.0000
  H   H44       1.0  0.38330999999999993  0.7706599999999998  0.34749000000000013  1.0000
  H   H45       1.0  0.48933999999999994  0.7115  0.3919900000000001  1.0000
  H   H46       1.0  0.50421  0.09415999999999997  0.6771000000000003  1.0000
  H   H47       1.0  0.5098699999999999  0.12245  0.5702000000000003  1.0000
  H   H48       1.0  0.98865  0.20851999999999996  0.78317  1.0000
  H   H49       1.0  0.99739  0.14230999999999994  0.55297  1.0000
  H   H50       1.0  0.98906  0.09968999999999997  0.65329  1.0000
  H   H51       1.0  0.6194  0.21966999999999995  0.6614400000000002  1.0000
  H   H52       1.0  0.51697  0.2746399999999999  0.6076600000000002  1.0000
  H   H53       1.0  0.8833599999999999  0.22934999999999994  0.65253  1.0000
  H   H54       1.0  0.9893899999999998  0.2885199999999999  0.60804  1.0000
  H   H55       1.0  0.75421  0.82292  0.59416  1.0000
  H   H56       1.0  0.75985  0.9298299999999998  0.62245  1.0000
  H   H57       1.0  0.23863999999999996  0.7168399999999998  0.70854  1.0000
  H   H58       1.0  0.24738999999999994  0.9470299999999998  0.6423100000000003  1.0000
  H   H59       1.0  0.23905  0.8467099999999997  0.5996900000000002  1.0000
  H   H60       1.0  0.8693799999999998  0.8385799999999998  0.71968  1.0000
  H   H61       1.0  0.7669499999999999  0.89236  0.77464  1.0000
  H   H62       1.0  0.13333  0.8474799999999998  0.72935  1.0000
  H   H63       1.0  0.23934999999999995  0.89198  0.78851  1.0000
  H   H64       1.0  0.2541999999999999  0.17712  0.4058600000000001  1.0000
  H   H65       1.0  0.25983999999999996  0.07022  0.37758  1.0000
  H   H66       1.0  0.73863  0.28316999999999987  0.29149000000000014  1.0000
  H   H67       1.0  0.74737  0.05297  0.35769  1.0000
  H   H68       1.0  0.7390199999999998  0.15327999999999994  0.40033  1.0000
  H   H69       1.0  0.36937  0.16144999999999995  0.28035  1.0000
  H   H70       1.0  0.26694  0.10766  0.22539  1.0000
  H   H71       1.0  0.63334  0.15251999999999993  0.2706600000000001  1.0000
  H   H72       1.0  0.7393699999999997  0.10803  0.21149  1.0000
  C   C1        1.0  0.60934  0.65374  0.87464  1.0000
  C   C2        1.0  0.55707  0.70849  0.81621  1.0000
  C   C3        1.0  0.61578  0.76078  0.76127  1.0000
  C   C4        1.0  0.4422299999999999  0.70753  0.81479  1.0000
  C   C5        1.0  0.38923  0.6493199999999998  0.86924  1.0000
  C   C6        1.0  0.26919999999999994  0.6436999999999998  0.8680200000000002  1.0000
  C   C7        1.0  0.7369299999999998  0.7590899999999998  0.76071  1.0000
  C   C8        1.0  0.7292799999999998  0.6544299999999997  0.8814500000000002  1.0000
  C   C9        1.0  0.218  0.72772  0.84278  1.0000
  C   C10       1.0  0.77898  0.7363499999999997  0.84873  1.0000
  C   C11       1.0  0.10933999999999998  0.3462999999999999  0.12538  1.0000
  C   C12       1.0  0.057079999999999985  0.29154  0.18381  1.0000
  C   C13       1.0  0.11578  0.23924999999999993  0.23876000000000006  1.0000
  C   C14       1.0  0.9422299999999998  0.2925  0.18525  1.0000
  C   C15       1.0  0.88923  0.35071  0.1308  1.0000
  C   C16       1.0  0.7691999999999999  0.35632999999999987  0.13202000000000005  1.0000
  C   C17       1.0  0.23692999999999997  0.24092999999999995  0.2393  1.0000
  C   C18       1.0  0.22928999999999994  0.34558  0.11855000000000003  1.0000
  C   C19       1.0  0.71801  0.2723  0.15725  1.0000
  C   C20       1.0  0.27898  0.2636599999999999  0.15127000000000004  1.0000
  C   C21       1.0  0.85932  0.62537  0.15373  1.0000
  C   C22       1.0  0.80706  0.6838099999999998  0.20848000000000003  1.0000
  C   C23       1.0  0.86576  0.7387499999999998  0.26076  1.0000
  C   C24       1.0  0.6922099999999998  0.68523  0.20752000000000007  1.0000
  C   C25       1.0  0.63921  0.63077  0.14932  1.0000
  C   C26       1.0  0.51918  0.6319999999999998  0.1437  1.0000
  C   C27       1.0  0.98691  0.73931  0.25908  1.0000
  C   C28       1.0  0.9792699999999998  0.61856  0.15443000000000007  1.0000
  C   C29       1.0  0.4679799999999999  0.6572399999999998  0.22772000000000006  1.0000
  C   C30       1.0  0.028959999999999996  0.6512799999999997  0.23634  1.0000
  C   C31       1.0  0.35936  0.3746299999999999  0.84629  1.0000
  C   C32       1.0  0.30709999999999993  0.31619999999999987  0.79154  1.0000
  C   C33       1.0  0.3658  0.26126  0.7392400000000002  1.0000
  C   C34       1.0  0.19225  0.31477  0.7925000000000002  1.0000
  C   C35       1.0  0.13925  0.36920999999999987  0.8507200000000003  1.0000
  C   C36       1.0  0.01922  0.368  0.8563300000000003  1.0000
  C   C37       1.0  0.4869499999999999  0.26071  0.7409200000000002  1.0000
  C   C38       1.0  0.4793099999999999  0.3814499999999999  0.8455800000000002  1.0000
  C   C39       1.0  0.9680299999999997  0.34277  0.7723000000000002  1.0000
  C   C40       1.0  0.5289999999999999  0.34874  0.7636600000000002  1.0000
  C   C41       1.0  0.64064  0.84629  0.37463  1.0000
  C   C42       1.0  0.69291  0.7915399999999998  0.3162000000000001  1.0000
  C   C43       1.0  0.6341999999999999  0.7392399999999998  0.26126  1.0000
  C   C44       1.0  0.8077599999999999  0.7924999999999998  0.31477  1.0000
  C   C45       1.0  0.8607499999999998  0.8507199999999998  0.36921  1.0000
  C   C46       1.0  0.9807899999999998  0.8563299999999998  0.368  1.0000
  C   C47       1.0  0.51305  0.74092  0.26071  1.0000
  C   C48       1.0  0.52069  0.84558  0.38145  1.0000
  C   C49       1.0  0.03198  0.7722999999999999  0.34277  1.0000
  C   C50       1.0  0.471  0.76366  0.34874  1.0000
  C   C51       1.0  0.14068  0.15373  0.62537  1.0000
  C   C52       1.0  0.19294  0.20847999999999994  0.68381  1.0000
  C   C53       1.0  0.13424  0.26076  0.7387500000000002  1.0000
  C   C54       1.0  0.30779  0.20752  0.6852300000000002  1.0000
  C   C55       1.0  0.36078999999999994  0.14931999999999995  0.6307700000000003  1.0000
  C   C56       1.0  0.4808199999999999  0.1437  0.6320000000000002  1.0000
  C   C57       1.0  0.013089999999999996  0.25908  0.73931  1.0000
  C   C58       1.0  0.02074  0.15443  0.6185600000000002  1.0000
  C   C59       1.0  0.53202  0.22772  0.65724  1.0000
  C   C60       1.0  0.9710499999999997  0.23634999999999995  0.6512800000000002  1.0000
  C   C61       1.0  0.39066  0.8746399999999998  0.65374  1.0000
  C   C62       1.0  0.44293  0.81621  0.70849  1.0000
  C   C63       1.0  0.38421999999999995  0.76127  0.76077  1.0000
  C   C64       1.0  0.55777  0.8147899999999998  0.7075300000000002  1.0000
  C   C65       1.0  0.6107799999999999  0.8692399999999998  0.64931  1.0000
  C   C66       1.0  0.73081  0.8680199999999998  0.6437000000000003  1.0000
  C   C67       1.0  0.26306999999999997  0.7607099999999998  0.75909  1.0000
  C   C68       1.0  0.27071999999999996  0.8814499999999997  0.65443  1.0000
  C   C69       1.0  0.7819999999999998  0.84278  0.72772  1.0000
  C   C70       1.0  0.22101999999999994  0.84874  0.7363500000000002  1.0000
  C   C71       1.0  0.8906599999999999  0.12538  0.3463000000000001  1.0000
  C   C72       1.0  0.9429199999999999  0.18380999999999995  0.29154000000000013  1.0000
  C   C73       1.0  0.8842199999999998  0.23875999999999994  0.23925  1.0000
  C   C74       1.0  0.05777  0.18525  0.2925  1.0000
  C   C75       1.0  0.11077  0.13079999999999994  0.35071000000000013  1.0000
  C   C76       1.0  0.2308  0.13201999999999994  0.35633  1.0000
  C   C77       1.0  0.7630699999999999  0.23930999999999994  0.24093000000000006  1.0000
  C   C78       1.0  0.77071  0.11855  0.3455800000000001  1.0000
  C   C79       1.0  0.2819999999999999  0.15725  0.2723  1.0000
  C   C80       1.0  0.7210299999999997  0.15126999999999993  0.26366  1.0000
  N   N1        1.0  0.55456  0.60116  0.9238900000000002  1.0000
  N   N2        1.0  0.44323999999999997  0.5982799999999998  0.92049  1.0000
  N   N3        1.0  0.05453999999999999  0.3988699999999999  0.07615000000000002  1.0000
  N   N4        1.0  0.94322  0.40175  0.07954000000000003  1.0000
  N   N5        1.0  0.80452  0.57611  0.10117000000000002  1.0000
  N   N6        1.0  0.6931999999999999  0.5794999999999998  0.09830000000000003  1.0000
  N   N7        1.0  0.30456999999999995  0.4238599999999999  0.89888  1.0000
  N   N8        1.0  0.19324999999999998  0.42046  0.9017600000000002  1.0000
  N   N9        1.0  0.69543  0.8988799999999998  0.4238600000000001  1.0000
  N   N10       1.0  0.8067499999999997  0.90176  0.4204600000000001  1.0000
  N   N11       1.0  0.19547999999999993  0.10117  0.57611  1.0000
  N   N12       1.0  0.3068  0.09829999999999997  0.5795  1.0000
  N   N13       1.0  0.44544999999999996  0.9238899999999998  0.60116  1.0000
  N   N14       1.0  0.5567599999999999  0.92049  0.59828  1.0000
  N   N15       1.0  0.9454599999999997  0.07615  0.39887  1.0000
  N   N16       1.0  0.05677999999999999  0.07954  0.4017500000000001  1.0000
  Cl  Cl1       1.0  0.7487099999999998  0.44136  0.9206700000000002  1.0000
  Cl  Cl2       1.0  0.24875999999999995  0.5586399999999998  0.0793  1.0000
  Cl  Cl3       1.0  0.9987099999999999  0.57931  0.9413800000000002  1.0000
  Cl  Cl4       1.0  0.49876999999999994  0.42066  0.05866000000000001  1.0000
  Cl  Cl5       1.0  0.50123  0.05866  0.4206600000000001  1.0000
  Cl  Cl6       1.0  0.0012999999999999997  0.9413799999999998  0.57931  1.0000
  Cl  Cl7       1.0  0.25129  0.9206699999999998  0.44136  1.0000
  Cl  Cl8       1.0  0.7512399999999999  0.0793  0.55864  1.0000
