data_image0
_chemical_formula_structural       Cd8H56C72N24O24
_chemical_formula_sum              "Cd8 H56 C72 N24 O24"
_cell_length_a       4.75376
_cell_length_b       21.718339999999998
_cell_length_c       21.661539999999995
_cell_angle_alpha    90.01948999999999
_cell_angle_beta     90.21813
_cell_angle_gamma    89.58722

_space_group_name_H-M_alt    "P 1"
_space_group_IT_number       1

loop_
  _space_group_symop_operation_xyz
  'x, y, z'

loop_
  _atom_site_type_symbol
  _atom_site_label
  _atom_site_symmetry_multiplicity
  _atom_site_fract_x
  _atom_site_fract_y
  _atom_site_fract_z
  _atom_site_occupancy
  Cd  Cd1       1.0  0.42286  0.76199  0.1688  1.0000
  Cd  Cd2       1.0  0.57714  0.238  0.83121  1.0000
  Cd  Cd3       1.0  0.57394  0.26206  0.66865  1.0000
  Cd  Cd4       1.0  0.92741  0.66844  0.23778  1.0000
  Cd  Cd5       1.0  0.42606  0.7379300000000002  0.3313499999999999  1.0000
  Cd  Cd6       1.0  0.07835  0.16941  0.73818  1.0000
  Cd  Cd7       1.0  0.07259  0.33156  0.7622199999999998  1.0000
  Cd  Cd8       1.0  0.9216500000000001  0.8305900000000002  0.26182  1.0000
  H   H1        1.0  0.13499  0.17311  0.01013  1.0000
  H   H2        1.0  0.57827  0.4607  0.7394599999999999  1.0000
  H   H3        1.0  0.11756999999999998  0.98767  0.4348  1.0000
  H   H4        1.0  0.48567  0.50377  0.5789999999999998  1.0000
  H   H5        1.0  0.44179  0.85624  0.27906  1.0000
  H   H6        1.0  0.71619  0.9297100000000003  0.12812999999999997  1.0000
  H   H7        1.0  0.06327  0.23831  0.53832  1.0000
  H   H8        1.0  0.23662000000000002  0.10192  0.38446  1.0000
  H   H9        1.0  0.020539999999999996  0.92114  0.50424  1.0000
  H   H10       1.0  0.97946  0.07885  0.49575999999999987  1.0000
  H   H11       1.0  0.98615  0.42133  0.0036299999999999995  1.0000
  H   H12       1.0  0.08317  0.26069  0.9573899999999997  1.0000
  H   H13       1.0  0.63951  0.51067  0.8274099999999999  1.0000
  H   H14       1.0  0.04986  0.27812  0.6433499999999999  1.0000
  H   H15       1.0  0.79338  0.3712  0.92868  1.0000
  H   H16       1.0  0.13557  0.32652  0.49118  1.0000
  H   H17       1.0  0.013849999999999998  0.5786600000000001  0.9963699999999999  1.0000
  H   H18       1.0  0.21705  0.87087  0.43122999999999995  1.0000
  H   H19       1.0  0.47907999999999995  0.9961400000000002  0.9213599999999998  1.0000
  H   H20       1.0  0.11102999999999998  0.51224  0.06599  1.0000
  H   H21       1.0  0.74104  0.61403  0.6033499999999999  1.0000
  H   H22       1.0  0.54647  0.35653  0.77785  1.0000
  H   H23       1.0  0.20662  0.6288000000000001  0.07132  1.0000
  H   H24       1.0  0.51434  0.49622000000000005  0.421  1.0000
  H   H25       1.0  0.38742  0.06585  0.9876799999999998  1.0000
  H   H26       1.0  0.61605  0.56511  0.4879899999999999  1.0000
  H   H27       1.0  0.42173  0.5392900000000002  0.26053999999999994  1.0000
  H   H28       1.0  0.26198  0.11291000000000002  0.10452999999999998  1.0000
  H   H29       1.0  0.94568  0.7783900000000001  0.14318999999999998  1.0000
  H   H30       1.0  0.86502  0.82689  0.9898699999999998  1.0000
  H   H31       1.0  0.05433  0.22161000000000003  0.8568099999999998  1.0000
  H   H32       1.0  0.36788  0.007080000000000002  0.32568  1.0000
  H   H33       1.0  0.88243  0.01233  0.5652  1.0000
  H   H34       1.0  0.78295  0.12913000000000002  0.56877  1.0000
  H   H35       1.0  0.9168299999999999  0.7393100000000001  0.04261  1.0000
  H   H36       1.0  0.86444  0.6734800000000001  0.50883  1.0000
  H   H37       1.0  0.52092  0.00386  0.07863999999999997  1.0000
  H   H38       1.0  0.63212  0.99292  0.67433  1.0000
  H   H39       1.0  0.9501400000000001  0.7218800000000001  0.35665  1.0000
  H   H40       1.0  0.9367300000000001  0.7616800000000001  0.4616799999999999  1.0000
  H   H41       1.0  0.36049  0.48932000000000003  0.17259  1.0000
  H   H42       1.0  0.38395  0.43489  0.51201  1.0000
  H   H43       1.0  0.56726  0.04287  0.76141  1.0000
  H   H44       1.0  0.76338  0.89807  0.61554  1.0000
  H   H45       1.0  0.88897  0.4877500000000001  0.9340099999999998  1.0000
  H   H46       1.0  0.2922099999999999  0.43007000000000006  0.62961  1.0000
  H   H47       1.0  0.75718  0.60497  0.8878399999999997  1.0000
  H   H48       1.0  0.61258  0.9341500000000001  0.012319999999999998  1.0000
  H   H49       1.0  0.70779  0.56993  0.3704  1.0000
  H   H50       1.0  0.25896  0.38597  0.39664999999999995  1.0000
  H   H51       1.0  0.43274999999999997  0.9571300000000003  0.23859  1.0000
  H   H52       1.0  0.24282  0.39503000000000005  0.11216  1.0000
  H   H53       1.0  0.45354  0.64347  0.22214999999999993  1.0000
  H   H54       1.0  0.28381  0.07029  0.87187  1.0000
  H   H55       1.0  0.55821  0.14375000000000002  0.72094  1.0000
  H   H56       1.0  0.73802  0.88709  0.8954699999999998  1.0000
  C   C1        1.0  0.88867  0.9512900000000001  0.15259999999999999  1.0000
  C   C2        1.0  0.57253  0.4234000000000001  0.48666  1.0000
  C   C3        1.0  0.42351000000000005  0.9232500000000001  0.98676  1.0000
  C   C4        1.0  0.57649  0.07675000000000001  0.013249999999999996  1.0000
  C   C5        1.0  0.49773  0.5268  0.86329  1.0000
  C   C6        1.0  0.25253999999999993  0.53221  0.29319  1.0000
  C   C7        1.0  0.08059  0.10087000000000003  0.07676  1.0000
  C   C8        1.0  0.15916  0.93791  0.5402  1.0000
  C   C9        1.0  0.24531  0.00798  0.6251699999999999  1.0000
  C   C10       1.0  0.58576  0.09147000000000001  0.4484899999999999  1.0000
  C   C11       1.0  0.42747  0.5766  0.5133399999999999  1.0000
  C   C12       1.0  0.34448  0.53955  0.5624599999999998  1.0000
  C   C13       1.0  0.74746  0.46778000000000003  0.70681  1.0000
  C   C14       1.0  0.9145899999999999  0.04973  0.09229999999999998  1.0000
  C   C15       1.0  0.33894  0.96063  0.9377499999999998  1.0000
  C   C16       1.0  0.07708999999999999  0.51332  0.92344  1.0000
  C   C17       1.0  0.25138  0.2934300000000001  0.9648399999999999  1.0000
  C   C18       1.0  0.003969999999999992  0.8628200000000003  0.9735399999999998  1.0000
  C   C19       1.0  0.75095  0.12471000000000002  0.9932899999999999  1.0000
  C   C20       1.0  0.68005  0.34112  0.56502  1.0000
  C   C21       1.0  0.87966  0.54756  0.34622  1.0000
  C   C22       1.0  0.25194  0.62493  0.49287999999999993  1.0000
  C   C23       1.0  0.76521  0.7941  0.46886  1.0000
  C   C24       1.0  0.07730999999999999  0.39842000000000005  0.42413  1.0000
  C   C25       1.0  0.74807  0.37506  0.50712  1.0000
  C   C26       1.0  0.7451899999999999  0.50661  0.12439999999999997  1.0000
  C   C27       1.0  0.59138  0.40745  0.049159999999999995  1.0000
  C   C28       1.0  0.42292  0.4228500000000001  0.10033999999999997  1.0000
  C   C29       1.0  0.11133  0.04871000000000001  0.8474  1.0000
  C   C30       1.0  0.74862  0.7065600000000001  0.03516  1.0000
  C   C31       1.0  0.90883  0.44958000000000004  0.40777999999999986  1.0000
  C   C32       1.0  0.4086199999999999  0.5925400000000001  0.9508399999999998  1.0000
  C   C33       1.0  0.07192000000000001  0.9870500000000001  0.57693  1.0000
  C   C34       1.0  0.58032  0.9252600000000001  0.6027899999999999  1.0000
  C   C35       1.0  0.65552  0.4604500000000001  0.4375399999999999  1.0000
  C   C36       1.0  0.68628  0.15821  0.9348799999999998  1.0000
  C   C37       1.0  0.08541  0.95027  0.9077  1.0000
  C   C38       1.0  0.09117  0.55042  0.5922199999999999  1.0000
  C   C39       1.0  0.31372  0.84179  0.06512  1.0000
  C   C40       1.0  0.9960300000000001  0.13718  0.026459999999999994  1.0000
  C   C41       1.0  0.39028  0.84692  0.45353  1.0000
  C   C42       1.0  0.49326  0.9758000000000001  0.6383899999999999  1.0000
  C   C43       1.0  0.84084  0.06209  0.45979999999999993  1.0000
  C   C44       1.0  0.60973  0.15308  0.5464699999999999  1.0000
  C   C45       1.0  0.41423999999999994  0.9085300000000002  0.5515099999999998  1.0000
  C   C46       1.0  0.37797  0.65312  0.04946  1.0000
  C   C47       1.0  0.19598  0.43499  0.8418799999999997  1.0000
  C   C48       1.0  0.12033999999999999  0.45244000000000006  0.65378  1.0000
  C   C49       1.0  0.50227  0.4732  0.13672  1.0000
  C   C50       1.0  0.2348  0.2059  0.53114  1.0000
  C   C51       1.0  0.82628  0.9336800000000001  0.34206999999999993  1.0000
  C   C52       1.0  0.25481  0.49339000000000005  0.8756  1.0000
  C   C53       1.0  0.24906  0.87529  0.006709999999999999  1.0000
  C   C54       1.0  0.31995  0.65888  0.4349799999999999  1.0000
  C   C55       1.0  0.15661999999999998  0.56239  0.9609699999999999  1.0000
  C   C56       1.0  0.41968  0.07474  0.39720999999999995  1.0000
  C   C57       1.0  0.005670000000000001  0.63756  0.5255  1.0000
  C   C58       1.0  0.9943400000000001  0.36244000000000004  0.4744999999999999  1.0000
  C   C59       1.0  0.66106  0.03937  0.06225  1.0000
  C   C60       1.0  0.80402  0.5650100000000001  0.15811999999999998  1.0000
  C   C61       1.0  0.84338  0.43760000000000004  0.03902999999999999  1.0000
  C   C62       1.0  0.73804  0.03492  0.7938799999999999  1.0000
  C   C63       1.0  0.57708  0.57714  0.89966  1.0000
  C   C64       1.0  0.92269  0.60157  0.5758699999999999  1.0000
  C   C65       1.0  0.62203  0.34688  0.95054  1.0000
  C   C66       1.0  0.9194199999999999  0.89913  0.9232399999999998  1.0000
  C   C67       1.0  0.26196  0.9650800000000002  0.20611999999999997  1.0000
  C   C68       1.0  0.17373  0.06631  0.65794  1.0000
  C   C69       1.0  0.7547  0.9920200000000001  0.37483  1.0000
  C   C70       1.0  0.9280799999999999  0.012940000000000004  0.4230699999999999  1.0000
  C   C71       1.0  0.50674  0.024200000000000003  0.36161  1.0000
  C   C72       1.0  0.9229100000000001  0.4866800000000001  0.07656  1.0000
  N   N1        1.0  0.53651  0.6962600000000001  0.07630999999999999  1.0000
  N   N2        1.0  0.95071  0.07578  0.8042899999999997  1.0000
  N   N3        1.0  0.73141  0.67252  0.9840099999999999  1.0000
  N   N4        1.0  0.25499  0.17150000000000004  0.48023  1.0000
  N   N5        1.0  0.03941  0.57379  0.30294  1.0000
  N   N6        1.0  0.04929  0.9242100000000001  0.19570999999999997  1.0000
  N   N7        1.0  0.49554  0.1381  0.4901899999999999  1.0000
  N   N8        1.0  0.74502  0.82849  0.51977  1.0000
  N   N9        1.0  0.9606000000000001  0.42621000000000003  0.69706  1.0000
  N   N10       1.0  0.23462  0.48146  0.32764999999999994  1.0000
  N   N11       1.0  0.50635  0.36116  0.0067199999999999985  1.0000
  N   N12       1.0  0.7571  0.98368  0.8277199999999998  1.0000
  N   N13       1.0  0.49366  0.63884  0.99328  1.0000
  N   N14       1.0  0.9954999999999999  0.49141000000000007  0.36112  1.0000
  N   N15       1.0  0.44767000000000007  0.19621  0.57281  1.0000
  N   N16       1.0  0.2429  0.016320000000000005  0.17228  1.0000
  N   N17       1.0  0.003319999999999999  0.007340000000000002  0.13853  1.0000
  N   N18       1.0  0.2686  0.32748  0.01599  1.0000
  N   N19       1.0  0.4635  0.30374  0.9236899999999998  1.0000
  N   N20       1.0  0.76538  0.51853  0.6723499999999999  1.0000
  N   N21       1.0  0.004500000000000002  0.50859  0.63888  1.0000
  N   N22       1.0  0.50446  0.86189  0.50981  1.0000
  N   N23       1.0  0.99668  0.99265  0.86147  1.0000
  N   N24       1.0  0.55233  0.8037900000000002  0.42719  1.0000
  O   O1        1.0  0.8468099999999998  0.29716  0.5810399999999999  1.0000
  O   O2        1.0  0.8908700000000002  0.73768  0.31595999999999996  1.0000
  O   O3        1.0  0.98357  0.40289000000000014  0.8557799999999999  1.0000
  O   O4        1.0  0.39149999999999996  0.68397  0.23807  1.0000
  O   O5        1.0  0.61071  0.18419000000000005  0.7377599999999999  1.0000
  O   O6        1.0  0.53346  0.6439  0.40340999999999994  1.0000
  O   O7        1.0  0.016429999999999997  0.5971  0.14421999999999996  1.0000
  O   O8        1.0  0.65615  0.91603  0.29931  1.0000
  O   O9        1.0  0.34385  0.08397  0.70069  1.0000
  O   O10       1.0  0.10913  0.26232  0.6840399999999999  1.0000
  O   O11       1.0  0.52785  0.8558800000000001  0.09693999999999998  1.0000
  O   O12       1.0  0.04391  0.90321  0.35653999999999997  1.0000
  O   O13       1.0  0.47215  0.14412000000000003  0.9030599999999999  1.0000
  O   O14       1.0  0.62993  0.58057  0.20043  1.0000
  O   O15       1.0  0.46653999999999995  0.3561000000000001  0.59659  1.0000
  O   O16       1.0  0.95609  0.09678000000000002  0.64346  1.0000
  O   O17       1.0  0.15319  0.7028300000000001  0.41896  1.0000
  O   O18       1.0  0.10951  0.23816000000000007  0.8162899999999998  1.0000
  O   O19       1.0  0.37007  0.4194300000000001  0.79957  1.0000
  O   O20       1.0  0.6085  0.3160200000000001  0.7619299999999998  1.0000
  O   O21       1.0  0.14141  0.79947  0.08107  1.0000
  O   O22       1.0  0.8585899999999999  0.20053000000000007  0.91893  1.0000
  O   O23       1.0  0.3893  0.8158100000000001  0.2622399999999999  1.0000
  O   O24       1.0  0.8904899999999999  0.7618300000000001  0.18370999999999998  1.0000
