data_image0
_chemical_formula_structural       Ni6H66C57N6O24
_chemical_formula_sum              "Ni6 H66 C57 N6 O24"
_cell_length_a       8.26186
_cell_length_b       17.099589999999996
_cell_length_c       17.09426
_cell_angle_alpha    117.50706
_cell_angle_beta     99.20321
_cell_angle_gamma    99.3135

_space_group_name_H-M_alt    "P 1"
_space_group_IT_number       1

loop_
  _space_group_symop_operation_xyz
  'x, y, z'

loop_
  _atom_site_type_symbol
  _atom_site_label
  _atom_site_symmetry_multiplicity
  _atom_site_fract_x
  _atom_site_fract_y
  _atom_site_fract_z
  _atom_site_occupancy
  Ni  Ni1       1.0  0.03652000000000003  0.83981  0.057079999999999985  1.0000
  Ni  Ni2       1.0  0.5995999999999999  0.16103999999999985  0.9404399999999998  1.0000
  Ni  Ni3       1.0  0.19419  0.21672  0.1596  1.0000
  Ni  Ni4       1.0  0.4399699999999998  0.7797199999999999  0.8383399999999998  1.0000
  Ni  Ni5       1.0  0.9796399999999998  0.9429399999999999  0.7828199999999997  1.0000
  Ni  Ni6       1.0  0.6624699999999999  0.05882000000000001  0.22028  1.0000
  H   H1        1.0  0.7217  0.69178  0.024629999999999992  1.0000
  H   H2        1.0  0.7133899999999999  0.60364  0.91333  1.0000
  H   H3        1.0  0.9328299999999999  0.62611  0.8540199999999998  1.0000
  H   H4        1.0  0.09223999999999989  0.6044499999999999  0.9157199999999998  1.0000
  H   H5        1.0  0.9416999999999999  0.6978899999999999  0.11802999999999997  1.0000
  H   H6        1.0  0.1485  0.71951  0.10842999999999997  1.0000
  H   H7        1.0  0.29992999999999986  0.4437299999999999  0.98549  1.0000
  H   H8        1.0  0.72661  0.60158  0.07376  1.0000
  H   H9        1.0  0.66647  0.49855999999999995  0.07492  1.0000
  H   H10       1.0  0.6093999999999999  0.4998499999999999  0.9716899999999998  1.0000
  H   H11       1.0  0.3627799999999999  0.68355  0.12708999999999998  1.0000
  H   H12       1.0  0.35022999999999993  0.6522999999999999  0.01181  1.0000
  H   H13       1.0  0.45154  0.59576  0.060979999999999986  1.0000
  H   H14       1.0  0.17153999999999983  0.28926999999999986  0.9112599999999997  1.0000
  H   H15       1.0  0.9568599999999999  0.25471  0.84601  1.0000
  H   H16       1.0  0.0022099999999998995  0.2556399999999998  0.9506799999999997  1.0000
  H   H17       1.0  0.7270999999999997  0.27577999999999986  0.8832999999999998  1.0000
  H   H18       1.0  0.6077  0.35615  0.91797  1.0000
  H   H19       1.0  0.9070099999999999  0.39776  0.10594999999999997  1.0000
  H   H20       1.0  0.75488  0.35951  0.15136  1.0000
  H   H21       1.0  0.4188199999999999  0.3112699999999998  0.9717299999999998  1.0000
  H   H22       1.0  0.52947  0.39694  0.08692  1.0000
  H   H23       1.0  0.030339999999999936  0.33304999999999996  0.3091299999999999  1.0000
  H   H24       1.0  0.11294999999999994  0.31053  0.3974699999999999  1.0000
  H   H25       1.0  0.30812999999999985  0.22767999999999994  0.3728799999999999  1.0000
  H   H26       1.0  0.4889999999999999  0.3103699999999998  0.3931999999999999  1.0000
  H   H27       1.0  0.24640999999999993  0.4202199999999999  0.30159999999999987  1.0000
  H   H28       1.0  0.4311499999999999  0.38823999999999986  0.28042  1.0000
  H   H29       1.0  0.8572999999999998  0.5420399999999999  0.5563199999999998  1.0000
  H   H30       1.0  0.12715000000000007  0.47268  0.39815  1.0000
  H   H31       1.0  0.17158  0.57725  0.50107  1.0000
  H   H32       1.0  0.11033999999999998  0.4730099999999999  0.50006  1.0000
  H   H33       1.0  0.6825699999999999  0.4442099999999999  0.3168299999999999  1.0000
  H   H34       1.0  0.7007599999999997  0.35994999999999994  0.34782  1.0000
  H   H35       1.0  0.85812  0.46597999999999995  0.4050499999999999  1.0000
  H   H36       1.0  0.88272  0.62124  0.71073  1.0000
  H   H37       1.0  0.7024099999999999  0.5906299999999998  0.7452299999999997  1.0000
  H   H38       1.0  0.7476699999999997  0.6945299999999999  0.7445599999999998  1.0000
  H   H39       1.0  0.45109999999999983  0.6076  0.7240799999999997  1.0000
  H   H40       1.0  0.25172  0.56175  0.64344  1.0000
  H   H41       1.0  0.5095599999999999  0.7081599999999999  0.6014399999999998  1.0000
  H   H42       1.0  0.3956999999999999  0.79162  0.6399899999999997  1.0000
  H   H43       1.0  0.10755000000000002  0.66096  0.68885  1.0000
  H   H44       1.0  0.13332000000000002  0.68976  0.60285  1.0000
  H   H45       1.0  0.69647  0.9748899999999999  0.6665499999999998  1.0000
  H   H46       1.0  0.7994799999999999  0.08663999999999987  0.6906999999999998  1.0000
  H   H47       1.0  0.07701999999999995  0.14600999999999997  0.77219  1.0000
  H   H48       1.0  0.17484999999999987  0.08458999999999989  0.6886799999999997  1.0000
  H   H49       1.0  0.8246699999999999  0.8815399999999999  0.5799599999999998  1.0000
  H   H50       1.0  0.04122999999999988  0.89216  0.6114199999999997  1.0000
  H   H51       1.0  0.31491  0.01430999999999994  0.45795999999999987  1.0000
  H   H52       1.0  0.6530099999999999  0.9256299999999996  0.52719  1.0000
  H   H53       1.0  0.59247  0.9242099999999999  0.4228099999999999  1.0000
  H   H54       1.0  0.6373699999999999  0.02749999999999999  0.5272499999999999  1.0000
  H   H55       1.0  0.23617999999999992  0.87283  0.5560499999999999  1.0000
  H   H56       1.0  0.3383900000000001  0.9883  0.64002  1.0000
  H   H57       1.0  0.3909099999999999  0.9390099999999999  0.53427  1.0000
  H   H58       1.0  0.2609199999999999  0.08856999999999991  0.3777399999999999  1.0000
  H   H59       1.0  0.11261999999999994  0.15440999999999996  0.40944999999999987  1.0000
  H   H60       1.0  0.05218999999999994  0.05007999999999994  0.30525999999999986  1.0000
  H   H61       1.0  0.84444  0.11671999999999995  0.3929999999999999  1.0000
  H   H62       1.0  0.69032  0.08162999999999995  0.43839999999999996  1.0000
  H   H63       1.0  0.79721  0.8920699999999997  0.2911999999999999  1.0000
  H   H64       1.0  0.60153  0.84889  0.20676  1.0000
  H   H65       1.0  0.4481  0.029849999999999932  0.3387499999999999  1.0000
  H   H66       1.0  0.4421199999999999  0.91491  0.31089  1.0000
  C   C1        1.0  0.7250099999999999  0.7386899999999997  0.93041  1.0000
  C   C2        1.0  0.7736899999999999  0.6756599999999997  0.9655499999999998  1.0000
  C   C3        1.0  0.035009999999999944  0.6586799999999998  0.9177  1.0000
  C   C4        1.0  0.16636999999999996  0.73089  0.91457  1.0000
  C   C5        1.0  0.020390000000000023  0.67392  0.07051  1.0000
  C   C6        1.0  0.02273000000000002  0.57559  0.03807  1.0000
  C   C7        1.0  0.17845  0.55308  0.029139999999999992  1.0000
  C   C8        1.0  0.18015999999999988  0.46127999999999986  0.9924699999999997  1.0000
  C   C9        1.0  0.03293999999999998  0.39054  0.96253  1.0000
  C   C10       1.0  0.8789499999999999  0.41314999999999985  0.9757799999999998  1.0000
  C   C11       1.0  0.87526  0.50585  0.015459999999999996  1.0000
  C   C12       1.0  0.71222  0.52793  0.03479999999999999  1.0000
  C   C13       1.0  0.34375  0.62494  0.058599999999999985  1.0000
  C   C14       1.0  0.041859999999999876  0.29274999999999984  0.9158999999999998  1.0000
  C   C15       1.0  0.7176099999999999  0.33725999999999984  0.9422599999999998  1.0000
  C   C16       1.0  0.80848  0.33822999999999986  0.09217  1.0000
  C   C17       1.0  0.89274  0.26375  0.08831999999999997  1.0000
  C   C18       1.0  0.43591  0.26049  0.06492  1.0000
  C   C19       1.0  0.51172  0.3257799999999999  0.03349  1.0000
  C   C20       1.0  0.9863099999999999  0.19219999999999998  0.26270999999999994  1.0000
  C   C21       1.0  0.09911999999999997  0.29031  0.32517  1.0000
  C   C22       1.0  0.37661  0.25832999999999995  0.3395999999999999  1.0000
  C   C23       1.0  0.43327999999999994  0.18232999999999996  0.26654999999999995  1.0000
  C   C24       1.0  0.34800999999999993  0.39634999999999987  0.32580999999999993  1.0000
  C   C25       1.0  0.44859  0.46224999999999994  0.42425999999999997  1.0000
  C   C26       1.0  0.62686  0.47607  0.44692  1.0000
  C   C27       1.0  0.7199  0.53108  0.53881  1.0000
  C   C28       1.0  0.64307  0.57155  0.6095399999999997  1.0000
  C   C29       1.0  0.4666299999999999  0.5624099999999997  0.5867999999999998  1.0000
  C   C30       1.0  0.37079999999999996  0.5095199999999999  0.4939999999999999  1.0000
  C   C31       1.0  0.18618999999999994  0.50743  0.4718099999999999  1.0000
  C   C32       1.0  0.7212399999999999  0.43412999999999996  0.3753199999999999  1.0000
  C   C33       1.0  0.74966  0.62254  0.7073  1.0000
  C   C34       1.0  0.38069  0.60497  0.6625  1.0000
  C   C35       1.0  0.47085999999999983  0.7538499999999999  0.6611799999999998  1.0000
  C   C36       1.0  0.6299499999999998  0.8244499999999997  0.7357099999999998  1.0000
  C   C37       1.0  0.17686999999999986  0.8046499999999998  0.7391099999999998  1.0000
  C   C38       1.0  0.18664999999999998  0.70776  0.67402  1.0000
  C   C39       1.0  0.7926899999999997  0.06883999999999983  0.8078699999999998  1.0000
  C   C40       1.0  0.8072699999999999  0.034019999999999884  0.7098899999999998  1.0000
  C   C41       1.0  0.11612999999999986  0.08250999999999989  0.7410699999999998  1.0000
  C   C42       1.0  0.2508899999999999  0.0857699999999999  0.8162399999999997  1.0000
  C   C43       1.0  0.9502999999999998  0.9294999999999999  0.6033899999999998  1.0000
  C   C44       1.0  0.9849499999999999  0.96172  0.53728  1.0000
  C   C45       1.0  0.14958  0.97071  0.5235899999999999  1.0000
  C   C46       1.0  0.18808  0.007359999999999992  0.46847  1.0000
  C   C47       1.0  0.07096000000000001  0.037349999999999994  0.42779  1.0000
  C   C48       1.0  0.9036799999999998  0.023859999999999926  0.43708999999999987  1.0000
  C   C49       1.0  0.86016  0.98409  0.48998999999999987  1.0000
  C   C50       1.0  0.67765  0.96451  0.4924599999999999  1.0000
  C   C51       1.0  0.28540999999999983  0.9412999999999998  0.5658599999999998  1.0000
  C   C52       1.0  0.12687999999999994  0.08434999999999997  0.3770399999999999  1.0000
  C   C53       1.0  0.7759799999999997  0.05751999999999993  0.3950799999999999  1.0000
  C   C54       1.0  0.7155300000000001  0.9072599999999997  0.24569  1.0000
  C   C55       1.0  0.8063  0.91135  0.17587  1.0000
  C   C56       1.0  0.37225  0.93501  0.19525  1.0000
  C   C57       1.0  0.47890999999999984  0.9674999999999999  0.2923199999999999  1.0000
  N   N1        1.0  0.96058  0.69599  0.99694  1.0000
  N   N2        1.0  0.67043  0.30717  0.00873  1.0000
  N   N3        1.0  0.26459  0.30078  0.30347  1.0000
  N   N4        1.0  0.3638699999999999  0.7015099999999999  0.6924099999999997  1.0000
  N   N5        1.0  0.9631  0.002999999999999993  0.69905  1.0000
  N   N6        1.0  0.6624899999999999  0.9912599999999999  0.29845  1.0000
  O   O1        1.0  0.8329999999999995  0.8129499999999997  0.9558799999999997  1.0000
  O   O2        1.0  0.5731799999999999  0.71034  0.8797299999999999  1.0000
  O   O3        1.0  0.19533999999999985  0.8145699999999997  0.9734099999999998  1.0000
  O   O4        1.0  0.23745  0.6985299999999999  0.8497499999999999  1.0000
  O   O5        1.0  0.031299999999999994  0.29365  0.15052  1.0000
  O   O6        1.0  0.8236499999999998  0.18128  0.02711  1.0000
  O   O7        1.0  0.34242  0.2899  0.11879999999999999  1.0000
  O   O8        1.0  0.46875  0.18371  0.03481  1.0000
  O   O9        1.0  0.015850000000000006  0.1433  0.18714  1.0000
  O   O10       1.0  0.86552  0.16981999999999994  0.2926799999999999  1.0000
  O   O11       1.0  0.37356  0.15576999999999996  0.18282999999999996  1.0000
  O   O12       1.0  0.53964  0.1511  0.29849  1.0000
  O   O13       1.0  0.7394699999999998  0.8564699999999997  0.7059899999999998  1.0000
  O   O14       1.0  0.6428  0.84603  0.81823  1.0000
  O   O15       1.0  0.05425  0.82912  0.70985  1.0000
  O   O16       1.0  0.28672  0.85143  0.81582  1.0000
  O   O17       1.0  0.87434  0.043379999999999946  0.8568199999999999  1.0000
  O   O18       1.0  0.6913699999999999  0.11947999999999989  0.8298799999999997  1.0000
  O   O19       1.0  0.22127999999999984  0.02698999999999988  0.8410599999999998  1.0000
  O   O20       1.0  0.3868299999999999  0.1505099999999999  0.8485799999999998  1.0000
  O   O21       1.0  0.88158  0.84884  0.14302  1.0000
  O   O22       1.0  0.8007199999999999  0.9730699999999999  0.15516  1.0000
  O   O23       1.0  0.22443999999999992  0.8818099999999998  0.17148999999999998  1.0000
  O   O24       1.0  0.43632  0.9637  0.14782  1.0000
