data_image0
_chemical_formula_structural       Y8H24C72S12O48
_chemical_formula_sum              "Y8 H24 C72 S12 O48"
_cell_length_a       12.28308
_cell_length_b       17.0082
_cell_length_c       18.19778
_cell_angle_alpha    98.60473
_cell_angle_beta     109.58944
_cell_angle_gamma    89.96766

_space_group_name_H-M_alt    "P 1"
_space_group_IT_number       1

loop_
  _space_group_symop_operation_xyz
  'x, y, z'

loop_
  _atom_site_type_symbol
  _atom_site_label
  _atom_site_symmetry_multiplicity
  _atom_site_fract_x
  _atom_site_fract_y
  _atom_site_fract_z
  _atom_site_occupancy
  Y   Y1        1.0  0.62777  0.08049  0.15178  1.0000
  Y   Y2        1.0  0.56852  0.17024  0.33508  1.0000
  Y   Y3        1.0  0.11085  0.56692  0.15753  1.0000
  Y   Y4        1.0  0.10335000000000001  0.68994  0.35511  1.0000
  Y   Y5        1.0  0.47604  0.91813  0.84655  1.0000
  Y   Y6        1.0  0.23450000000000001  0.82961  0.66474  1.0000
  Y   Y7        1.0  0.95387  0.43386000000000013  0.8429700000000002  1.0000
  Y   Y8        1.0  0.7487500000000001  0.31042000000000003  0.6441800000000002  1.0000
  H   H1        1.0  0.7193700000000001  0.78331  0.951  1.0000
  H   H2        1.0  0.8555  0.07365  0.49851  1.0000
  H   H3        1.0  0.87586  0.68986  0.03107  1.0000
  H   H4        1.0  0.0025200000000000695  0.9704799999999999  0.57005  1.0000
  H   H5        1.0  0.80412  0.50345  0.35627  1.0000
  H   H6        1.0  0.42018  0.73978  0.16001  1.0000
  H   H7        1.0  0.13527999999999996  0.26477  0.92493  1.0000
  H   H8        1.0  0.39805999999999997  0.57929  0.49123999999999995  1.0000
  H   H9        1.0  0.6942  0.3625300000000001  0.33574  1.0000
  H   H10       1.0  0.52011  0.88097  0.16577  1.0000
  H   H11       1.0  0.29341  0.16332  0.98667  1.0000
  H   H12       1.0  0.5585700000000002  0.48080999999999996  0.5575800000000002  1.0000
  H   H13       1.0  0.76767  0.21544  0.04873  1.0000
  H   H14       1.0  0.35774  0.92595  0.49994  1.0000
  H   H15       1.0  0.8438500000000001  0.3106300000000001  0.9697400000000002  1.0000
  H   H16       1.0  0.43262  0.03073  0.42956  1.0000
  H   H17       1.0  0.44922000000000006  0.49571  0.64513  1.0000
  H   H18       1.0  0.25870999999999994  0.26101  0.8397  1.0000
  H   H19       1.0  0.21157000000000004  0.73542  0.07546  1.0000
  H   H20       1.0  0.9073  0.42146  0.5075  1.0000
  H   H21       1.0  0.35855  0.6365  0.6649  1.0000
  H   H22       1.0  0.35463  0.12026  0.83332  1.0000
  H   H23       1.0  0.3069  0.83714  0.013080000000000003  1.0000
  H   H24       1.0  0.00038000000000005705  0.52136  0.4417700000000001  1.0000
  C   C1        1.0  0.63164  0.90376  0.04327  1.0000
  C   C2        1.0  0.78996  0.06009  0.33267  1.0000
  C   C3        1.0  0.71299  0.84062  0.06467000000000003  1.0000
  C   C4        1.0  0.87461  0.016910000000000012  0.38832  1.0000
  C   C5        1.0  0.7509  0.78568  0.01482  1.0000
  C   C6        1.0  0.8962500000000001  0.02812999999999999  0.46961  1.0000
  C   C7        1.0  0.85487  0.75352  0.13824  1.0000
  C   C8        1.0  0.83281  0.73624  0.05708  1.0000
  C   C9        1.0  0.009679999999999985  0.9220000000000002  0.45455  1.0000
  C   C10       1.0  0.9733600000000002  0.97401  0.5073400000000002  1.0000
  C   C11       1.0  0.9364100000000001  0.71755  0.2016  1.0000
  C   C12       1.0  0.08416999999999997  0.85517  0.47364  1.0000
  C   C13       1.0  0.95396  0.51752  0.2649  1.0000
  C   C14       1.0  0.2621800000000001  0.73577  0.24714000000000003  1.0000
  C   C15       1.0  0.09515  0.39361  0.03229  1.0000
  C   C16       1.0  0.2842000000000001  0.54218  0.3216700000000001  1.0000
  C   C17       1.0  0.8785100000000001  0.45142  0.26836  1.0000
  C   C18       1.0  0.33532  0.80017  0.23842  1.0000
  C   C19       1.0  0.16695  0.32463  0.04489  1.0000
  C   C20       1.0  0.37583  0.5047  0.37846  1.0000
  C   C21       1.0  0.81061  0.45102999999999993  0.31609  1.0000
  C   C22       1.0  0.40736  0.79556  0.19308  1.0000
  C   C23       1.0  0.1821100000000001  0.26617  0.9874400000000001  1.0000
  C   C24       1.0  0.42417  0.5272500000000001  0.45999  1.0000
  C   C25       1.0  0.77634  0.32073000000000007  0.2494  1.0000
  C   C26       1.0  0.75227  0.37671  0.30525  1.0000
  C   C27       1.0  0.42736  0.93051  0.24359  1.0000
  C   C28       1.0  0.4601600000000001  0.8700100000000002  0.19602000000000006  1.0000
  C   C29       1.0  0.31101  0.23028  0.10215000000000003  1.0000
  C   C30       1.0  0.26548  0.21279  0.02003  1.0000
  C   C31       1.0  0.5220700000000003  0.41362000000000004  0.4398400000000001  1.0000
  C   C32       1.0  0.50858  0.47541  0.49506  1.0000
  C   C33       1.0  0.72971  0.23794  0.22294  1.0000
  C   C34       1.0  0.46616  0.0147  0.26341  1.0000
  C   C35       1.0  0.4037800000000001  0.18898  0.1545  1.0000
  C   C36       1.0  0.59814  0.34679  0.45376  1.0000
  C   C37       1.0  0.59038  0.09413000000000002  0.95479  1.0000
  C   C38       1.0  0.45887  0.93662  0.6653  1.0000
  C   C39       1.0  0.64927  0.15855  0.93456  1.0000
  C   C40       1.0  0.48711  0.98124  0.61025  1.0000
  C   C41       1.0  0.736  0.21353999999999998  0.98502  1.0000
  C   C42       1.0  0.42727  0.97131  0.52914  1.0000
  C   C43       1.0  0.71698  0.24727  0.86233  1.0000
  C   C44       1.0  0.7753900000000001  0.26401  0.9434900000000003  1.0000
  C   C45       1.0  0.55512  0.07796  0.54531  1.0000
  C   C46       1.0  0.46620000000000006  0.026389999999999997  0.4920900000000001  1.0000
  C   C47       1.0  0.7355300000000001  0.28446000000000005  0.7998200000000002  1.0000
  C   C48       1.0  0.61023  0.14499000000000004  0.52639  1.0000
  C   C49       1.0  0.69221  0.48378  0.73626  1.0000
  C   C50       1.0  0.014120000000000046  0.26422  0.75306  1.0000
  C   C51       1.0  0.06504000000000004  0.60652  0.96828  1.0000
  C   C52       1.0  0.9628300000000001  0.45786  0.67795  1.0000
  C   C53       1.0  0.61131  0.54879  0.73201  1.0000
  C   C54       1.0  0.09637  0.20002000000000003  0.76157  1.0000
  C   C55       1.0  0.12321000000000004  0.67577  0.9555900000000002  1.0000
  C   C56       1.0  0.9975600000000001  0.4953  0.62089  1.0000
  C   C57       1.0  0.49555000000000005  0.54841  0.68478  1.0000
  C   C58       1.0  0.21362  0.20508  0.80664  1.0000
  C   C59       1.0  0.19556  0.73424  0.012890000000000004  1.0000
  C   C60       1.0  0.9644  0.4733800000000001  0.53921  1.0000
  C   C61       1.0  0.52684  0.6790800000000001  0.75024  1.0000
  C   C62       1.0  0.44720000000000004  0.62262  0.69521  1.0000
  C   C63       1.0  0.18467999999999996  0.07012  0.75608  1.0000
  C   C64       1.0  0.26432  0.13089  0.80347  1.0000
  C   C65       1.0  0.20842  0.77038  0.89777  1.0000
  C   C66       1.0  0.24558  0.78777  0.9799400000000001  1.0000
  C   C67       1.0  0.08211000000000002  0.58719  0.55985  1.0000
  C   C68       1.0  0.013340000000000012  0.5258  0.50435  1.0000
  C   C69       1.0  0.50758  0.76195  0.77678  1.0000
  C   C70       1.0  0.20488000000000017  0.9861100000000002  0.7361500000000002  1.0000
  C   C71       1.0  0.24782000000000007  0.81154  0.84477  1.0000
  C   C72       1.0  0.14375000000000004  0.65447  0.54625  1.0000
  S   S1        1.0  0.77627  0.831  0.16281  1.0000
  S   S2        1.0  0.95015  0.9403  0.35857  1.0000
  S   S3        1.0  0.86982  0.3601  0.20962  1.0000
  S   S4        1.0  0.33299000000000006  0.89582  0.28519  1.0000
  S   S5        1.0  0.25221  0.31248  0.13927  1.0000
  S   S6        1.0  0.43345  0.42003  0.3448600000000001  1.0000
  S   S7        1.0  0.61518  0.16908  0.83669  1.0000
  S   S8        1.0  0.59188  0.05809  0.6408  1.0000
  S   S9        1.0  0.66047  0.64057  0.78966  1.0000
  S   S10       1.0  0.04843000000000008  0.10425  0.71484  1.0000
  S   S11       1.0  0.11306999999999999  0.68815  0.861  1.0000
  S   S12       1.0  0.0888  0.57982  0.65481  1.0000
  O   O1        1.0  0.61431  0.9503  0.10044  1.0000
  O   O2        1.0  0.7777  0.04813  0.25923  1.0000
  O   O3        1.0  0.61403  0.08762  0.02687  1.0000
  O   O4        1.0  0.75349  0.19391  0.16778  1.0000
  O   O5        1.0  0.6613600000000001  0.21023000000000003  0.25474  1.0000
  O   O6        1.0  0.53678  0.04163  0.23273  1.0000
  O   O7        1.0  0.4609100000000001  0.14268  0.12029000000000001  1.0000
  O   O8        1.0  0.7306800000000001  0.10732  0.36438  1.0000
  O   O9        1.0  0.57131  0.15882  0.45561  1.0000
  O   O10       1.0  0.4343000000000001  0.06061  0.31345  1.0000
  O   O11       1.0  0.42223  0.20265  0.22878000000000004  1.0000
  O   O12       1.0  0.59784  0.29815  0.39249  1.0000
  O   O13       1.0  0.005270000000000005  0.66623  0.1851  1.0000
  O   O14       1.0  0.94036  0.73957  0.27255  1.0000
  O   O15       1.0  0.11140000000000004  0.81396  0.41813  1.0000
  O   O16       1.0  0.99573  0.50718  0.20863  1.0000
  O   O17       1.0  0.24879  0.67015  0.19982  1.0000
  O   O18       1.0  0.10093  0.44422000000000006  0.09285000000000003  1.0000
  O   O19       1.0  0.25965000000000005  0.51549  0.24836000000000003  1.0000
  O   O20       1.0  0.07096  0.60015  0.03853  1.0000
  O   O21       1.0  0.97386  0.5790800000000002  0.3179900000000001  1.0000
  O   O22       1.0  0.21548  0.75113  0.30045  1.0000
  O   O23       1.0  0.23210999999999998  0.59886  0.34828  1.0000
  O   O24       1.0  0.13372  0.66177  0.47592  1.0000
  O   O25       1.0  0.5175400000000001  0.04785000000000002  0.8966200000000002  1.0000
  O   O26       1.0  0.51964  0.9481799999999999  0.73861  1.0000
  O   O27       1.0  0.5835  0.90858  0.9708  1.0000
  O   O28       1.0  0.58835  0.80615  0.82979  1.0000
  O   O29       1.0  0.40674  0.78974  0.74771  1.0000
  O   O30       1.0  0.3067000000000001  0.96007  0.7664800000000003  1.0000
  O   O31       1.0  0.3389400000000002  0.85775  0.8781800000000002  1.0000
  O   O32       1.0  0.36902  0.88857  0.63338  1.0000
  O   O33       1.0  0.11633999999999996  0.84136  0.54443  1.0000
  O   O34       1.0  0.12352999999999995  0.93972  0.68659  1.0000
  O   O35       1.0  0.19129000000000004  0.79762  0.77064  1.0000
  O   O36       1.0  0.20641000000000015  0.70187  0.6078200000000002  1.0000
  O   O37       1.0  0.81871  0.33764000000000005  0.8180000000000002  1.0000
  O   O38       1.0  0.67122  0.26149  0.72854  1.0000
  O   O39       1.0  0.6928900000000002  0.18626  0.5815700000000003  1.0000
  O   O40       1.0  0.79062  0.49656  0.79161  1.0000
  O   O41       1.0  0.04782  0.32981  0.80038  1.0000
  O   O42       1.0  0.01114000000000002  0.55588  0.90763  1.0000
  O   O43       1.0  0.011530000000000097  0.48473  0.7511800000000002  1.0000
  O   O44       1.0  0.030889999999999994  0.39966  0.96208  1.0000
  O   O45       1.0  0.66057  0.421  0.68479  1.0000
  O   O46       1.0  0.9142700000000002  0.24905  0.70002  1.0000
  O   O47       1.0  0.88433  0.40121  0.65174  1.0000
  O   O48       1.0  0.6606500000000001  0.34142  0.52409  1.0000
