data_image0
_chemical_formula_structural       Cd4H40C88O32
_chemical_formula_sum              "Cd4 H40 C88 O32"
_cell_length_a       8.73457
_cell_length_b       13.638250000000001
_cell_length_c       19.850649999999998
_cell_angle_alpha    93.82917
_cell_angle_beta     89.97777
_cell_angle_gamma    89.83707

_symmetry_space_group_name_H-M    'P 1'
_symmetry_Int_Tables_number       1

loop_
  _symmetry_equiv_pos_as_xyz
  'x,y,z'

loop_
  _atom_site_type_symbol
  _atom_site_label
  _atom_site_symmetry_multiplicity
  _atom_site_fract_x
  _atom_site_fract_y
  _atom_site_fract_z
  _atom_site_occupancy
  Cd  Cd1       1.0  0.74615  0.4857300000000001  0.2579  1.0000
  Cd  Cd2       1.0  0.24961  0.01541  0.24254  1.0000
  Cd  Cd3       1.0  0.25399  0.51441  0.74206  1.0000
  Cd  Cd4       1.0  0.75024  0.9846000000000003  0.7574100000000001  1.0000
  H   H1        1.0  0.10191  0.5074700000000002  0.44338  1.0000
  H   H2        1.0  0.94914  0.7802800000000002  0.37226  1.0000
  H   H3        1.0  0.15212  0.7737300000000003  0.57118  1.0000
  H   H4        1.0  0.19085  0.59424  0.55226  1.0000
  H   H5        1.0  0.9552000000000002  0.8835800000000003  0.58858  1.0000
  H   H6        1.0  0.58588  0.20323000000000005  0.37966000000000005  1.0000
  H   H7        1.0  0.31433  0.23471000000000003  0.56347  1.0000
  H   H8        1.0  0.2668  0.40801000000000004  0.54294  1.0000
  H   H9        1.0  0.37865  0.4793400000000001  0.44034  1.0000
  H   H10       1.0  0.4689  0.12728  0.5941200000000001  1.0000
  H   H11       1.0  0.60497  0.99222  0.055290000000000006  1.0000
  H   H12       1.0  0.44941000000000014  0.7205  0.12671000000000002  1.0000
  H   H13       1.0  0.65263  0.7253200000000002  0.92781  1.0000
  H   H14       1.0  0.69185  0.9046800000000002  0.9464600000000001  1.0000
  H   H15       1.0  0.4562200000000002  0.6152600000000003  0.9105300000000001  1.0000
  H   H16       1.0  0.0871  0.2977300000000001  0.12131000000000003  1.0000
  H   H17       1.0  0.81484  0.26477000000000006  0.93796  1.0000
  H   H18       1.0  0.7692400000000003  0.09157  0.95894  1.0000
  H   H19       1.0  0.88328  0.021000000000000005  0.06156  1.0000
  H   H20       1.0  0.96947  0.3722600000000001  0.9060100000000001  1.0000
  H   H21       1.0  0.89812  0.4925500000000001  0.55662  1.0000
  H   H22       1.0  0.0508  0.21974  0.62776  1.0000
  H   H23       1.0  0.84789  0.22624000000000002  0.42884000000000005  1.0000
  H   H24       1.0  0.80913  0.40574  0.44775  1.0000
  H   H25       1.0  0.04481999999999999  0.11643  0.41145000000000004  1.0000
  H   H26       1.0  0.41426  0.7970100000000001  0.6203000000000001  1.0000
  H   H27       1.0  0.68583  0.76524  0.43648  1.0000
  H   H28       1.0  0.73317  0.59191  0.45708000000000004  1.0000
  H   H29       1.0  0.62099  0.52077  0.5597200000000001  1.0000
  H   H30       1.0  0.53112  0.8728100000000001  0.40581000000000006  1.0000
  H   H31       1.0  0.3949  0.007810000000000002  0.94473  1.0000
  H   H32       1.0  0.55054  0.27951000000000004  0.8732800000000002  1.0000
  H   H33       1.0  0.34744  0.2747200000000001  0.07220000000000001  1.0000
  H   H34       1.0  0.30811  0.09535  0.05356  1.0000
  H   H35       1.0  0.5438500000000001  0.38469  0.08945  1.0000
  H   H36       1.0  0.9127900000000001  0.70229  0.87871  1.0000
  H   H37       1.0  0.18514  0.73522  0.062040000000000005  1.0000
  H   H38       1.0  0.23074  0.9084100000000003  0.04105  1.0000
  H   H39       1.0  0.11671999999999999  0.97898  0.9384400000000002  1.0000
  H   H40       1.0  0.030409999999999996  0.6277100000000002  0.094  1.0000
  C   C1        1.0  0.9399600000000001  0.58498  0.34546  1.0000
  C   C2        1.0  0.01934  0.6396100000000002  0.40275  1.0000
  C   C3        1.0  0.09041000000000003  0.58673  0.45251  1.0000
  C   C4        1.0  0.004389999999999999  0.7414000000000002  0.4118200000000001  1.0000
  C   C5        1.0  0.051660000000000005  0.79116  0.47284000000000004  1.0000
  C   C6        1.0  0.11664000000000001  0.73625  0.52366  1.0000
  C   C7        1.0  0.13889  0.6352600000000003  0.51296  1.0000
  C   C8        1.0  0.02761  0.89716  0.48549000000000003  1.0000
  C   C9        1.0  0.97893  0.9340700000000003  0.54972  1.0000
  C   C10       1.0  0.04864  0.9659700000000002  0.43493000000000004  1.0000
  C   C11       1.0  0.11894000000000002  0.9393400000000002  0.36741000000000007  1.0000
  C   C12       1.0  0.48921000000000003  0.3446800000000001  0.40506000000000003  1.0000
  C   C13       1.0  0.5141  0.24607  0.41552  1.0000
  C   C14       1.0  0.45205  0.20436000000000004  0.47295  1.0000
  C   C15       1.0  0.36421  0.26523000000000013  0.51925  1.0000
  C   C16       1.0  0.3357200000000001  0.36280000000000007  0.50741  1.0000
  C   C17       1.0  0.39738  0.40273  0.45034  1.0000
  C   C18       1.0  0.47548000000000007  0.10122000000000002  0.48548  1.0000
  C   C19       1.0  0.5705  0.39314000000000004  0.35008000000000006  1.0000
  C   C20       1.0  0.49625  0.025120000000000014  0.43223000000000006  1.0000
  C   C21       1.0  0.47791000000000006  0.07216000000000004  0.5521700000000002  1.0000
  C   C22       1.0  0.47695000000000004  0.04226  0.35878  1.0000
  C   C23       1.0  0.44326  0.9166100000000001  0.15376  1.0000
  C   C24       1.0  0.52123  0.8609900000000001  0.09631000000000003  1.0000
  C   C25       1.0  0.59283  0.9130300000000001  0.04641  1.0000
  C   C26       1.0  0.50533  0.7592400000000002  0.08733  1.0000
  C   C27       1.0  0.55256  0.7089300000000002  0.026340000000000002  1.0000
  C   C28       1.0  0.61736  0.7632000000000001  0.9752900000000002  1.0000
  C   C29       1.0  0.64032  0.8640000000000002  0.9859100000000001  1.0000
  C   C30       1.0  0.52853  0.60295  0.0139  1.0000
  C   C31       1.0  0.4794  0.5655800000000001  0.94996  1.0000
  C   C32       1.0  0.5492400000000001  0.53435  0.06453  1.0000
  C   C33       1.0  0.61951  0.5614200000000001  0.13175  1.0000
  C   C34       1.0  0.9927300000000001  0.15615000000000007  0.09609  1.0000
  C   C35       1.0  0.01584  0.2548  0.08545  1.0000
  C   C36       1.0  0.9531500000000002  0.29608000000000007  0.02801  1.0000
  C   C37       1.0  0.8652400000000002  0.23473000000000005  0.9822300000000002  1.0000
  C   C38       1.0  0.83802  0.13711  0.99427  1.0000
  C   C39       1.0  0.90134  0.09749000000000002  0.05118  1.0000
  C   C40       1.0  0.97679  0.39889  0.014750000000000001  1.0000
  C   C41       1.0  0.07583  0.10902000000000003  0.15125000000000002  1.0000
  C   C42       1.0  0.99808  0.4756400000000001  0.06760000000000001  1.0000
  C   C43       1.0  0.9778500000000001  0.42732  0.948  1.0000
  C   C44       1.0  0.9809500000000001  0.45926000000000006  0.14103  1.0000
  C   C45       1.0  0.06008  0.4150100000000001  0.65454  1.0000
  C   C46       1.0  0.9806600000000001  0.3604000000000001  0.5972500000000001  1.0000
  C   C47       1.0  0.90957  0.41329000000000016  0.5475  1.0000
  C   C48       1.0  0.9955400000000001  0.25861000000000006  0.5882000000000001  1.0000
  C   C49       1.0  0.9483299999999999  0.20886000000000005  0.52717  1.0000
  C   C50       1.0  0.88339  0.26376000000000005  0.47634000000000004  1.0000
  C   C51       1.0  0.8611  0.36474  0.4870500000000001  1.0000
  C   C52       1.0  0.9723800000000001  0.10288000000000003  0.51453  1.0000
  C   C53       1.0  0.02103  0.06596000000000002  0.45031  1.0000
  C   C54       1.0  0.9512999999999999  0.03407000000000001  0.56509  1.0000
  C   C55       1.0  0.88096  0.06075000000000001  0.63258  1.0000
  C   C56       1.0  0.5108600000000001  0.65549  0.5949700000000001  1.0000
  C   C57       1.0  0.48597000000000007  0.7541000000000001  0.58444  1.0000
  C   C58       1.0  0.54796  0.7957800000000003  0.5269700000000002  1.0000
  C   C59       1.0  0.63582  0.7348100000000002  0.4807  1.0000
  C   C60       1.0  0.6642  0.6372100000000003  0.49256  1.0000
  C   C61       1.0  0.60251  0.5973700000000002  0.54967  1.0000
  C   C62       1.0  0.5245  0.8989800000000002  0.5144  1.0000
  C   C63       1.0  0.42953  0.60708  0.64998  1.0000
  C   C64       1.0  0.50344  0.9751500000000002  0.56765  1.0000
  C   C65       1.0  0.52206  0.9280900000000002  0.44768  1.0000
  C   C66       1.0  0.5222  0.9590400000000002  0.6413100000000002  1.0000
  C   C67       1.0  0.55675  0.08339000000000003  0.8462600000000001  1.0000
  C   C68       1.0  0.47874  0.13901000000000005  0.9037000000000002  1.0000
  C   C69       1.0  0.4071  0.08699  0.95361  1.0000
  C   C70       1.0  0.4946400000000001  0.24076000000000009  0.91266  1.0000
  C   C71       1.0  0.4474500000000001  0.29106  0.9736500000000001  1.0000
  C   C72       1.0  0.38266  0.23682000000000006  0.02472  1.0000
  C   C73       1.0  0.35964  0.13603  0.014110000000000001  1.0000
  C   C74       1.0  0.47151  0.39703  0.98608  1.0000
  C   C75       1.0  0.52065  0.4343900000000001  0.05002  1.0000
  C   C76       1.0  0.45072  0.4656200000000001  0.93546  1.0000
  C   C77       1.0  0.38032  0.4385000000000001  0.86825  1.0000
  C   C78       1.0  0.00722  0.8438500000000001  0.90391  1.0000
  C   C79       1.0  0.9840600000000002  0.74521  0.91456  1.0000
  C   C80       1.0  0.046730000000000015  0.7039100000000003  0.972  1.0000
  C   C81       1.0  0.13469  0.7652500000000001  0.01777  1.0000
  C   C82       1.0  0.16194  0.8628700000000002  0.00573  1.0000
  C   C83       1.0  0.09864  0.9025000000000002  0.9488200000000001  1.0000
  C   C84       1.0  0.022990000000000003  0.6011  0.9852500000000001  1.0000
  C   C85       1.0  0.92416  0.8909900000000002  0.8487400000000002  1.0000
  C   C86       1.0  0.0015800000000000002  0.52436  0.93239  1.0000
  C   C87       1.0  0.02193  0.57267  0.052  1.0000
  C   C88       1.0  0.01856  0.5406400000000001  0.8589300000000001  1.0000
  O   O1        1.0  0.9392000000000001  0.49098  0.34313000000000005  1.0000
  O   O2        1.0  0.86342  0.6319200000000001  0.30316000000000004  1.0000
  O   O3        1.0  0.2356  0.8853200000000002  0.36403  1.0000
  O   O4        1.0  0.06056  0.9799500000000002  0.31686  1.0000
  O   O5        1.0  0.63733  0.3419500000000001  0.3028  1.0000
  O   O6        1.0  0.57613  0.4869900000000001  0.35416  1.0000
  O   O7        1.0  0.35018  0.08091  0.34128  1.0000
  O   O8        1.0  0.58418  0.01511  0.32021  1.0000
  O   O9        1.0  0.44679  0.01046  0.15757000000000002  1.0000
  O   O10       1.0  0.3633700000000001  0.8705300000000002  0.19523  1.0000
  O   O11       1.0  0.73457  0.61643  0.13473  1.0000
  O   O12       1.0  0.56156  0.52015  0.18209000000000003  1.0000
  O   O13       1.0  0.14305  0.16122000000000003  0.19782  1.0000
  O   O14       1.0  0.08295000000000002  0.01501000000000001  0.14785000000000004  1.0000
  O   O15       1.0  0.85367  0.42277  0.15899  1.0000
  O   O16       1.0  0.09078  0.4848300000000001  0.17845  1.0000
  O   O17       1.0  0.06088  0.50901  0.65684  1.0000
  O   O18       1.0  0.13660000000000005  0.36811000000000005  0.69685  1.0000
  O   O19       1.0  0.7642  0.11466000000000001  0.6359100000000001  1.0000
  O   O20       1.0  0.9394000000000001  0.020240000000000005  0.68317  1.0000
  O   O21       1.0  0.36254  0.6584000000000001  0.69715  1.0000
  O   O22       1.0  0.42397  0.5132200000000001  0.64605  1.0000
  O   O23       1.0  0.6475600000000001  0.9189300000000002  0.65911  1.0000
  O   O24       1.0  0.41629  0.9888300000000001  0.67979  1.0000
  O   O25       1.0  0.55321  0.98953  0.8424300000000001  1.0000
  O   O26       1.0  0.63672  0.12948000000000007  0.8048300000000003  1.0000
  O   O27       1.0  0.26547  0.3833000000000001  0.8652800000000002  1.0000
  O   O28       1.0  0.43817  0.47987000000000013  0.81792  1.0000
  O   O29       1.0  0.8569  0.8388000000000002  0.8021700000000002  1.0000
  O   O30       1.0  0.91709  0.9850100000000002  0.85211  1.0000
  O   O31       1.0  0.1457  0.57726  0.84092  1.0000
  O   O32       1.0  0.9088500000000003  0.51486  0.8215300000000001  1.0000
