data_image0
_chemical_formula_structural       Gd4H24C84N24O72
_chemical_formula_sum              "Gd4 H24 C84 N24 O72"
_cell_length_a       14.52451
_cell_length_b       14.48042
_cell_length_c       24.02895
_cell_angle_alpha    83.53682
_cell_angle_beta     83.47702000000001
_cell_angle_gamma    61.83911

_space_group_name_H-M_alt    "P 1"
_space_group_IT_number       1

loop_
  _space_group_symop_operation_xyz
  'x, y, z'

loop_
  _atom_site_type_symbol
  _atom_site_label
  _atom_site_symmetry_multiplicity
  _atom_site_fract_x
  _atom_site_fract_y
  _atom_site_fract_z
  _atom_site_occupancy
  Gd  Gd1       1.0  0.07476000000000008  0.5861399999999999  0.0017299999999999996  1.0000
  Gd  Gd2       1.0  0.41304999999999975  0.92571  0.49775  1.0000
  Gd  Gd3       1.0  0.9252399999999996  0.41386  0.99828  1.0000
  Gd  Gd4       1.0  0.58696  0.07428999999999998  0.50226  1.0000
  H   H1        1.0  0.95014  0.65894  0.86365  1.0000
  H   H2        1.0  0.7040000000000002  0.9655999999999998  0.90185  1.0000
  H   H3        1.0  0.7303099999999999  0.89554  0.58873  1.0000
  H   H4        1.0  0.51922  0.79045  0.68103  1.0000
  H   H5        1.0  0.16897000000000004  0.79082  0.09873  1.0000
  H   H6        1.0  0.25017999999999996  0.48634999999999995  0.18393999999999994  1.0000
  H   H7        1.0  0.33876  0.05028999999999998  0.63333  1.0000
  H   H8        1.0  0.03598000000000002  0.30345  0.5954299999999999  1.0000
  H   H9        1.0  0.10264000000000002  0.268  0.9096299999999999  1.0000
  H   H10       1.0  0.20762000000000005  0.4804299999999999  0.81864  1.0000
  H   H11       1.0  0.21442999999999995  0.82466  0.40221  1.0000
  H   H12       1.0  0.5128400000000001  0.7546699999999997  0.31346  1.0000
  H   H13       1.0  0.049850000000000075  0.34105999999999986  0.13636  1.0000
  H   H14       1.0  0.29598  0.0344  0.09816  1.0000
  H   H15       1.0  0.2697  0.10445999999999997  0.4112699999999999  1.0000
  H   H16       1.0  0.48079  0.20953999999999995  0.31897  1.0000
  H   H17       1.0  0.83104  0.20918  0.9012699999999998  1.0000
  H   H18       1.0  0.74983  0.51365  0.8160599999999998  1.0000
  H   H19       1.0  0.6612400000000002  0.9497099999999998  0.36666999999999994  1.0000
  H   H20       1.0  0.96402  0.6965500000000001  0.40457  1.0000
  H   H21       1.0  0.89737  0.7319999999999998  0.09037  1.0000
  H   H22       1.0  0.79237  0.51957  0.18136  1.0000
  H   H23       1.0  0.78558  0.17534000000000002  0.5977899999999999  1.0000
  H   H24       1.0  0.48715999999999987  0.24532999999999996  0.6865399999999998  1.0000
  C   C1        1.0  0.8683  0.7941399999999997  0.9482399999999999  1.0000
  C   C2        1.0  0.8294600000000001  0.80894  0.8908199999999998  1.0000
  C   C3        1.0  0.87976  0.7301400000000001  0.8532399999999998  1.0000
  C   C4        1.0  0.8399399999999999  0.7411899999999998  0.80172  1.0000
  C   C5        1.0  0.75047  0.8318099999999999  0.7838699999999997  1.0000
  C   C6        1.0  0.7068100000000002  0.9131999999999999  0.8210099999999999  1.0000
  C   C7        1.0  0.7426100000000002  0.9015999999999998  0.8741199999999999  1.0000
  C   C8        1.0  0.7044000000000004  0.83801  0.7300899999999998  1.0000
  C   C9        1.0  0.7380100000000002  0.871  0.6776599999999999  1.0000
  C   C10       1.0  0.6968400000000003  0.8742799999999998  0.6278  1.0000
  C   C11       1.0  0.6174  0.8453399999999998  0.6284199999999999  1.0000
  C   C12       1.0  0.5812600000000001  0.8127199999999998  0.6792499999999999  1.0000
  C   C13       1.0  0.6231500000000001  0.8110499999999999  0.72874  1.0000
  C   C14       1.0  0.16306  0.61158  0.08845999999999997  1.0000
  C   C15       1.0  0.20529  0.63525  0.13537  1.0000
  C   C16       1.0  0.20115999999999998  0.7338700000000001  0.13382999999999998  1.0000
  C   C17       1.0  0.23389  0.76118  0.17844999999999994  1.0000
  C   C18       1.0  0.27696  0.69123  0.22535999999999995  1.0000
  C   C19       1.0  0.28300999999999993  0.59128  0.22426  1.0000
  C   C20       1.0  0.24577999999999997  0.56376  0.18120999999999995  1.0000
  C   C21       1.0  0.5637300000000001  0.8594299999999998  0.57736  1.0000
  C   C22       1.0  0.20802  0.13749  0.548  1.0000
  C   C23       1.0  0.19104000000000002  0.17455999999999997  0.60615  1.0000
  C   C24       1.0  0.26854  0.12131  0.6440699999999999  1.0000
  C   C25       1.0  0.25805000000000006  0.15961000000000006  0.6959799999999998  1.0000
  C   C26       1.0  0.16835  0.24929  0.7143599999999998  1.0000
  C   C27       1.0  0.08743000000000009  0.2952499999999999  0.6771799999999999  1.0000
  C   C28       1.0  0.09932000000000003  0.26212  0.6232399999999999  1.0000
  C   C29       1.0  0.16288000000000005  0.29394999999999993  0.7685399999999999  1.0000
  C   C30       1.0  0.13015  0.25941999999999993  0.82069  1.0000
  C   C31       1.0  0.12481  0.30131  0.8708  1.0000
  C   C32       1.0  0.15299999999999997  0.38139999999999996  0.8706799999999998  1.0000
  C   C33       1.0  0.18604000000000007  0.41785  0.82012  1.0000
  C   C34       1.0  0.18880000000000002  0.37584000000000006  0.7704399999999999  1.0000
  C   C35       1.0  0.3903699999999998  0.83616  0.41082  1.0000
  C   C36       1.0  0.3666699999999999  0.7945999999999998  0.36352  1.0000
  C   C37       1.0  0.26956000000000013  0.7956299999999997  0.3660499999999999  1.0000
  C   C38       1.0  0.24165999999999999  0.76387  0.3212499999999999  1.0000
  C   C39       1.0  0.31004  0.72378  0.27336  1.0000
  C   C40       1.0  0.40922  0.71919  0.2738  1.0000
  C   C41       1.0  0.43663  0.75679  0.31678999999999996  1.0000
  C   C42       1.0  0.13904000000000005  0.43542  0.92174  1.0000
  C   C43       1.0  0.13169000000000003  0.20586999999999994  0.051759999999999994  1.0000
  C   C44       1.0  0.17053000000000001  0.19106  0.10918999999999997  1.0000
  C   C45       1.0  0.12023000000000005  0.26986999999999994  0.14676999999999998  1.0000
  C   C46       1.0  0.16006  0.25881  0.19829  1.0000
  C   C47       1.0  0.24953  0.16819  0.21613  1.0000
  C   C48       1.0  0.29318  0.0868  0.17898999999999998  1.0000
  C   C49       1.0  0.25738  0.0984  0.12589  1.0000
  C   C50       1.0  0.2956  0.16199999999999995  0.26991  1.0000
  C   C51       1.0  0.26199000000000006  0.12900999999999999  0.32234  1.0000
  C   C52       1.0  0.30317  0.12573  0.3721999999999999  1.0000
  C   C53       1.0  0.38261  0.15465999999999994  0.37158  1.0000
  C   C54       1.0  0.41874  0.18728  0.32075  1.0000
  C   C55       1.0  0.37685  0.18895  0.27126  1.0000
  C   C56       1.0  0.8369499999999999  0.38841999999999993  0.91154  1.0000
  C   C57       1.0  0.7947199999999999  0.3647499999999998  0.86463  1.0000
  C   C58       1.0  0.79885  0.26613  0.86617  1.0000
  C   C59       1.0  0.7661199999999998  0.23882  0.82155  1.0000
  C   C60       1.0  0.72304  0.30877  0.77464  1.0000
  C   C61       1.0  0.7169900000000001  0.40872999999999987  0.7757399999999998  1.0000
  C   C62       1.0  0.75422  0.4362499999999999  0.81879  1.0000
  C   C63       1.0  0.43628000000000006  0.14057  0.4226399999999999  1.0000
  C   C64       1.0  0.7919899999999999  0.8625100000000001  0.452  1.0000
  C   C65       1.0  0.8089600000000002  0.8254399999999997  0.3938499999999999  1.0000
  C   C66       1.0  0.73146  0.8786899999999997  0.35592999999999997  1.0000
  C   C67       1.0  0.7419600000000002  0.8403799999999998  0.30402  1.0000
  C   C68       1.0  0.8316600000000001  0.7507  0.28564  1.0000
  C   C69       1.0  0.9125799999999995  0.7047399999999999  0.32282  1.0000
  C   C70       1.0  0.90069  0.73788  0.37676999999999994  1.0000
  C   C71       1.0  0.8371399999999998  0.7060499999999998  0.23146  1.0000
  C   C72       1.0  0.8698700000000001  0.74057  0.17930999999999994  1.0000
  C   C73       1.0  0.8752  0.69869  0.12919999999999998  1.0000
  C   C74       1.0  0.8469999999999999  0.61861  0.12932  1.0000
  C   C75       1.0  0.8139599999999999  0.58215  0.17988  1.0000
  C   C76       1.0  0.8112000000000001  0.6241599999999998  0.22956  1.0000
  C   C77       1.0  0.60963  0.16385  0.58918  1.0000
  C   C78       1.0  0.6333299999999998  0.20540999999999993  0.63648  1.0000
  C   C79       1.0  0.73044  0.20437  0.63395  1.0000
  C   C80       1.0  0.7583499999999997  0.23612999999999995  0.67875  1.0000
  C   C81       1.0  0.68997  0.27622  0.72664  1.0000
  C   C82       1.0  0.5907899999999999  0.2808099999999999  0.7262  1.0000
  C   C83       1.0  0.56338  0.24320999999999998  0.6832099999999998  1.0000
  C   C84       1.0  0.8609500000000001  0.5645899999999999  0.07826  1.0000
  N   N1        1.0  0.8981700000000001  0.65381  0.76504  1.0000
  N   N2        1.0  0.6216599999999997  0.017080000000000012  0.8038499999999998  1.0000
  N   N3        1.0  0.8175099999999998  0.9076299999999998  0.67395  1.0000
  N   N4        1.0  0.57686  0.7793  0.7807399999999998  1.0000
  N   N5        1.0  0.33037  0.50993  0.26982  1.0000
  N   N6        1.0  0.21771000000000001  0.86979  0.17571999999999996  1.0000
  N   N7        1.0  0.3452199999999999  0.09986999999999997  0.7324  1.0000
  N   N8        1.0  0.98344  0.37977  0.69504  1.0000
  N   N9        1.0  0.09724999999999999  0.17697  0.82376  1.0000
  N   N10       1.0  0.22149  0.42222999999999994  0.71896  1.0000
  N   N11       1.0  0.48972000000000004  0.6729099999999998  0.22771  1.0000
  N   N12       1.0  0.13455999999999999  0.77645  0.32516  1.0000
  N   N13       1.0  0.1018400000000001  0.3462099999999999  0.23496  1.0000
  N   N14       1.0  0.37833000000000006  0.98292  0.19614999999999996  1.0000
  N   N15       1.0  0.18249000000000004  0.09238000000000002  0.32604999999999995  1.0000
  N   N16       1.0  0.42314  0.2207  0.21926  1.0000
  N   N17       1.0  0.6696399999999999  0.49007  0.7301799999999998  1.0000
  N   N18       1.0  0.7822999999999997  0.13021  0.8242799999999999  1.0000
  N   N19       1.0  0.6548000000000002  0.9001299999999998  0.26758999999999994  1.0000
  N   N20       1.0  0.01656999999999994  0.62023  0.30496  1.0000
  N   N21       1.0  0.9027900000000001  0.8230099999999998  0.17624999999999993  1.0000
  N   N22       1.0  0.7785099999999996  0.57777  0.28104  1.0000
  N   N23       1.0  0.51028  0.32709  0.77229  1.0000
  N   N24       1.0  0.8654499999999998  0.22355999999999998  0.67484  1.0000
  O   O1        1.0  0.96493  0.7160799999999999  0.9527799999999997  1.0000
  O   O2        1.0  0.8137399999999999  0.84855  0.9865599999999998  1.0000
  O   O3        1.0  0.9873300000000002  0.58764  0.77765  1.0000
  O   O4        1.0  0.59762  0.03231  0.75433  1.0000
  O   O5        1.0  0.58171  0.08400999999999999  0.83899  1.0000
  O   O6        1.0  0.62587  0.75385  0.8238299999999998  1.0000
  O   O7        1.0  0.4925199999999999  0.7792800000000002  0.7777799999999998  1.0000
  O   O8        1.0  0.87997  0.8753499999999997  0.71122  1.0000
  O   O9        1.0  0.81577  0.96956  0.63333  1.0000
  O   O10       1.0  0.14982  0.66959  0.042129999999999994  1.0000
  O   O11       1.0  0.13836  0.53664  0.09414999999999998  1.0000
  O   O12       1.0  0.19495999999999994  0.92209  0.13034  1.0000
  O   O13       1.0  0.22659999999999997  0.90305  0.21932  1.0000
  O   O14       1.0  0.33299000000000006  0.4239599999999999  0.26688  1.0000
  O   O15       1.0  0.36569000000000007  0.53211  0.30820999999999993  1.0000
  O   O16       1.0  0.5072300000000001  0.8153999999999998  0.5733399999999998  1.0000
  O   O17       1.0  0.5680399999999999  0.92489  0.53626  1.0000
  O   O18       1.0  0.85556  0.6515  0.7236399999999998  1.0000
  O   O19       1.0  0.28089  0.03802  0.5445  1.0000
  O   O20       1.0  0.16058  0.19532999999999995  0.50842  1.0000
  O   O21       1.0  0.40877  0.00948000000000001  0.7199799999999998  1.0000
  O   O22       1.0  0.9643399999999999  0.39457000000000003  0.74604  1.0000
  O   O23       1.0  0.9203899999999997  0.4276  0.6586399999999999  1.0000
  O   O24       1.0  0.25067000000000006  0.37145  0.67633  1.0000
  O   O25       1.0  0.21854999999999988  0.50823  0.722  1.0000
  O   O26       1.0  0.13702999999999999  0.11053999999999999  0.7882899999999998  1.0000
  O   O27       1.0  0.031400000000000004  0.1801  0.86226  1.0000
  O   O28       1.0  0.33416  0.8458499999999999  0.45756  1.0000
  O   O29       1.0  0.46304  0.86394  0.4053199999999999  1.0000
  O   O30       1.0  0.08760000000000005  0.7871599999999997  0.37222999999999995  1.0000
  O   O31       1.0  0.09720000000000002  0.77678  0.2809499999999999  1.0000
  O   O32       1.0  0.57513  0.6711600000000001  0.23035  1.0000
  O   O33       1.0  0.4677599999999999  0.63728  0.18933999999999995  1.0000
  O   O34       1.0  0.18273000000000011  0.4925199999999999  0.92506  1.0000
  O   O35       1.0  0.07473000000000002  0.4306899999999999  0.96339  1.0000
  O   O36       1.0  0.34984  0.14266  0.7731999999999998  1.0000
  O   O37       1.0  0.035070000000000025  0.28391999999999995  0.04721999999999999  1.0000
  O   O38       1.0  0.18626000000000004  0.15146999999999997  0.01344  1.0000
  O   O39       1.0  0.012680000000000014  0.41237999999999997  0.22234  1.0000
  O   O40       1.0  0.40237999999999996  0.9676900000000002  0.24566999999999994  1.0000
  O   O41       1.0  0.41829000000000005  0.9159899999999999  0.16100999999999996  1.0000
  O   O42       1.0  0.37413  0.24615  0.17617  1.0000
  O   O43       1.0  0.5074800000000003  0.22072999999999995  0.22220999999999996  1.0000
  O   O44       1.0  0.12004000000000001  0.12464999999999997  0.2887799999999999  1.0000
  O   O45       1.0  0.18422000000000002  0.03046  0.36666999999999994  1.0000
  O   O46       1.0  0.8501900000000001  0.3304099999999999  0.9578699999999998  1.0000
  O   O47       1.0  0.86165  0.46336  0.9058499999999998  1.0000
  O   O48       1.0  0.8050399999999998  0.07790999999999998  0.86966  1.0000
  O   O49       1.0  0.7733999999999999  0.09694999999999998  0.78068  1.0000
  O   O50       1.0  0.66701  0.57604  0.73312  1.0000
  O   O51       1.0  0.63431  0.4678899999999999  0.6917899999999998  1.0000
  O   O52       1.0  0.49278999999999995  0.18459  0.42666  1.0000
  O   O53       1.0  0.4319700000000001  0.07510999999999998  0.4637499999999999  1.0000
  O   O54       1.0  0.14446000000000003  0.3485299999999999  0.27635  1.0000
  O   O55       1.0  0.7191100000000001  0.9619699999999999  0.45549999999999996  1.0000
  O   O56       1.0  0.8394199999999999  0.80467  0.4915799999999999  1.0000
  O   O57       1.0  0.5912400000000002  0.9905099999999998  0.28002  1.0000
  O   O58       1.0  0.035669999999999945  0.60543  0.25396  1.0000
  O   O59       1.0  0.07962000000000008  0.5724  0.34136  1.0000
  O   O60       1.0  0.7493399999999999  0.62854  0.32366999999999996  1.0000
  O   O61       1.0  0.78146  0.4917599999999999  0.278  1.0000
  O   O62       1.0  0.8630199999999998  0.8894499999999997  0.21171999999999996  1.0000
  O   O63       1.0  0.96865  0.81988  0.13775  1.0000
  O   O64       1.0  0.6658499999999998  0.15415  0.54245  1.0000
  O   O65       1.0  0.53695  0.13609999999999994  0.59468  1.0000
  O   O66       1.0  0.9124100000000002  0.21285  0.6277699999999999  1.0000
  O   O67       1.0  0.9027999999999999  0.22321000000000002  0.71905  1.0000
  O   O68       1.0  0.42488  0.32884  0.7696499999999997  1.0000
  O   O69       1.0  0.53225  0.36271  0.81066  1.0000
  O   O70       1.0  0.81725  0.5075  0.07494  1.0000
  O   O71       1.0  0.9252700000000001  0.56931  0.03660999999999999  1.0000
  O   O72       1.0  0.6501999999999999  0.85734  0.22678999999999994  1.0000
