data_image0
_chemical_formula_structural       Ni4H32C72O48
_chemical_formula_sum              "Ni4 H32 C72 O48"
_cell_length_a       10.79572
_cell_length_b       10.76889
_cell_length_c       30.40562
_cell_angle_alpha    90.05208000000002
_cell_angle_beta     89.96724
_cell_angle_gamma    90.04639999999999

_symmetry_space_group_name_H-M    'P 1'
_symmetry_Int_Tables_number       1

loop_
  _symmetry_equiv_pos_as_xyz
  'x,y,z'

loop_
  _atom_site_type_symbol
  _atom_site_label
  _atom_site_symmetry_multiplicity
  _atom_site_fract_x
  _atom_site_fract_y
  _atom_site_fract_z
  _atom_site_occupancy
  Ni  Ni1       1.0  0.30145  0.69476  0.7497000000000003  1.0000
  Ni  Ni2       1.0  0.69501  0.30294  0.24986  1.0000
  Ni  Ni3       1.0  0.80283  0.8030300000000001  0.99965  1.0000
  Ni  Ni4       1.0  0.19809  0.19621  0.49987000000000004  1.0000
  H   H1        1.0  0.20823  0.99527  0.6159800000000002  1.0000
  H   H2        1.0  0.8231300000000001  0.9610300000000003  0.57901  1.0000
  H   H3        1.0  0.96719  0.74657  0.6869800000000003  1.0000
  H   H4        1.0  0.66489  0.6876900000000001  0.68191  1.0000
  H   H5        1.0  0.7910500000000001  0.0025200000000000005  0.11592000000000002  1.0000
  H   H6        1.0  0.17601000000000003  0.03841000000000001  0.07906000000000003  1.0000
  H   H7        1.0  0.03083  0.2526  0.18708  1.0000
  H   H8        1.0  0.33379000000000003  0.31284  0.18195  1.0000
  H   H9        1.0  0.5053000000000001  0.71034  0.8659600000000002  1.0000
  H   H10       1.0  0.53809  0.32346  0.82892  1.0000
  H   H11       1.0  0.75298  0.46841000000000005  0.9364800000000001  1.0000
  H   H12       1.0  0.81207  0.16557  0.9313400000000002  1.0000
  H   H13       1.0  0.4946600000000001  0.29049  0.36578  1.0000
  H   H14       1.0  0.45936  0.6772900000000001  0.3290500000000001  1.0000
  H   H15       1.0  0.24601000000000003  0.53091  0.43672  1.0000
  H   H16       1.0  0.18412  0.8339900000000002  0.4314300000000001  1.0000
  H   H17       1.0  0.29205000000000003  0.49448  0.63413  1.0000
  H   H18       1.0  0.67694  0.45990000000000003  0.6712900000000003  1.0000
  H   H19       1.0  0.53318  0.24522000000000005  0.56333  1.0000
  H   H20       1.0  0.83478  0.18650000000000005  0.56815  1.0000
  H   H21       1.0  0.7087400000000001  0.5043000000000001  0.13322000000000003  1.0000
  H   H22       1.0  0.32396  0.5394  0.17072000000000007  1.0000
  H   H23       1.0  0.4682300000000001  0.75441  0.06293  1.0000
  H   H24       1.0  0.16503000000000004  0.81318  0.06853000000000002  1.0000
  H   H25       1.0  0.99502  0.21017  0.3839500000000001  1.0000
  H   H26       1.0  0.9612100000000002  0.82373  0.42059000000000013  1.0000
  H   H27       1.0  0.74666  0.96842  0.3129600000000001  1.0000
  H   H28       1.0  0.6875400000000002  0.66527  0.31812  1.0000
  H   H29       1.0  0.00344  0.7903400000000002  0.8841700000000002  1.0000
  H   H30       1.0  0.040010000000000004  0.17663  0.9208500000000002  1.0000
  H   H31       1.0  0.25211  0.03017  0.8127  1.0000
  H   H32       1.0  0.31300000000000006  0.3341  0.8180100000000001  1.0000
  C   C1        1.0  0.09783  0.86815  0.6545400000000002  1.0000
  C   C2        1.0  0.11716000000000001  0.95424  0.62076  1.0000
  C   C3        1.0  0.018310000000000003  0.9884300000000003  0.59335  1.0000
  C   C4        1.0  0.90115  0.9354900000000002  0.5997700000000002  1.0000
  C   C5        1.0  0.8834  0.84782  0.63327  1.0000
  C   C6        1.0  0.9813800000000003  0.81388  0.6608600000000001  1.0000
  C   C7        1.0  0.20043000000000005  0.83247  0.68483  1.0000
  C   C8        1.0  0.03934  0.08227000000000001  0.55778  1.0000
  C   C9        1.0  0.7581400000000003  0.79338  0.64122  1.0000
  C   C10       1.0  0.9004800000000002  0.12997  0.15499000000000004  1.0000
  C   C11       1.0  0.8817600000000002  0.04419  0.12096000000000003  1.0000
  C   C12       1.0  0.9811200000000002  0.010880000000000003  0.0935  1.0000
  C   C13       1.0  0.09806000000000002  0.06422  0.09986  1.0000
  C   C14       1.0  0.11528000000000001  0.15186  0.13345000000000007  1.0000
  C   C15       1.0  0.016860000000000003  0.18480000000000002  0.16108000000000006  1.0000
  C   C16       1.0  0.79791  0.16599  0.18549000000000004  1.0000
  C   C17       1.0  0.9608300000000002  0.91703  0.05774  1.0000
  C   C18       1.0  0.24083  0.20634000000000002  0.14127000000000006  1.0000
  C   C19       1.0  0.63229  0.59942  0.9041300000000002  1.0000
  C   C20       1.0  0.54608  0.61891  0.8705900000000002  1.0000
  C   C21       1.0  0.5116000000000002  0.51948  0.84334  1.0000
  C   C22       1.0  0.56393  0.40184  0.84962  1.0000
  C   C23       1.0  0.65158  0.38404  0.8829400000000002  1.0000
  C   C24       1.0  0.68593  0.48245000000000005  0.9104000000000002  1.0000
  C   C25       1.0  0.66912  0.70228  0.9342600000000002  1.0000
  C   C26       1.0  0.41762  0.53946  0.80798  1.0000
  C   C27       1.0  0.7060900000000001  0.25843  0.89051  1.0000
  C   C28       1.0  0.36812  0.40087  0.40457  1.0000
  C   C29       1.0  0.4532900000000001  0.38176  0.3706100000000001  1.0000
  C   C30       1.0  0.48612  0.48144000000000003  0.3432  1.0000
  C   C31       1.0  0.43353  0.59903  0.3497600000000001  1.0000
  C   C32       1.0  0.34606  0.61635  0.38324  1.0000
  C   C33       1.0  0.31316  0.5174  0.4106700000000001  1.0000
  C   C34       1.0  0.33358  0.29789000000000004  0.4350400000000001  1.0000
  C   C35       1.0  0.57994  0.4607800000000001  0.3075700000000001  1.0000
  C   C36       1.0  0.29011  0.74146  0.39078  1.0000
  C   C37       1.0  0.40184000000000003  0.36632  0.5955800000000002  1.0000
  C   C38       1.0  0.38288  0.45281000000000005  0.62923  1.0000
  C   C39       1.0  0.4818200000000001  0.4863900000000001  0.65669  1.0000
  C   C40       1.0  0.5992200000000001  0.43401  0.65044  1.0000
  C   C41       1.0  0.61702  0.34668000000000004  0.61686  1.0000
  C   C42       1.0  0.51883  0.3128  0.5893200000000002  1.0000
  C   C43       1.0  0.29844000000000004  0.32983000000000007  0.56556  1.0000
  C   C44       1.0  0.46032000000000006  0.58015  0.6922200000000002  1.0000
  C   C45       1.0  0.74249  0.29262  0.6091900000000002  1.0000
  C   C46       1.0  0.59863  0.63269  0.09505000000000002  1.0000
  C   C47       1.0  0.61778  0.5457600000000001  0.12848000000000007  1.0000
  C   C48       1.0  0.5189400000000001  0.51146  0.15590000000000007  1.0000
  C   C49       1.0  0.40184000000000003  0.56479  0.14987000000000006  1.0000
  C   C50       1.0  0.38379  0.6527  0.11654  1.0000
  C   C51       1.0  0.48184  0.68687  0.08896000000000001  1.0000
  C   C52       1.0  0.70224  0.66959  0.06511000000000002  1.0000
  C   C53       1.0  0.53936  0.41694  0.19118  1.0000
  C   C54       1.0  0.25847  0.7074900000000001  0.10914  1.0000
  C   C55       1.0  0.8675  0.10001000000000002  0.3454300000000001  1.0000
  C   C56       1.0  0.95397  0.11891000000000003  0.3790300000000001  1.0000
  C   C57       1.0  0.98833  0.019310000000000008  0.40616000000000013  1.0000
  C   C58       1.0  0.93533  0.90187  0.3998500000000001  1.0000
  C   C59       1.0  0.8475100000000001  0.8841500000000001  0.3665000000000001  1.0000
  C   C60       1.0  0.81372  0.9828500000000001  0.33907  1.0000
  C   C61       1.0  0.8320600000000001  0.20424000000000003  0.3155300000000001  1.0000
  C   C62       1.0  0.08255000000000001  0.03992  0.4415000000000001  1.0000
  C   C63       1.0  0.7931700000000002  0.7585400000000001  0.3586400000000001  1.0000
  C   C64       1.0  0.13072  0.89981  0.8451600000000002  1.0000
  C   C65       1.0  0.04482  0.88131  0.87899  1.0000
  C   C66       1.0  0.011620000000000002  0.98108  0.90627  1.0000
  C   C67       1.0  0.06491  0.09838  0.8999400000000002  1.0000
  C   C68       1.0  0.15261  0.1153  0.86646  1.0000
  C   C69       1.0  0.18540000000000004  0.01639  0.83895  1.0000
  C   C70       1.0  0.16552  0.7965100000000002  0.8148700000000002  1.0000
  C   C71       1.0  0.91801  0.96058  0.9418500000000002  1.0000
  C   C72       1.0  0.20688000000000006  0.24100000000000002  0.85861  1.0000
  O   O1        1.0  0.17544  0.73996  0.7112600000000001  1.0000
  O   O2        1.0  0.3026  0.88705  0.6847900000000002  1.0000
  O   O3        1.0  0.15103  0.07940000000000001  0.54181  1.0000
  O   O4        1.0  0.9568600000000002  0.15579  0.54492  1.0000
  O   O5        1.0  0.66658  0.82542  0.61948  1.0000
  O   O6        1.0  0.75476  0.71148  0.6736800000000002  1.0000
  O   O7        1.0  0.8248100000000002  0.25518  0.21320000000000006  1.0000
  O   O8        1.0  0.6939700000000001  0.1148  0.18463000000000004  1.0000
  O   O9        1.0  0.8489300000000002  0.91949  0.04196  1.0000
  O   O10       1.0  0.04335  0.8438800000000002  0.04468000000000001  1.0000
  O   O11       1.0  0.3322  0.17455000000000004  0.11955000000000003  1.0000
  O   O12       1.0  0.24401  0.28846  0.17372  1.0000
  O   O13       1.0  0.75783  0.67503  0.96181  1.0000
  O   O14       1.0  0.61936  0.80685  0.9335500000000001  1.0000
  O   O15       1.0  0.42035000000000006  0.6506500000000001  0.79137  1.0000
  O   O16       1.0  0.34367000000000003  0.45665  0.7957000000000002  1.0000
  O   O17       1.0  0.67451  0.16749000000000003  0.8684700000000002  1.0000
  O   O18       1.0  0.7880100000000002  0.25537000000000004  0.9229700000000002  1.0000
  O   O19       1.0  0.24447  0.32444  0.4626300000000001  1.0000
  O   O20       1.0  0.3850400000000001  0.19418000000000005  0.4337300000000001  1.0000
  O   O21       1.0  0.5739300000000002  0.35003  0.29056  1.0000
  O   O22       1.0  0.65662  0.54123  0.2956000000000001  1.0000
  O   O23       1.0  0.32156000000000007  0.83276  0.36869000000000013  1.0000
  O   O24       1.0  0.20709  0.7440200000000001  0.4229000000000001  1.0000
  O   O25       1.0  0.32572000000000007  0.24207  0.53749  1.0000
  O   O26       1.0  0.19399  0.37969  0.5668300000000002  1.0000
  O   O27       1.0  0.3492  0.57472  0.70879  1.0000
  O   O28       1.0  0.5411600000000001  0.65622  0.70429  1.0000
  O   O29       1.0  0.8334  0.3260700000000001  0.6308200000000003  1.0000
  O   O30       1.0  0.7452100000000002  0.20844000000000004  0.5773100000000002  1.0000
  O   O31       1.0  0.67478  0.7576700000000001  0.03725000000000001  1.0000
  O   O32       1.0  0.80661  0.6201200000000001  0.0665  1.0000
  O   O33       1.0  0.65131  0.4184700000000001  0.20698000000000005  1.0000
  O   O34       1.0  0.45647  0.34413  0.20413000000000006  1.0000
  O   O35       1.0  0.16756  0.67412  0.13099000000000005  1.0000
  O   O36       1.0  0.25493  0.7915100000000003  0.07730000000000002  1.0000
  O   O37       1.0  0.7383700000000001  0.18006000000000003  0.28962  1.0000
  O   O38       1.0  0.8878100000000001  0.30600000000000005  0.31534  1.0000
  O   O39       1.0  0.08058000000000001  0.15134000000000003  0.45789  1.0000
  O   O40       1.0  0.15649  0.95704  0.45379000000000014  1.0000
  O   O41       1.0  0.82557  0.66708  0.38043  1.0000
  O   O42       1.0  0.71123  0.7553  0.32623000000000013  1.0000
  O   O43       1.0  0.25598  0.82172  0.7876600000000002  1.0000
  O   O44       1.0  0.11211000000000003  0.69358  0.8152400000000002  1.0000
  O   O45       1.0  0.9207400000000001  0.8490200000000001  0.95814  1.0000
  O   O46       1.0  0.84409  0.04328  0.9542100000000002  1.0000
  O   O47       1.0  0.17456000000000002  0.33236  0.88037  1.0000
  O   O48       1.0  0.2889  0.24408000000000002  0.82621  1.0000
