data_image0
_chemical_formula_structural       Zn8H48C48O64
_chemical_formula_sum              "Zn8 H48 C48 O64"
_cell_length_a       5.78928
_cell_length_b       20.55294
_cell_length_c       20.59032
_cell_angle_alpha    89.47747999999999
_cell_angle_beta     89.9229
_cell_angle_gamma    89.96818999999999

_space_group_name_H-M_alt    "P 1"
_space_group_IT_number       1

loop_
  _space_group_symop_operation_xyz
  'x, y, z'

loop_
  _atom_site_type_symbol
  _atom_site_label
  _atom_site_symmetry_multiplicity
  _atom_site_fract_x
  _atom_site_fract_y
  _atom_site_fract_z
  _atom_site_occupancy
  Zn  Zn1       1.0  0.24641999999999997  0.72213  0.27822  1.0000
  Zn  Zn2       1.0  0.7527599999999999  0.2783  0.72247  1.0000
  Zn  Zn3       1.0  0.00335  0.22512  0.22517999999999996  1.0000
  Zn  Zn4       1.0  0.50249  0.77487  0.77493  1.0000
  Zn  Zn5       1.0  0.7462099999999999  0.77133  0.22894000000000003  1.0000
  Zn  Zn6       1.0  0.25157999999999997  0.22888000000000003  0.77145  1.0000
  Zn  Zn7       1.0  0.50247  0.27421  0.27419  1.0000
  Zn  Zn8       1.0  0.0023  0.72572  0.72587  1.0000
  H   H1        1.0  0.47526999999999997  0.6078  0.26  1.0000
  H   H2        1.0  0.004709999999999995  0.50773  0.34332  1.0000
  H   H3        1.0  0.40474  0.4558  0.22543  1.0000
  H   H4        1.0  0.76625  0.39035  0.25113  1.0000
  H   H5        1.0  0.11504999999999997  0.54149  0.23535999999999999  1.0000
  H   H6        1.0  0.60139  0.45603999999999995  0.34188  1.0000
  H   H7        1.0  0.97541  0.39269999999999994  0.74003  1.0000
  H   H8        1.0  0.5044  0.49245  0.65665  1.0000
  H   H9        1.0  0.9040399999999997  0.54422  0.77474  1.0000
  H   H10       1.0  0.26574  0.60959  0.74896  1.0000
  H   H11       1.0  0.61326  0.45875  0.76466  1.0000
  H   H12       1.0  0.10011  0.54354  0.65819  1.0000
  H   H13       1.0  0.23193  0.24365000000000003  0.11093  1.0000
  H   H14       1.0  0.76106  0.16459  0.00957  1.0000
  H   H15       1.0  0.15418  0.27587  0.95276  1.0000
  H   H16       1.0  0.51603  0.25194  0.88731  1.0000
  H   H17       1.0  0.8710199999999998  0.27132  0.04559  1.0000
  H   H18       1.0  0.36141  0.16003  0.95048  1.0000
  H   H19       1.0  0.72839  0.75668  0.88936  1.0000
  H   H20       1.0  0.256  0.8385800000000001  0.9886000000000001  1.0000
  H   H21       1.0  0.6535199999999999  0.72521  0.04817  1.0000
  H   H22       1.0  0.01491  0.75108  0.11301999999999998  1.0000
  H   H23       1.0  0.36671999999999993  0.73086  0.9554099999999999  1.0000
  H   H24       1.0  0.85561  0.8420400000000001  0.0479  1.0000
  H   H25       1.0  0.27414  0.88937  0.75656  1.0000
  H   H26       1.0  0.7376299999999999  0.9912800000000002  0.83637  1.0000
  H   H27       1.0  0.34648  0.04849  0.72342  1.0000
  H   H28       1.0  0.9840099999999999  0.11284  0.75099  1.0000
  H   H29       1.0  0.63522  0.95516  0.72969  1.0000
  H   H30       1.0  0.14083  0.04362  0.8384  1.0000
  H   H31       1.0  0.7745699999999998  0.11059  0.24347  1.0000
  H   H32       1.0  0.22397  0.00833  0.16194  1.0000
  H   H33       1.0  0.8436999999999998  0.9531700000000001  0.27499  1.0000
  H   H34       1.0  0.4812  0.8874800000000002  0.25055  1.0000
  H   H35       1.0  0.13613  0.04474  0.26971  1.0000
  H   H36       1.0  0.63315  0.95027  0.15957  1.0000
  H   H37       1.0  0.5241399999999999  0.26024  0.60873  1.0000
  H   H38       1.0  0.0013600000000000005  0.34532  0.51071  1.0000
  H   H39       1.0  0.59608  0.22426  0.45498  1.0000
  H   H40       1.0  0.23522  0.25113  0.39002  1.0000
  H   H41       1.0  0.88255  0.23662  0.54179  1.0000
  H   H42       1.0  0.39732999999999996  0.34071  0.45661999999999997  1.0000
  H   H43       1.0  0.02218  0.74147  0.39253000000000005  1.0000
  H   H44       1.0  0.5079499999999999  0.65823  0.49111999999999995  1.0000
  H   H45       1.0  0.09680999999999997  0.7756400000000001  0.54509  1.0000
  H   H46       1.0  0.73579  0.74887  0.61012  1.0000
  H   H47       1.0  0.38143999999999995  0.76567  0.45828  1.0000
  H   H48       1.0  0.8978299999999998  0.65929  0.54365  1.0000
  C   C1        1.0  0.8906099999999998  0.62302  0.25326  1.0000
  C   C2        1.0  0.04375  0.5601  0.33864  1.0000
  C   C3        1.0  0.40199  0.41441  0.25988  1.0000
  C   C4        1.0  0.17313999999999993  0.37753  0.25155  1.0000
  C   C5        1.0  0.10733999999999998  0.58376  0.26755  1.0000
  C   C6        1.0  0.4238799999999999  0.43881  0.33039  1.0000
  C   C7        1.0  0.39070999999999995  0.37702  0.74669  1.0000
  C   C8        1.0  0.54336  0.44007  0.66138  1.0000
  C   C9        1.0  0.90123  0.58559  0.74029  1.0000
  C   C10       1.0  0.67235  0.62254  0.74863  1.0000
  C   C11       1.0  0.6068399999999999  0.41651000000000005  0.73243  1.0000
  C   C12       1.0  0.9230599999999999  0.56116  0.66978  1.0000
  C   C13       1.0  0.64586  0.25011  0.12622  1.0000
  C   C14       1.0  0.8055299999999999  0.16699  0.061590000000000006  1.0000
  C   C15       1.0  0.15321  0.24213  0.91141  1.0000
  C   C16       1.0  0.9241899999999997  0.25098  0.87461  1.0000
  C   C17       1.0  0.8637099999999998  0.23722000000000001  0.08696  1.0000
  C   C18       1.0  0.18002  0.17114  0.93601  1.0000
  C   C19       1.0  0.14285  0.75002  0.8738799999999999  1.0000
  C   C20       1.0  0.29830000000000007  0.83461  0.93653  1.0000
  C   C21       1.0  0.65129  0.75984  0.08877  1.0000
  C   C22       1.0  0.4218  0.75148  0.12561  1.0000
  C   C23       1.0  0.35955  0.76378  0.91312  1.0000
  C   C24       1.0  0.6746699999999999  0.8302200000000001  0.06233000000000001  1.0000
  C   C25       1.0  0.8590399999999999  0.87388  0.75  1.0000
  C   C26       1.0  0.70348  0.9386  0.8336  1.0000
  C   C27       1.0  0.34794  0.08831  0.75899  1.0000
  C   C28       1.0  0.57736  0.12535  0.75156  1.0000
  C   C29       1.0  0.6424699999999999  0.9134000000000001  0.76336  1.0000
  C   C30       1.0  0.32029  0.06061  0.82862  1.0000
  C   C31       1.0  0.35940999999999995  0.12613  0.24984  1.0000
  C   C32       1.0  0.20338  0.06148  0.16577  1.0000
  C   C33       1.0  0.84315  0.9117499999999998  0.24128  1.0000
  C   C34       1.0  0.07167  0.87468  0.24979000000000004  1.0000
  C   C35       1.0  0.1436  0.08662  0.23621000000000003  1.0000
  C   C36       1.0  0.8155999999999999  0.9368900000000001  0.17071  1.0000
  C   C37       1.0  0.10896  0.25333  0.62321  1.0000
  C   C38       1.0  0.9547899999999998  0.3397  0.56244  1.0000
  C   C39       1.0  0.59901  0.25942  0.41421  1.0000
  C   C40       1.0  0.8284199999999999  0.25144  0.37745  1.0000
  C   C41       1.0  0.8911199999999998  0.26811  0.58453  1.0000
  C   C42       1.0  0.5761  0.32951  0.44005  1.0000
  C   C43       1.0  0.6069  0.74789  0.37695  1.0000
  C   C44       1.0  0.45643  0.66216  0.43963  1.0000
  C   C45       1.0  0.09957999999999999  0.74052  0.5859  1.0000
  C   C46       1.0  0.32885  0.7485  0.62259  1.0000
  C   C47       1.0  0.39013999999999993  0.73329  0.4162199999999999  1.0000
  C   C48       1.0  0.07654  0.67042  0.56013  1.0000
  O   O1        1.0  0.9189699999999997  0.68487  0.24989  1.0000
  O   O2        1.0  0.7051599999999999  0.59118  0.25324  1.0000
  O   O3        1.0  0.30106  0.62468  0.2599  1.0000
  O   O4        1.0  0.02207  0.59766  0.38319  1.0000
  O   O5        1.0  0.27297  0.43489999999999995  0.37124  1.0000
  O   O6        1.0  0.59132  0.37227  0.25018  1.0000
  O   O7        1.0  0.18384999999999996  0.31509  0.25013  1.0000
  O   O8        1.0  0.9941399999999998  0.41185  0.25003  1.0000
  O   O9        1.0  0.42003  0.31522  0.74986  1.0000
  O   O10       1.0  0.20506  0.40886  0.7468  1.0000
  O   O11       1.0  0.80117  0.37591  0.74022  1.0000
  O   O12       1.0  0.52183  0.4024399999999999  0.61688  1.0000
  O   O13       1.0  0.7724299999999997  0.56535  0.62898  1.0000
  O   O14       1.0  0.09063999999999997  0.62767  0.74983  1.0000
  O   O15       1.0  0.6832  0.68498  0.74997  1.0000
  O   O16       1.0  0.4933599999999999  0.58825  0.75008  1.0000
  O   O17       1.0  0.6723599999999998  0.25307  0.18797  1.0000
  O   O18       1.0  0.4612  0.2501  0.09421  1.0000
  O   O19       1.0  0.05723999999999999  0.24338999999999997  0.12779  1.0000
  O   O20       1.0  0.7946499999999997  0.12019  0.09761  1.0000
  O   O21       1.0  0.030649999999999997  0.12981  0.9349999999999999  1.0000
  O   O22       1.0  0.34172  0.25322  0.86929  1.0000
  O   O23       1.0  0.93465  0.25296  0.81216  1.0000
  O   O24       1.0  0.74537  0.25284  0.90883  1.0000
  O   O25       1.0  0.17112  0.74679  0.81216  1.0000
  O   O26       1.0  0.9573299999999998  0.75001  0.90573  1.0000
  O   O27       1.0  0.5540199999999998  0.7567000000000002  0.87255  1.0000
  O   O28       1.0  0.2829  0.88006  0.89896  1.0000
  O   O29       1.0  0.52169  0.87057  0.06174999999999999  1.0000
  O   O30       1.0  0.84004  0.75004  0.13102  1.0000
  O   O31       1.0  0.43149999999999994  0.74978  0.18807  1.0000
  O   O32       1.0  0.24310999999999997  0.75011  0.09139  1.0000
  O   O33       1.0  0.83052  0.8120499999999999  0.74679  1.0000
  O   O34       1.0  0.04449999999999999  0.9056600000000001  0.74991  1.0000
  O   O35       1.0  0.4484899999999999  0.87262  0.75668  1.0000
  O   O36       1.0  0.72777  0.9021999999999999  0.8796600000000001  1.0000
  O   O37       1.0  0.46757  0.06178000000000001  0.87042  1.0000
  O   O38       1.0  0.15902  0.13088  0.74994  1.0000
  O   O39       1.0  0.56752  0.18789  0.74978  1.0000
  O   O40       1.0  0.7565299999999999  0.09113999999999998  0.75032  1.0000
  O   O41       1.0  0.33069999999999994  0.18796  0.25326  1.0000
  O   O42       1.0  0.5449299999999999  0.09434  0.25003  1.0000
  O   O43       1.0  0.94894  0.12732  0.24318  1.0000
  O   O44       1.0  0.23941999999999994  0.09816999999999998  0.1205  1.0000
  O   O45       1.0  0.9663099999999998  0.9377900000000001  0.12972  1.0000
  O   O46       1.0  0.6552499999999999  0.86967  0.25304  1.0000
  O   O47       1.0  0.05932  0.81218  0.25316  1.0000
  O   O48       1.0  0.25099  0.9087099999999999  0.25011  1.0000
  O   O49       1.0  0.08094  0.25006  0.68498  1.0000
  O   O50       1.0  0.29439  0.2533  0.59132  1.0000
  O   O51       1.0  0.6980899999999998  0.25999  0.62571  1.0000
  O   O52       1.0  0.9692999999999999  0.38367  0.6009  1.0000
  O   O53       1.0  0.72734  0.37038  0.4381  1.0000
  O   O54       1.0  0.41016999999999987  0.25024  0.37194  1.0000
  O   O55       1.0  0.8179999999999997  0.25006  0.31507  1.0000
  O   O56       1.0  0.007289999999999998  0.24996000000000002  0.41167000000000004  1.0000
  O   O57       1.0  0.5789599999999999  0.74979  0.31516  1.0000
  O   O58       1.0  0.79208  0.74947  0.4088  1.0000
  O   O59       1.0  0.19604999999999995  0.74029  0.37549  1.0000
  O   O60       1.0  0.46718  0.61696  0.40247  1.0000
  O   O61       1.0  0.22756999999999994  0.62947  0.56202  1.0000
  O   O62       1.0  0.9104899999999999  0.74978  0.62824  1.0000
  O   O63       1.0  0.31797  0.74994  0.68496  1.0000
  O   O64       1.0  0.50807  0.75002  0.58838  1.0000
