data_image0
_chemical_formula_structural       Ni4H44C78N8O16F12
_chemical_formula_sum              "Ni4 H44 C78 N8 O16 F12"
_cell_length_a       8.24106
_cell_length_b       11.21971
_cell_length_c       24.43307
_cell_angle_alpha    90.0
_cell_angle_beta     90.0
_cell_angle_gamma    90.0

_space_group_name_H-M_alt    "P 1"
_space_group_IT_number       1

loop_
  _space_group_symop_operation_xyz
  'x, y, z'

loop_
  _atom_site_type_symbol
  _atom_site_label
  _atom_site_symmetry_multiplicity
  _atom_site_fract_x
  _atom_site_fract_y
  _atom_site_fract_z
  _atom_site_occupancy
  Ni  Ni1       1.0  0.1083  0.52819  0.18658  1.0000
  Ni  Ni2       1.0  0.8917  0.52819  0.81342  1.0000
  Ni  Ni3       1.0  0.6083  0.47181  0.31342  1.0000
  Ni  Ni4       1.0  0.3917  0.47181  0.68658  1.0000
  H   H1        1.0  0.6086999999999998  0.25421  0.18531999999999998  1.0000
  H   H2        1.0  0.63389  0.12509  0.1045  1.0000
  H   H3        1.0  0.339  0.37345  0.01318  1.0000
  H   H4        1.0  0.29666  0.7240799999999998  0.23448  1.0000
  H   H5        1.0  0.30646  0.9464700000000001  0.23468  1.0000
  H   H6        1.0  0.8921199999999998  0.9410000000000001  0.12559  1.0000
  H   H7        1.0  0.91152  0.71997  0.12594  1.0000
  H   H8        1.0  0.18312999999999993  0.1125  0.26658  1.0000
  H   H9        1.0  0.1677  0.33434  0.26697  1.0000
  H   H10       1.0  0.99363  0.34335  0.10831  1.0000
  H   H11       1.0  0.9968  0.1218  0.10084  1.0000
  H   H12       1.0  0.39131  0.25421  0.81468  1.0000
  H   H13       1.0  0.3661199999999999  0.12509  0.8955  1.0000
  H   H14       1.0  0.661  0.37345  0.98682  1.0000
  H   H15       1.0  0.70334  0.7240799999999998  0.76552  1.0000
  H   H16       1.0  0.69355  0.9464700000000001  0.76532  1.0000
  H   H17       1.0  0.10788999999999997  0.9410000000000001  0.87441  1.0000
  H   H18       1.0  0.08847999999999998  0.71997  0.8740600000000001  1.0000
  H   H19       1.0  0.81687  0.1125  0.73342  1.0000
  H   H20       1.0  0.8323  0.33434  0.73303  1.0000
  H   H21       1.0  0.006369999999999998  0.34335  0.8916899999999999  1.0000
  H   H22       1.0  0.0031999999999999993  0.1218  0.89916  1.0000
  H   H23       1.0  0.1087  0.74579  0.31468  1.0000
  H   H24       1.0  0.13387999999999994  0.87491  0.3955  1.0000
  H   H25       1.0  0.83901  0.62655  0.48682  1.0000
  H   H26       1.0  0.7966599999999998  0.27592  0.26552  1.0000
  H   H27       1.0  0.8064599999999997  0.05353  0.26532  1.0000
  H   H28       1.0  0.3921199999999999  0.059000000000000004  0.37441  1.0000
  H   H29       1.0  0.4115199999999999  0.28003  0.37406  1.0000
  H   H30       1.0  0.68313  0.8875  0.23342  1.0000
  H   H31       1.0  0.6677  0.66566  0.23303  1.0000
  H   H32       1.0  0.49363  0.65665  0.39169  1.0000
  H   H33       1.0  0.4968  0.87821  0.39916  1.0000
  H   H34       1.0  0.89131  0.74579  0.68532  1.0000
  H   H35       1.0  0.86612  0.87491  0.6045  1.0000
  H   H36       1.0  0.16099999999999995  0.62655  0.51318  1.0000
  H   H37       1.0  0.20334  0.27592  0.7344799999999999  1.0000
  H   H38       1.0  0.19355  0.05353  0.73468  1.0000
  H   H39       1.0  0.6078899999999998  0.059000000000000004  0.62559  1.0000
  H   H40       1.0  0.58849  0.28003  0.62594  1.0000
  H   H41       1.0  0.3168699999999999  0.8875  0.76658  1.0000
  H   H42       1.0  0.3323  0.66566  0.76697  1.0000
  H   H43       1.0  0.50637  0.65665  0.60831  1.0000
  H   H44       1.0  0.50321  0.87821  0.60084  1.0000
  C   C1        1.0  0.37897  0.41802  0.09740999999999998  1.0000
  C   C2        1.0  0.45869  0.38448  0.14597  1.0000
  C   C3        1.0  0.54896  0.27849  0.14729  1.0000
  C   C4        1.0  0.56366  0.20644999999999997  0.10148  1.0000
  C   C5        1.0  0.48991  0.24118  0.05219  1.0000
  C   C6        1.0  0.39667  0.34533  0.05106  1.0000
  C   C7        1.0  0.2837  0.53292  0.09027  1.0000
  C   C8        1.0  0.4583  0.45748000000000005  0.19693  1.0000
  C   C9        1.0  0.34783  0.08368  0.00065  1.0000
  C   C10       1.0  0.20985  0.7768700000000001  0.21124999999999997  1.0000
  C   C11       1.0  0.21269  0.9007699999999998  0.21141  1.0000
  C   C12       1.0  0.09591  0.9645399999999998  0.18148  1.0000
  C   C13       1.0  0.98518  0.89784  0.15022  1.0000
  C   C14       1.0  0.9928099999999999  0.77374  0.15097  1.0000
  C   C15       1.0  0.08977  0.09636  0.18346  1.0000
  C   C16       1.0  0.13942  0.15907  0.23041999999999999  1.0000
  C   C17       1.0  0.131  0.28282  0.23129  1.0000
  C   C18       1.0  0.03033  0.2877  0.14262  1.0000
  C   C19       1.0  0.03358  0.16395  0.13897  1.0000
  C   C20       1.0  0.62104  0.41802  0.90259  1.0000
  C   C21       1.0  0.54131  0.38448  0.8540299999999998  1.0000
  C   C22       1.0  0.4510399999999999  0.27849  0.8527099999999999  1.0000
  C   C23       1.0  0.43634  0.20644999999999997  0.89852  1.0000
  C   C24       1.0  0.51009  0.24118  0.9478099999999999  1.0000
  C   C25       1.0  0.60333  0.34533  0.94894  1.0000
  C   C26       1.0  0.71631  0.53292  0.9097299999999999  1.0000
  C   C27       1.0  0.5417  0.45748000000000005  0.80307  1.0000
  C   C28       1.0  0.65217  0.08368  0.99935  1.0000
  C   C29       1.0  0.7901499999999998  0.7768700000000001  0.78875  1.0000
  C   C30       1.0  0.7873199999999998  0.9007699999999998  0.78859  1.0000
  C   C31       1.0  0.9041  0.9645399999999998  0.81852  1.0000
  C   C32       1.0  0.01482  0.89784  0.84978  1.0000
  C   C33       1.0  0.0072  0.77374  0.84903  1.0000
  C   C34       1.0  0.91023  0.09636  0.81654  1.0000
  C   C35       1.0  0.8605899999999997  0.15907  0.7695800000000002  1.0000
  C   C36       1.0  0.869  0.28282  0.76871  1.0000
  C   C37       1.0  0.9696699999999998  0.2877  0.8573799999999999  1.0000
  C   C38       1.0  0.96642  0.16395  0.86103  1.0000
  C   C39       1.0  0.8789699999999998  0.58198  0.40259  1.0000
  C   C40       1.0  0.95869  0.61552  0.35403  1.0000
  C   C41       1.0  0.04896  0.72151  0.35270999999999997  1.0000
  C   C42       1.0  0.06366  0.79355  0.39852000000000004  1.0000
  C   C43       1.0  0.98991  0.75882  0.44781  1.0000
  C   C44       1.0  0.89667  0.65467  0.44894  1.0000
  C   C45       1.0  0.7837  0.46708000000000005  0.40973  1.0000
  C   C46       1.0  0.9583099999999998  0.54252  0.30307  1.0000
  C   C47       1.0  0.8478299999999998  0.9163200000000001  0.49934999999999996  1.0000
  C   C48       1.0  0.70985  0.22312999999999997  0.28875  1.0000
  C   C49       1.0  0.7126899999999999  0.09922999999999998  0.28859  1.0000
  C   C50       1.0  0.5959099999999998  0.03546  0.31852  1.0000
  C   C51       1.0  0.4851799999999999  0.10216  0.34978  1.0000
  C   C52       1.0  0.49281  0.22626  0.34903  1.0000
  C   C53       1.0  0.5897699999999998  0.9036399999999999  0.31654  1.0000
  C   C54       1.0  0.6394199999999998  0.84093  0.26958  1.0000
  C   C55       1.0  0.631  0.7171800000000002  0.26871  1.0000
  C   C56       1.0  0.53033  0.7123  0.35738  1.0000
  C   C57       1.0  0.53358  0.83605  0.36103  1.0000
  C   C58       1.0  0.12103  0.58198  0.59741  1.0000
  C   C59       1.0  0.04131  0.61552  0.64597  1.0000
  C   C60       1.0  0.9510399999999998  0.72151  0.64729  1.0000
  C   C61       1.0  0.93634  0.79355  0.60148  1.0000
  C   C62       1.0  0.01009  0.75882  0.55219  1.0000
  C   C63       1.0  0.10333  0.65467  0.55106  1.0000
  C   C64       1.0  0.21630999999999995  0.46708000000000005  0.59026  1.0000
  C   C65       1.0  0.0417  0.54252  0.69693  1.0000
  C   C66       1.0  0.15217  0.9163200000000001  0.50065  1.0000
  C   C67       1.0  0.29015  0.22312999999999997  0.71125  1.0000
  C   C68       1.0  0.28732  0.09922999999999998  0.71141  1.0000
  C   C69       1.0  0.4040899999999999  0.03546  0.68148  1.0000
  C   C70       1.0  0.5148199999999998  0.10216  0.65022  1.0000
  C   C71       1.0  0.5072  0.22626  0.65097  1.0000
  C   C72       1.0  0.4102299999999999  0.9036399999999999  0.6834599999999998  1.0000
  C   C73       1.0  0.3605899999999999  0.84093  0.7304199999999998  1.0000
  C   C74       1.0  0.369  0.7171800000000002  0.73129  1.0000
  C   C75       1.0  0.46966999999999987  0.7123  0.64262  1.0000
  C   C76       1.0  0.46642  0.83605  0.63897  1.0000
  C   C77       1.0  0.5  0.16496  0.0  1.0000
  C   C78       1.0  0.0  0.8350399999999999  0.5  1.0000
  N   N1        1.0  0.10011999999999997  0.71403  0.18228  1.0000
  N   N2        1.0  0.07788  0.34669  0.18806  1.0000
  N   N3        1.0  0.89989  0.71403  0.81772  1.0000
  N   N4        1.0  0.92212  0.34669  0.81194  1.0000
  N   N5        1.0  0.6001199999999998  0.28597  0.31772  1.0000
  N   N6        1.0  0.5778799999999997  0.65331  0.31194  1.0000
  N   N7        1.0  0.39989  0.28597  0.68228  1.0000
  N   N8        1.0  0.4221199999999999  0.65331  0.68806  1.0000
  O   O1        1.0  0.35455  0.61888  0.06992  1.0000
  O   O2        1.0  0.12962999999999997  0.52756  0.1043  1.0000
  O   O3        1.0  0.34308  0.52951  0.2085  1.0000
  O   O4        1.0  0.5804799999999998  0.44376  0.22815  1.0000
  O   O5        1.0  0.6454499999999997  0.61888  0.93008  1.0000
  O   O6        1.0  0.8703699999999998  0.52756  0.8957  1.0000
  O   O7        1.0  0.65692  0.52951  0.7915  1.0000
  O   O8        1.0  0.41951999999999995  0.44376  0.7718499999999999  1.0000
  O   O9        1.0  0.85455  0.38112  0.43007999999999996  1.0000
  O   O10       1.0  0.62963  0.47245  0.3957  1.0000
  O   O11       1.0  0.84308  0.47049  0.2915  1.0000
  O   O12       1.0  0.08047999999999997  0.55624  0.27185  1.0000
  O   O13       1.0  0.14545  0.38112  0.56992  1.0000
  O   O14       1.0  0.37037  0.47245  0.6043  1.0000
  O   O15       1.0  0.15692  0.47049  0.7085  1.0000
  O   O16       1.0  0.91952  0.55624  0.7281500000000001  1.0000
  F   F1        1.0  0.32466  0.030730000000000004  0.05005  1.0000
  F   F2        1.0  0.21296999999999994  0.15042  0.9889799999999999  1.0000
  F   F3        1.0  0.3558  0.99328  0.96348  1.0000
  F   F4        1.0  0.67534  0.030730000000000004  0.9499499999999999  1.0000
  F   F5        1.0  0.78704  0.15042  0.011019999999999999  1.0000
  F   F6        1.0  0.6442  0.99328  0.03652  1.0000
  F   F7        1.0  0.82466  0.9692699999999999  0.44994999999999996  1.0000
  F   F8        1.0  0.7129699999999998  0.8495800000000001  0.51102  1.0000
  F   F9        1.0  0.8558099999999997  0.006719999999999999  0.53652  1.0000
  F   F10       1.0  0.17534  0.9692699999999999  0.55005  1.0000
  F   F11       1.0  0.28704  0.8495800000000001  0.48897999999999997  1.0000
  F   F12       1.0  0.14419999999999994  0.006719999999999999  0.46348  1.0000
