data_image0
_chemical_formula_structural       Cu8H80C88N24O22
_chemical_formula_sum              "Cu8 H80 C88 N24 O22"
_cell_length_a       15.74573
_cell_length_b       17.142430000000004
_cell_length_c       17.16628
_cell_angle_alpha    89.9825
_cell_angle_beta     90.03346
_cell_angle_gamma    89.77542

_symmetry_space_group_name_H-M    'P 1'
_symmetry_Int_Tables_number       1

loop_
  _symmetry_equiv_pos_as_xyz
  'x,y,z'

loop_
  _atom_site_type_symbol
  _atom_site_label
  _atom_site_symmetry_multiplicity
  _atom_site_fract_x
  _atom_site_fract_y
  _atom_site_fract_z
  _atom_site_occupancy
  Cu  Cu1       1.0  0.41603  0.43078  0.54757  1.0000
  Cu  Cu2       1.0  0.41498  0.56779  0.44964  1.0000
  Cu  Cu3       1.0  0.5879099999999999  0.5453  0.56908  1.0000
  Cu  Cu4       1.0  0.58455  0.4545699999999999  0.429  1.0000
  Cu  Cu5       1.0  0.08485  0.06905  0.04778  1.0000
  Cu  Cu6       1.0  0.08574  0.9326799999999997  0.94879  1.0000
  Cu  Cu7       1.0  0.91229  0.95419  0.06835  1.0000
  Cu  Cu8       1.0  0.91647  0.04528  0.92908  1.0000
  H   H1        1.0  0.19933999999999993  0.18626  0.52829  1.0000
  H   H2        1.0  0.10978999999999997  0.10209  0.61655  1.0000
  H   H3        1.0  0.20153  0.22865  0.8156399999999998  1.0000
  H   H4        1.0  0.28518  0.31563  0.7262699999999997  1.0000
  H   H5        1.0  0.24893999999999994  0.03044  0.74614  1.0000
  H   H6        1.0  0.17956999999999995  0.9631499999999998  0.7002799999999998  1.0000
  H   H7        1.0  0.213  0.9458899999999999  0.79863  1.0000
  H   H8        1.0  0.9415  0.20802  0.85999  1.0000
  H   H9        1.0  0.95882  0.22097  0.75769  1.0000
  H   H10       1.0  0.03611  0.25401  0.8258599999999999  1.0000
  H   H11       1.0  0.19863  0.81438  0.47063999999999995  1.0000
  H   H12       1.0  0.10875999999999997  0.8993799999999997  0.38254  1.0000
  H   H13       1.0  0.20061  0.77272  0.18324  1.0000
  H   H14       1.0  0.28439  0.6849  0.27229  1.0000
  H   H15       1.0  0.24819  0.9697199999999999  0.25218  1.0000
  H   H16       1.0  0.17824999999999994  0.03703  0.29771  1.0000
  H   H17       1.0  0.21234999999999996  0.05451  0.19971  1.0000
  H   H18       1.0  0.93931  0.79411  0.14113  1.0000
  H   H19       1.0  0.9591699999999997  0.78086  0.24293999999999996  1.0000
  H   H20       1.0  0.03489  0.74734  0.17341  1.0000
  H   H21       1.0  0.80013  0.52736  0.81418  1.0000
  H   H22       1.0  0.8899399999999997  0.61534  0.89906  1.0000
  H   H23       1.0  0.79833  0.81503  0.77198  1.0000
  H   H24       1.0  0.71513  0.7258  0.68442  1.0000
  H   H25       1.0  0.7530999999999998  0.74577  0.97042  1.0000
  H   H26       1.0  0.82218  0.69921  0.03773999999999999  1.0000
  H   H27       1.0  0.78982  0.7982199999999999  0.054429999999999985  1.0000
  H   H28       1.0  0.05922  0.85772  0.7919399999999998  1.0000
  H   H29       1.0  0.0388  0.75637  0.7773399999999998  1.0000
  H   H30       1.0  0.9629599999999998  0.8271  0.74585  1.0000
  H   H31       1.0  0.79854  0.47223  0.18838  1.0000
  H   H32       1.0  0.88822  0.38418  0.10362  1.0000
  H   H33       1.0  0.79794  0.18445  0.23012999999999995  1.0000
  H   H34       1.0  0.7139199999999999  0.2732  0.31735  1.0000
  H   H35       1.0  0.75194  0.25688  0.0307  1.0000
  H   H36       1.0  0.8197199999999998  0.3030399999999999  0.96228  1.0000
  H   H37       1.0  0.78817  0.20393  0.9470199999999999  1.0000
  H   H38       1.0  0.05859  0.14027  0.20713  1.0000
  H   H39       1.0  0.0387  0.24161  0.22324  1.0000
  H   H40       1.0  0.96249  0.17128  0.25356999999999996  1.0000
  H   H41       1.0  0.29915  0.31287  0.02924  1.0000
  H   H42       1.0  0.39001  0.3972099999999999  0.1163  1.0000
  H   H43       1.0  0.29961  0.27168  0.3168  1.0000
  H   H44       1.0  0.21491  0.18463  0.22834  1.0000
  H   H45       1.0  0.25155  0.4696  0.2466  1.0000
  H   H46       1.0  0.32055  0.53703  0.20063  1.0000
  H   H47       1.0  0.28747  0.55413  0.2990599999999999  1.0000
  H   H48       1.0  0.5594999999999999  0.29217  0.3597499999999999  1.0000
  H   H49       1.0  0.54177  0.27908  0.25754  1.0000
  H   H50       1.0  0.4646299999999999  0.24634999999999999  0.32598  1.0000
  H   H51       1.0  0.29973  0.68651  0.9698199999999999  1.0000
  H   H52       1.0  0.3908  0.6012899999999999  0.8831599999999997  1.0000
  H   H53       1.0  0.30046  0.72669  0.6823  1.0000
  H   H54       1.0  0.21548  0.81469  0.76992  1.0000
  H   H55       1.0  0.25184  0.53022  0.75219  1.0000
  H   H56       1.0  0.32145  0.46276999999999996  0.79788  1.0000
  H   H57       1.0  0.28732  0.44535  0.69976  1.0000
  H   H58       1.0  0.56055  0.7057  0.64125  1.0000
  H   H59       1.0  0.54073  0.7188399999999999  0.74307  1.0000
  H   H60       1.0  0.46478999999999987  0.75211  0.6735399999999998  1.0000
  H   H61       1.0  0.70022  0.9725099999999999  0.3149  1.0000
  H   H62       1.0  0.6101  0.88431  0.39902  1.0000
  H   H63       1.0  0.70126  0.68488  0.27218  1.0000
  H   H64       1.0  0.7848499999999998  0.77409  0.18471999999999994  1.0000
  H   H65       1.0  0.7469499999999998  0.75414  0.47041000000000005  1.0000
  H   H66       1.0  0.6781  0.80093  0.53771  1.0000
  H   H67       1.0  0.7100599999999998  0.7017  0.5543899999999999  1.0000
  H   H68       1.0  0.44034  0.6421999999999999  0.29226  1.0000
  H   H69       1.0  0.4605899999999999  0.7435499999999998  0.27735  1.0000
  H   H70       1.0  0.53648  0.67284  0.24618  1.0000
  H   H71       1.0  0.70263  0.02749  0.68761  1.0000
  H   H72       1.0  0.61208  0.11539999999999997  0.6036  1.0000
  H   H73       1.0  0.70219  0.31515  0.7298099999999997  1.0000
  H   H74       1.0  0.78723  0.22664  0.81658  1.0000
  H   H75       1.0  0.7476599999999998  0.24306  0.5312299999999998  1.0000
  H   H76       1.0  0.68021  0.19679  0.46247  1.0000
  H   H77       1.0  0.7116199999999998  0.29613  0.4474499999999999  1.0000
  H   H78       1.0  0.44129  0.35958  0.70678  1.0000
  H   H79       1.0  0.46088  0.25829  0.72343  1.0000
  H   H80       1.0  0.53729  0.3285699999999999  0.7535  1.0000
  C   C1        1.0  0.30023  0.30674  0.56829  1.0000
  C   C2        1.0  0.2465  0.25653  0.6219099999999999  1.0000
  C   C3        1.0  0.1978  0.19567  0.5909699999999998  1.0000
  C   C4        1.0  0.14894  0.14875  0.6397899999999997  1.0000
  C   C5        1.0  0.15051999999999993  0.16179  0.7201999999999997  1.0000
  C   C6        1.0  0.19978  0.22110999999999995  0.75262  1.0000
  C   C7        1.0  0.24667000000000003  0.26874  0.7028  1.0000
  C   C8        1.0  0.19532  0.9910599999999999  0.75612  1.0000
  C   C9        1.0  0.12151999999999998  0.03475  0.78748  1.0000
  C   C10       1.0  0.03106  0.13073  0.81268  1.0000
  C   C11       1.0  0.9893999999999997  0.20821  0.81385  1.0000
  C   C12       1.0  0.29959  0.69351  0.4303299999999999  1.0000
  C   C13       1.0  0.24590999999999993  0.74418  0.37682  1.0000
  C   C14       1.0  0.19716  0.80527  0.40791  1.0000
  C   C15       1.0  0.148  0.85254  0.35922  1.0000
  C   C16       1.0  0.14946  0.83957  0.27877  1.0000
  C   C17       1.0  0.19893  0.78008  0.24629  1.0000
  C   C18       1.0  0.24602999999999994  0.73208  0.29593  1.0000
  C   C19       1.0  0.19442  0.00927  0.24183999999999997  1.0000
  C   C20       1.0  0.12075  0.9660799999999999  0.21001999999999996  1.0000
  C   C21       1.0  0.02989  0.87081  0.18621  1.0000
  C   C22       1.0  0.98841  0.79349  0.18621999999999994  1.0000
  C   C23       1.0  0.7004  0.56769  0.6935  1.0000
  C   C24       1.0  0.7533099999999998  0.62132  0.74412  1.0000
  C   C25       1.0  0.80181  0.59017  0.80518  1.0000
  C   C26       1.0  0.85101  0.63874  0.8521  1.0000
  C   C27       1.0  0.84982  0.71929  0.8387499999999999  1.0000
  C   C28       1.0  0.80031  0.7519  0.77941  1.0000
  C   C29       1.0  0.75325  0.70228  0.73174  1.0000
  C   C30       1.0  0.80712  0.75525  0.00962  1.0000
  C   C31       1.0  0.88099  0.78595  0.96577  1.0000
  C   C32       1.0  0.96938  0.81164  0.86911  1.0000
  C   C33       1.0  0.009749999999999997  0.81309  0.79123  1.0000
  C   C34       1.0  0.69827  0.43274  0.30721  1.0000
  C   C35       1.0  0.75199  0.3781699999999999  0.25823  1.0000
  C   C36       1.0  0.8004099999999997  0.4094  0.19738  1.0000
  C   C37       1.0  0.8492399999999998  0.36064  0.15020999999999995  1.0000
  C   C38       1.0  0.84819  0.28001  0.16294  1.0000
  C   C39       1.0  0.79928  0.24753  0.22252  1.0000
  C   C40       1.0  0.75215  0.29719  0.2705  1.0000
  C   C41       1.0  0.80568  0.24732000000000004  0.9911699999999999  1.0000
  C   C42       1.0  0.88044  0.21683  0.03436  1.0000
  C   C43       1.0  0.9687899999999998  0.18849999999999995  0.13063  1.0000
  C   C44       1.0  0.009319999999999997  0.18543  0.20846  1.0000
  C   C45       1.0  0.19871999999999995  0.19303999999999993  0.07072  1.0000
  C   C46       1.0  0.25278  0.24335999999999997  0.12363999999999999  1.0000
  C   C47       1.0  0.30129  0.30392  0.09197  1.0000
  C   C48       1.0  0.35079  0.35092  0.14017  1.0000
  C   C49       1.0  0.3498199999999999  0.33826  0.22068999999999994  1.0000
  C   C50       1.0  0.30074  0.27914  0.25376  1.0000
  C   C51       1.0  0.25328  0.23140999999999995  0.20451  1.0000
  C   C52       1.0  0.3051599999999999  0.50904  0.2565099999999999  1.0000
  C   C53       1.0  0.37928  0.46545  0.28758  1.0000
  C   C54       1.0  0.4699199999999999  0.36954  0.31254  1.0000
  C   C55       1.0  0.51142  0.29201  0.31373  1.0000
  C   C56       1.0  0.19914  0.80654  0.9285  1.0000
  C   C57       1.0  0.25307  0.75589  0.87529  1.0000
  C   C58       1.0  0.30181999999999987  0.69514  0.90705  1.0000
  C   C59       1.0  0.35142  0.64766  0.8590699999999999  1.0000
  C   C60       1.0  0.35043  0.66013  0.77855  1.0000
  C   C61       1.0  0.30125  0.7195  0.74538  1.0000
  C   C62       1.0  0.25368  0.76774  0.79433  1.0000
  C   C63       1.0  0.3054699999999999  0.49049000000000004  0.74191  1.0000
  C   C64       1.0  0.3793  0.53351  0.7101699999999997  1.0000
  C   C65       1.0  0.47017  0.62876  0.68637  1.0000
  C   C66       1.0  0.5114999999999997  0.70614  0.68634  1.0000
  C   C67       1.0  0.8002  0.93192  0.19328  1.0000
  C   C68       1.0  0.74684  0.87866  0.24412  1.0000
  C   C69       1.0  0.69844  0.9098  0.30529  1.0000
  C   C70       1.0  0.64927  0.86115  0.35216  1.0000
  C   C71       1.0  0.65035  0.78064  0.33885  1.0000
  C   C72       1.0  0.69968  0.74801  0.27954999999999997  1.0000
  C   C73       1.0  0.74664  0.79768  0.23185  1.0000
  C   C74       1.0  0.69297  0.74486  0.50965  1.0000
  C   C75       1.0  0.61896  0.7144499999999999  0.46588  1.0000
  C   C76       1.0  0.53031  0.6887799999999998  0.36933  1.0000
  C   C77       1.0  0.4897299999999999  0.68693  0.2914899999999999  1.0000
  C   C78       1.0  0.8031899999999997  0.0673  0.80701  1.0000
  C   C79       1.0  0.74915  0.12153  0.75777  1.0000
  C   C80       1.0  0.70059  0.09023  0.6969999999999997  1.0000
  C   C81       1.0  0.65122  0.13889  0.65011  1.0000
  C   C82       1.0  0.65186  0.21947  0.6629699999999997  1.0000
  C   C83       1.0  0.70106  0.25207  0.72226  1.0000
  C   C84       1.0  0.7487199999999998  0.20253  0.7699799999999998  1.0000
  C   C85       1.0  0.69414  0.25249  0.49141000000000007  1.0000
  C   C86       1.0  0.6193199999999998  0.28268  0.53451  1.0000
  C   C87       1.0  0.531  0.3108999999999999  0.6306499999999998  1.0000
  C   C88       1.0  0.49044  0.31431  0.70841  1.0000
  N   N1        1.0  0.06428  0.00796  0.83689  1.0000
  N   N2        1.0  0.00804  0.06778999999999999  0.8519  1.0000
  N   N3        1.0  0.10254  0.11162  0.7704  1.0000
  N   N4        1.0  0.06350999999999998  0.99271  0.16013  1.0000
  N   N5        1.0  0.006770000000000001  0.93318  0.14593  1.0000
  N   N6        1.0  0.10144  0.88974  0.22828999999999994  1.0000
  N   N7        1.0  0.93894  0.83462  0.9923999999999998  1.0000
  N   N8        1.0  0.9940399999999998  0.85005  0.93203  1.0000
  N   N9        1.0  0.8981999999999998  0.76945  0.88849  1.0000
  N   N10       1.0  0.9396799999999997  0.17013  0.0061899999999999985  1.0000
  N   N11       1.0  0.99458  0.15277  0.06639  1.0000
  N   N12       1.0  0.8966399999999998  0.23047  0.11242  1.0000
  N   N13       1.0  0.4368199999999999  0.49239  0.33666  1.0000
  N   N14       1.0  0.49319  0.43257  0.35155  1.0000
  N   N15       1.0  0.3982  0.38857  0.2704899999999999  1.0000
  N   N16       1.0  0.4363599999999999  0.50693  0.6601799999999998  1.0000
  N   N17       1.0  0.4931399999999999  0.56645  0.64599  1.0000
  N   N18       1.0  0.3987599999999999  0.60977  0.7285699999999998  1.0000
  N   N19       1.0  0.5608299999999998  0.66616  0.49277  1.0000
  N   N20       1.0  0.5056499999999998  0.65074  0.43247  1.0000
  N   N21       1.0  0.60177  0.73069  0.3885299999999999  1.0000
  N   N22       1.0  0.5602  0.32942  0.5062699999999998  1.0000
  N   N23       1.0  0.50538  0.34675  0.56639  1.0000
  N   N24       1.0  0.6031  0.2689  0.61253  1.0000
  O   O1        1.0  0.32728  0.36998  0.60195  1.0000
  O   O2        1.0  0.3155  0.28501  0.50056  1.0000
  O   O3        1.0  0.3258199999999999  0.62965  0.39683  1.0000
  O   O4        1.0  0.31546  0.71519  0.4978699999999999  1.0000
  O   O5        1.0  0.67492  0.60116  0.62951  1.0000
  O   O6        1.0  0.68457  0.50003  0.71534  1.0000
  O   O7        1.0  0.66979  0.39905999999999997  0.37038  1.0000
  O   O8        1.0  0.68398  0.50036  0.28526  1.0000
  O   O9        1.0  0.1726  0.1295  0.1045  1.0000
  O   O10       1.0  0.18223  0.21497  0.00334  1.0000
  O   O11       1.0  0.17323  0.87042  0.8945699999999998  1.0000
  O   O12       1.0  0.18259  0.78499  0.9958399999999998  1.0000
  O   O13       1.0  0.82491  0.89862  0.129  1.0000
  O   O14       1.0  0.81736  0.9992300000000001  0.21534  1.0000
  O   O15       1.0  0.83144  0.10114  0.87017  1.0000
  O   O16       1.0  0.81813  0.99972  0.7852199999999999  1.0000
  O   O17       1.0  0.50234  0.49848  0.49603  1.0000
  O   O18       1.0  0.99869  0.00129  0.9961100000000002  1.0000
  O   O19       1.0  0.3379399999999999  0.50035  0.50035  1.0000
  O   O20       1.0  0.6607  0.49535999999999997  0.49648  1.0000
  O   O21       1.0  0.16321999999999995  0.99967  0.00011999999999999999  1.0000
  O   O22       1.0  0.83984  0.004689999999999999  0.9960199999999999  1.0000
