data_image0
_chemical_formula_structural       Mn6H36C76N4O40
_chemical_formula_sum              "Mn6 H36 C76 N4 O40"
_cell_length_a       13.35227
_cell_length_b       12.82023
_cell_length_c       15.13464
_cell_angle_alpha    105.67039
_cell_angle_beta     116.02785
_cell_angle_gamma    90.18416

_space_group_name_H-M_alt    "P 1"
_space_group_IT_number       1

loop_
  _space_group_symop_operation_xyz
  'x, y, z'

loop_
  _atom_site_type_symbol
  _atom_site_label
  _atom_site_symmetry_multiplicity
  _atom_site_fract_x
  _atom_site_fract_y
  _atom_site_fract_z
  _atom_site_occupancy
  Mn  Mn1       1.0  0.2214  0.01944  0.23703  1.0000
  Mn  Mn2       1.0  0.9859399999999998  0.4772  0.76313  1.0000
  Mn  Mn3       1.0  0.77851  0.98099  0.76316  1.0000
  Mn  Mn4       1.0  0.014250000000000007  0.5226100000000001  0.23695000000000002  1.0000
  Mn  Mn5       1.0  0.5  0.0004100000000000289  0.50001  1.0000
  Mn  Mn6       1.0  1.0000000000050365e-05  0.50112  0.4999900000000001  1.0000
  H   H1        1.0  0.21670999999999999  0.71828  0.09426  1.0000
  H   H2        1.0  0.19293  0.41451  0.83368  1.0000
  H   H3        1.0  0.42193  0.47036  0.052610000000000004  1.0000
  H   H4        1.0  0.55422  0.73997  0.33393  1.0000
  H   H5        1.0  0.7046  0.45344  0.22096000000000002  1.0000
  H   H6        1.0  0.58901  0.45406  0.10040000000000003  1.0000
  H   H7        1.0  0.72497  0.4828000000000002  0.36953000000000014  1.0000
  H   H8        1.0  0.65691  0.27866  0.52514  1.0000
  H   H9        1.0  0.42869  0.24279000000000003  0.20561000000000001  1.0000
  H   H10       1.0  0.12387000000000012  0.7791900000000003  0.9079200000000002  1.0000
  H   H11       1.0  0.35919  0.08602000000000001  0.16882  1.0000
  H   H12       1.0  0.37001  0.02939999999999998  0.94925  1.0000
  H   H13       1.0  0.22124000000000002  0.76021  0.6677800000000003  1.0000
  H   H14       1.0  0.4824400000000001  0.04927000000000005  0.7794900000000002  1.0000
  H   H15       1.0  0.48823  0.04827  0.90039  1.0000
  H   H16       1.0  0.35236  0.01482000000000001  0.63085  1.0000
  H   H17       1.0  0.13199  0.21878000000000003  0.47416  1.0000
  H   H18       1.0  0.2232899999999999  0.25803  0.79466  1.0000
  H   H19       1.0  0.7832400000000002  0.2819300000000001  0.9063100000000002  1.0000
  H   H20       1.0  0.8072  0.5859  0.16663000000000006  1.0000
  H   H21       1.0  0.57821  0.53001  0.94775  1.0000
  H   H22       1.0  0.44562  0.26003  0.66657  1.0000
  H   H23       1.0  0.29564  0.54741  0.77902  1.0000
  H   H24       1.0  0.41092999999999996  0.5467000000000001  0.8995000000000001  1.0000
  H   H25       1.0  0.27579000000000015  0.5176100000000002  0.6304200000000002  1.0000
  H   H26       1.0  0.3443  0.7219100000000003  0.4751000000000001  1.0000
  H   H27       1.0  0.57152  0.75832  0.79505  1.0000
  H   H28       1.0  0.8769099999999999  0.22159  0.09320000000000003  1.0000
  H   H29       1.0  0.64098  0.91688  0.83225  1.0000
  H   H30       1.0  0.63059  0.97186  0.05173  1.0000
  H   H31       1.0  0.7793  0.24081  0.33347  1.0000
  H   H32       1.0  0.51642  0.95297  0.22069000000000003  1.0000
  H   H33       1.0  0.51132  0.9539400000000001  0.10003000000000002  1.0000
  H   H34       1.0  0.64628  0.9846700000000003  0.36897000000000013  1.0000
  H   H35       1.0  0.8683600000000001  0.7818400000000002  0.52553  1.0000
  H   H36       1.0  0.7745699999999998  0.74199  0.20419  1.0000
  C   C1        1.0  0.36952  0.84452  0.28434  1.0000
  C   C2        1.0  0.38359999999999994  0.73918  0.22104  1.0000
  C   C3        1.0  0.2956  0.68517  0.12335000000000002  1.0000
  C   C4        1.0  0.31194  0.5890000000000001  0.06372  1.0000
  C   C5        1.0  0.22308000000000014  0.53191  0.9588100000000003  1.0000
  C   C6        1.0  0.41417  0.54663  0.10039000000000001  1.0000
  C   C7        1.0  0.50174  0.60215  0.19693  1.0000
  C   C8        1.0  0.48633999999999994  0.6977  0.25813  1.0000
  C   C9        1.0  0.61541  0.4624000000000001  0.18177  1.0000
  C   C10       1.0  0.575  0.3619600000000001  0.27592  1.0000
  C   C11       1.0  0.67048  0.41743  0.36592  1.0000
  C   C12       1.0  0.7004799999999999  0.38669  0.4554200000000001  1.0000
  C   C13       1.0  0.8105500000000001  0.4410700000000002  0.5454300000000001  1.0000
  C   C14       1.0  0.63284  0.30381  0.45629  1.0000
  C   C15       1.0  0.5336  0.25214  0.36622000000000005  1.0000
  C   C16       1.0  0.4612200000000001  0.16342000000000004  0.3663400000000001  1.0000
  C   C17       1.0  0.50461  0.28167  0.2763  1.0000
  C   C18       1.0  0.08476000000000002  0.16044  0.09611000000000001  1.0000
  C   C19       1.0  0.05282999999999999  0.21944000000000002  0.03126000000000001  1.0000
  C   C20       1.0  0.08672999999999993  0.6548400000000002  0.71687  1.0000
  C   C21       1.0  0.16442999999999988  0.75996  0.78136  1.0000
  C   C22       1.0  0.17396000000000003  0.81329  0.8792900000000001  1.0000
  C   C23       1.0  0.24953  0.91003  0.93903  1.0000
  C   C24       1.0  0.2655  0.96813  0.04398000000000001  1.0000
  C   C25       1.0  0.3146500000000001  0.9529400000000001  0.9017800000000002  1.0000
  C   C26       1.0  0.30566  0.8980900000000003  0.80504  1.0000
  C   C27       1.0  0.22954999999999998  0.80219  0.74387  1.0000
  C   C28       1.0  0.43298  0.03944999999999998  0.81914  1.0000
  C   C29       1.0  0.2976400000000001  0.13748000000000005  0.7244800000000002  1.0000
  C   C30       1.0  0.30253  0.08079  0.63438  1.0000
  C   C31       1.0  0.24382999999999994  0.11101  0.54456  1.0000
  C   C32       1.0  0.26486  0.056830000000000006  0.45494  1.0000
  C   C33       1.0  0.17603999999999997  0.1941  0.54332  1.0000
  C   C34       1.0  0.1674700000000001  0.2470400000000001  0.6335400000000002  1.0000
  C   C35       1.0  0.09750999999999997  0.3374  0.63358  1.0000
  C   C36       1.0  0.22785  0.2182  0.72378  1.0000
  C   C37       1.0  0.9906899999999998  0.3341800000000001  0.9041300000000002  1.0000
  C   C38       1.0  0.022100000000000113  0.2749900000000001  0.9688500000000002  1.0000
  C   C39       1.0  0.6304199999999999  0.15573000000000012  0.7159000000000002  1.0000
  C   C40       1.0  0.61627  0.26091  0.7794  1.0000
  C   C41       1.0  0.7042899999999997  0.31492000000000003  0.8771000000000001  1.0000
  C   C42       1.0  0.68805  0.4111400000000001  0.9367400000000002  1.0000
  C   C43       1.0  0.77696  0.46845  0.04157  1.0000
  C   C44       1.0  0.58587  0.45361  0.90005  1.0000
  C   C45       1.0  0.49832999999999983  0.39816  0.80347  1.0000
  C   C46       1.0  0.51352  0.3023800000000001  0.74236  1.0000
  C   C47       1.0  0.38481  0.53835  0.81822  1.0000
  C   C48       1.0  0.42560999999999993  0.63854  0.72419  1.0000
  C   C49       1.0  0.3302500000000001  0.5830400000000001  0.6340600000000002  1.0000
  C   C50       1.0  0.30019  0.61386  0.54457  1.0000
  C   C51       1.0  0.18984000000000004  0.55958  0.45462000000000014  1.0000
  C   C52       1.0  0.36806  0.69675  0.54393  1.0000
  C   C53       1.0  0.46705999999999986  0.7487600000000002  0.63428  1.0000
  C   C54       1.0  0.53854  0.8384000000000004  0.6342700000000002  1.0000
  C   C55       1.0  0.49591  0.71918  0.72414  1.0000
  C   C56       1.0  0.91493  0.8397600000000002  0.90419  1.0000
  C   C57       1.0  0.9470300000000001  0.7805800000000002  0.9688600000000003  1.0000
  C   C58       1.0  0.91417  0.34673  0.28396000000000005  1.0000
  C   C59       1.0  0.83664  0.24130000000000001  0.22015000000000004  1.0000
  C   C60       1.0  0.82709  0.18783  0.12226000000000002  1.0000
  C   C61       1.0  0.75121  0.09141000000000003  0.0625  1.0000
  C   C62       1.0  0.73496  0.034460000000000074  0.9573700000000003  1.0000
  C   C63       1.0  0.68604  0.04825  0.0995  1.0000
  C   C64       1.0  0.6951  0.10297  0.19625  1.0000
  C   C65       1.0  0.77127  0.19899  0.25745  1.0000
  C   C66       1.0  0.56635  0.9619600000000003  0.18118  1.0000
  C   C67       1.0  0.7006999999999999  0.86236  0.27499  1.0000
  C   C68       1.0  0.69623  0.91888  0.36529  1.0000
  C   C69       1.0  0.75551  0.88889  0.45513000000000003  1.0000
  C   C70       1.0  0.73489  0.9433300000000002  0.54493  1.0000
  C   C71       1.0  0.82352  0.8060200000000001  0.45617000000000013  1.0000
  C   C72       1.0  0.8317099999999997  0.75316  0.3656900000000001  1.0000
  C   C73       1.0  0.90301  0.66386  0.36582  1.0000
  C   C74       1.0  0.77052  0.7817100000000001  0.27535000000000004  1.0000
  C   C75       1.0  0.009080000000000013  0.66576  0.09598000000000002  1.0000
  C   C76       1.0  0.97744  0.72497  0.03129  1.0000
  N   N1        1.0  0.11197999999999998  0.10606  0.1542  1.0000
  N   N2        1.0  0.9614600000000001  0.38885000000000003  0.8463100000000001  1.0000
  N   N3        1.0  0.8875  0.89444  0.8463  1.0000
  N   N4        1.0  0.038479999999999986  0.61102  0.15377  1.0000
  O   O1        1.0  0.27208  0.87307  0.25567  1.0000
  O   O2        1.0  0.46108999999999994  0.89988  0.36171  1.0000
  O   O3        1.0  0.25172  0.44331000000000004  0.9099400000000002  1.0000
  O   O4        1.0  0.1311999999999999  0.56574  0.91911  1.0000
  O   O5        1.0  0.60626  0.56846  0.23658  1.0000
  O   O6        1.0  0.54497  0.37961  0.18187  1.0000
  O   O7        1.0  0.87008  0.50808  0.5317500000000001  1.0000
  O   O8        1.0  0.83901  0.4182400000000001  0.62946  1.0000
  O   O9        1.0  0.37529  0.11061000000000003  0.27856  1.0000
  O   O10       1.0  0.48507000000000006  0.14346000000000006  0.44962000000000013  1.0000
  O   O11       1.0  0.018530000000000057  0.6244900000000001  0.7455700000000002  1.0000
  O   O12       1.0  0.0999500000000001  0.6020400000000001  0.6380500000000001  1.0000
  O   O13       1.0  0.34302  0.05681000000000001  0.09261  1.0000
  O   O14       1.0  0.21284999999999998  0.9353200000000002  0.08424000000000001  1.0000
  O   O15       1.0  0.36975  0.93274  0.7648400000000001  1.0000
  O   O16       1.0  0.36216  0.12147000000000004  0.81915  1.0000
  O   O17       1.0  0.3381299999999999  0.99043  0.4687  1.0000
  O   O18       1.0  0.20981  0.07979  0.37091  1.0000
  O   O19       1.0  0.10076999999999997  0.39196  0.72165  1.0000
  O   O20       1.0  0.03935000000000002  0.35705  0.54998  1.0000
  O   O21       1.0  0.72783  0.1272000000000001  0.7445100000000002  1.0000
  O   O22       1.0  0.53889  0.10056  0.63828  1.0000
  O   O23       1.0  0.74849  0.55732  0.09012000000000002  1.0000
  O   O24       1.0  0.86873  0.43436  0.08142000000000002  1.0000
  O   O25       1.0  0.3940299999999999  0.43229000000000006  0.7635  1.0000
  O   O26       1.0  0.45535  0.62115  0.8183200000000003  1.0000
  O   O27       1.0  0.13026000000000004  0.49286  0.46853000000000006  1.0000
  O   O28       1.0  0.1613  0.58222  0.37046  1.0000
  O   O29       1.0  0.6228299999999999  0.8937200000000002  0.7222400000000001  1.0000
  O   O30       1.0  0.51505  0.8570000000000002  0.55048  1.0000
  O   O31       1.0  0.98341  0.37582  0.2557  1.0000
  O   O32       1.0  0.89975  0.40178  0.3614900000000001  1.0000
  O   O33       1.0  0.65776  0.94562  0.90863  1.0000
  O   O34       1.0  0.7870599999999999  0.06860999999999999  0.91735  1.0000
  O   O35       1.0  0.63089  0.06805000000000003  0.23624000000000006  1.0000
  O   O36       1.0  0.63592  0.8787800000000001  0.18055000000000002  1.0000
  O   O37       1.0  0.6617  0.009809999999999996  0.53109  1.0000
  O   O38       1.0  0.7900799999999998  0.92058  0.62903  1.0000
  O   O39       1.0  0.89901  0.60848  0.2776  1.0000
  O   O40       1.0  0.96342  0.64566  0.4497000000000001  1.0000
