data_image0
_chemical_formula_structural       Dy4Cu4H48C96N16Cl4O32
_chemical_formula_sum              "Dy4 Cu4 H48 C96 N16 Cl4 O32"
_cell_length_a       12.24188
_cell_length_b       12.22774
_cell_length_c       22.67268
_cell_angle_alpha    97.26976999999998
_cell_angle_beta     98.38055000000001
_cell_angle_gamma    119.8995

_symmetry_space_group_name_H-M    'P 1'
_symmetry_Int_Tables_number       1

loop_
  _symmetry_equiv_pos_as_xyz
  'x,y,z'

loop_
  _atom_site_type_symbol
  _atom_site_label
  _atom_site_symmetry_multiplicity
  _atom_site_fract_x
  _atom_site_fract_y
  _atom_site_fract_z
  _atom_site_occupancy
  Dy  Dy1       1.0  0.05816000000000005  0.5660600000000001  0.14143  1.0000
  Dy  Dy2       1.0  0.5731000000000003  0.5795200000000001  0.63873  1.0000
  Dy  Dy3       1.0  0.4283000000000001  0.42044000000000004  0.35864  1.0000
  Dy  Dy4       1.0  0.9418000000000002  0.43153  0.86155  1.0000
  Cu  Cu1       1.0  0.33271  0.10967999999999997  0.92005  1.0000
  Cu  Cu2       1.0  0.81247  0.08612  0.41997  1.0000
  Cu  Cu3       1.0  0.18908000000000016  0.9127700000000001  0.58023  1.0000
  Cu  Cu4       1.0  0.66693  0.89268  0.07974  1.0000
  H   H1        1.0  0.28863  0.52215  0.98553  1.0000
  H   H2        1.0  0.3665  0.3961500000000001  0.9276399999999999  1.0000
  H   H3        1.0  0.11251000000000003  0.20925  0.07568  1.0000
  H   H4        1.0  0.07913  0.028919999999999994  0.0841  1.0000
  H   H5        1.0  0.16406000000000012  0.7360100000000002  0.029379999999999996  1.0000
  H   H6        1.0  0.2834999999999999  0.86387  0.9579899999999999  1.0000
  H   H7        1.0  0.09162  0.06053999999999999  0.70743  1.0000
  H   H8        1.0  0.05327  0.84627  0.87878  1.0000
  H   H9        1.0  0.85998  0.75304  0.79009  1.0000
  H   H10       1.0  0.26773  0.23780000000000004  0.72085  1.0000
  H   H11       1.0  0.6548100000000001  0.4808199999999999  0.8343099999999999  1.0000
  H   H12       1.0  0.5877599999999998  0.3308999999999999  0.9092299999999999  1.0000
  H   H13       1.0  0.46409  0.19374  0.48398  1.0000
  H   H14       1.0  0.5332000000000001  0.05835999999999999  0.42632999999999993  1.0000
  H   H15       1.0  0.8666400000000002  0.46186  0.57504  1.0000
  H   H16       1.0  0.056009999999999976  0.50498  0.58342  1.0000
  H   H17       1.0  0.29492000000000007  0.3664700000000001  0.52867  1.0000
  H   H18       1.0  0.09583999999999998  0.17417999999999997  0.45787  1.0000
  H   H19       1.0  0.6470600000000001  0.11442000000000001  0.20768  1.0000
  H   H20       1.0  0.034120000000000004  0.32652  0.3786399999999999  1.0000
  H   H21       1.0  0.03659000000000009  0.43142000000000014  0.29038  1.0000
  H   H22       1.0  0.4849700000000002  0.9516800000000001  0.22092000000000003  1.0000
  H   H23       1.0  0.3533500000000001  0.68147  0.33584  1.0000
  H   H24       1.0  0.58016  0.82149  0.40954  1.0000
  H   H25       1.0  0.53675  0.80402  0.51476  1.0000
  H   H26       1.0  0.4689200000000001  0.94001  0.57294  1.0000
  H   H27       1.0  0.13434000000000004  0.5375700000000001  0.4239  1.0000
  H   H28       1.0  0.94527  0.49464  0.41599  1.0000
  H   H29       1.0  0.7068400000000001  0.63356  0.47123000000000004  1.0000
  H   H30       1.0  0.90624  0.82502  0.54259  1.0000
  H   H31       1.0  0.35225000000000006  0.88406  0.79294  1.0000
  H   H32       1.0  0.967  0.67343  0.6211  1.0000
  H   H33       1.0  0.9622400000000004  0.5687  0.70972  1.0000
  H   H34       1.0  0.51634  0.04690999999999993  0.77951  1.0000
  H   H35       1.0  0.64633  0.31905  0.66545  1.0000
  H   H36       1.0  0.42106000000000005  0.17770000000000005  0.59101  1.0000
  H   H37       1.0  0.7104400000000001  0.47798  0.01597  1.0000
  H   H38       1.0  0.6324300000000003  0.6046900000000001  0.07338  1.0000
  H   H39       1.0  0.88762  0.78958  0.92535  1.0000
  H   H40       1.0  0.9204000000000001  0.9689500000000001  0.91633  1.0000
  H   H41       1.0  0.8376  0.26395  0.97014  1.0000
  H   H42       1.0  0.71611  0.13677  0.04106  1.0000
  H   H43       1.0  0.9082500000000001  0.9401000000000002  0.29188  1.0000
  H   H44       1.0  0.94854  0.15574000000000005  0.12104  1.0000
  H   H45       1.0  0.14120000000000002  0.24831  0.20968  1.0000
  H   H46       1.0  0.7322300000000003  0.76267  0.2779  1.0000
  H   H47       1.0  0.34510000000000013  0.52114  0.16419  1.0000
  H   H48       1.0  0.41248000000000007  0.67284  0.09011  1.0000
  C   C1        1.0  0.13602  0.43548  0.06837  1.0000
  C   C2        1.0  0.19325  0.37192  0.03449  1.0000
  C   C3        1.0  0.26729  0.42799  0.99317  1.0000
  C   C4        1.0  0.31076000000000004  0.35816000000000003  0.96121  1.0000
  C   C5        1.0  0.16923000000000002  0.25177  0.04328  1.0000
  C   C6        1.0  0.21618000000000007  0.18784000000000003  0.00949  1.0000
  C   C7        1.0  0.19370000000000007  0.059940000000000014  0.01596  1.0000
  C   C8        1.0  0.1241  0.99251  0.05600999999999999  1.0000
  C   C9        1.0  0.16925  0.82638  0.026140000000000004  1.0000
  C   C10       1.0  0.10820000000000005  0.87243  0.0602  1.0000
  C   C11       1.0  0.23719000000000018  0.8976800000000001  0.9864799999999999  1.0000
  C   C12       1.0  0.021540000000000028  0.79698  0.10001  1.0000
  C   C13       1.0  0.8585400000000001  0.84924  0.68347  1.0000
  C   C14       1.0  0.96245  0.90335  0.74269  1.0000
  C   C15       1.0  0.08075000000000004  0.015930000000000003  0.74646  1.0000
  C   C16       1.0  0.18153000000000005  0.06577000000000006  0.79869  1.0000
  C   C17       1.0  0.05698000000000011  0.89511  0.84153  1.0000
  C   C18       1.0  0.9500400000000002  0.8422500000000002  0.79162  1.0000
  C   C19       1.0  0.30877  0.18370999999999996  0.8057  1.0000
  C   C20       1.0  0.33854  0.26027  0.76267  1.0000
  C   C21       1.0  0.4639400000000001  0.3677700000000001  0.77352  1.0000
  C   C22       1.0  0.5568200000000001  0.39753000000000005  0.82668  1.0000
  C   C23       1.0  0.5210399999999998  0.31753999999999993  0.8675899999999999  1.0000
  C   C24       1.0  0.50151  0.4475  0.72712  1.0000
  C   C25       1.0  0.63153  0.4286  0.5668  1.0000
  C   C26       1.0  0.66286  0.33851  0.53334  1.0000
  C   C27       1.0  0.56587  0.22283  0.49185  1.0000
  C   C28       1.0  0.60429  0.14783999999999994  0.46006  1.0000
  C   C29       1.0  0.7920600000000002  0.3723  0.54254  1.0000
  C   C30       1.0  0.8225800000000002  0.29167  0.50891  1.0000
  C   C31       1.0  0.957  0.32127  0.51554  1.0000
  C   C32       1.0  0.06427  0.43165  0.55547  1.0000
  C   C33       1.0  0.20125000000000004  0.35764  0.52564  1.0000
  C   C34       1.0  0.18861  0.45237  0.5597  1.0000
  C   C35       1.0  0.09044999999999999  0.24920000000000003  0.48616999999999994  1.0000
  C   C36       1.0  0.30323000000000006  0.57906  0.59977  1.0000
  C   C37       1.0  0.8327000000000001  0.32449  0.18366  1.0000
  C   C38       1.0  0.8389800000000002  0.2802  0.24292  1.0000
  C   C39       1.0  0.7310100000000003  0.16488999999999998  0.24663999999999997  1.0000
  C   C40       1.0  0.7344400000000002  0.11629000000000002  0.29873  1.0000
  C   C41       1.0  0.9475300000000002  0.28501  0.34153  1.0000
  C   C42       1.0  0.9494000000000002  0.34227  0.29182  1.0000
  C   C43       1.0  0.6239100000000001  0.9957500000000001  0.30573  1.0000
  C   C44       1.0  0.5039900000000003  0.9230700000000001  0.26288  1.0000
  C   C45       1.0  0.4063900000000001  0.8099100000000001  0.27425  1.0000
  C   C46       1.0  0.42965  0.77056  0.32755  1.0000
  C   C47       1.0  0.5515800000000001  0.84627  0.36788  1.0000
  C   C48       1.0  0.27917  0.72842  0.22828  1.0000
  C   C49       1.0  0.3686700000000001  0.56972  0.4315  1.0000
  C   C50       1.0  0.33797000000000016  0.6599700000000002  0.46546  1.0000
  C   C51       1.0  0.4351400000000003  0.77534  0.50709  1.0000
  C   C52       1.0  0.39733  0.85062  0.5392  1.0000
  C   C53       1.0  0.20900000000000005  0.62681  0.45654  1.0000
  C   C54       1.0  0.17882  0.70735  0.49056  1.0000
  C   C55       1.0  0.044380000000000044  0.67791  0.4841  1.0000
  C   C56       1.0  0.9368900000000002  0.56778  0.44406  1.0000
  C   C57       1.0  0.80044  0.64222  0.47422  1.0000
  C   C58       1.0  0.8126000000000002  0.54731  0.43997  1.0000
  C   C59       1.0  0.9113600000000002  0.7502  0.5139  1.0000
  C   C60       1.0  0.6973600000000002  0.42090000000000005  0.39988  1.0000
  C   C61       1.0  0.16427000000000008  0.67353  0.8165299999999999  1.0000
  C   C62       1.0  0.1598800000000002  0.7187000000000001  0.7573700000000001  1.0000
  C   C63       1.0  0.26855000000000007  0.8337900000000001  0.75385  1.0000
  C   C64       1.0  0.26621  0.88263  0.70173  1.0000
  C   C65       1.0  0.05298999999999989  0.71457  0.65849  1.0000
  C   C66       1.0  0.049939999999999866  0.65732  0.70828  1.0000
  C   C67       1.0  0.37713000000000013  0.0030599999999999968  0.69479  1.0000
  C   C68       1.0  0.4970600000000001  0.07587000000000002  0.73771  1.0000
  C   C69       1.0  0.5941700000000001  0.18997000000000006  0.72675  1.0000
  C   C70       1.0  0.5706400000000001  0.22926  0.67348  1.0000
  C   C71       1.0  0.44935  0.15281000000000006  0.63272  1.0000
  C   C72       1.0  0.72118  0.27345  0.77286  1.0000
  C   C73       1.0  0.86201  0.56227  0.93302  1.0000
  C   C74       1.0  0.8057700000000002  0.62732  0.96667  1.0000
  C   C75       1.0  0.7317100000000002  0.57196  0.0081  1.0000
  C   C76       1.0  0.6884  0.64224  0.03983  1.0000
  C   C77       1.0  0.83048  0.74755  0.9577  1.0000
  C   C78       1.0  0.7832800000000001  0.8117400000000001  0.99118  1.0000
  C   C79       1.0  0.80567  0.9393500000000001  0.9842599999999999  1.0000
  C   C80       1.0  0.8754600000000002  0.005899999999999943  0.9441299999999999  1.0000
  C   C81       1.0  0.83149  0.17322000000000007  0.9734  1.0000
  C   C82       1.0  0.89228  0.12613999999999997  0.93974  1.0000
  C   C83       1.0  0.7627300000000004  0.10254000000000002  0.01296  1.0000
  C   C84       1.0  0.9792900000000002  0.19997000000000004  0.89985  1.0000
  C   C85       1.0  0.14257  0.15115  0.31611  1.0000
  C   C86       1.0  0.03845  0.09757  0.25691  1.0000
  C   C87       1.0  0.9197000000000001  0.98523  0.25303  1.0000
  C   C88       1.0  0.8189400000000002  0.93598  0.20081  1.0000
  C   C89       1.0  0.9442700000000004  0.10659000000000002  0.15819  1.0000
  C   C90       1.0  0.05114000000000005  0.15903000000000006  0.20810000000000003  1.0000
  C   C91       1.0  0.6912800000000003  0.8184200000000001  0.19364  1.0000
  C   C92       1.0  0.6614199999999999  0.7409099999999998  0.23622999999999997  1.0000
  C   C93       1.0  0.53594  0.6335  0.22514  1.0000
  C   C94       1.0  0.44309000000000004  0.60459  0.17217  1.0000
  C   C95       1.0  0.47892000000000007  0.68548  0.13168  1.0000
  C   C96       1.0  0.49862000000000006  0.55276  0.27102  1.0000
  N   N1        1.0  0.28516000000000014  0.2411400000000001  0.96861  1.0000
  N   N2        1.0  0.24553  0.009270000000000011  0.9803399999999999  1.0000
  N   N3        1.0  0.17004999999999998  0.00502999999999995  0.84562  1.0000
  N   N4        1.0  0.39975  0.21388  0.85715  1.0000
  N   N5        1.0  0.7288099999999997  0.18141999999999997  0.4678999999999999  1.0000
  N   N6        1.0  0.97249  0.23384000000000005  0.48016000000000003  1.0000
  N   N7        1.0  0.8424200000000003  0.17535000000000003  0.3456  1.0000
  N   N8        1.0  0.6453500000000002  0.95632  0.35712  1.0000
  N   N9        1.0  0.2729100000000001  0.8173400000000001  0.53167  1.0000
  N   N10       1.0  0.029150000000000027  0.7652  0.51979  1.0000
  N   N11       1.0  0.15867999999999996  0.82388  0.65461  1.0000
  N   N12       1.0  0.35582  0.04241999999999998  0.64333  1.0000
  N   N13       1.0  0.7139900000000002  0.75901  0.03203  1.0000
  N   N14       1.0  0.7540400000000002  0.9909700000000001  0.01947  1.0000
  N   N15       1.0  0.83089  0.9969600000000002  0.15399  1.0000
  N   N16       1.0  0.6001900000000002  0.78923  0.14243  1.0000
  Cl  Cl1       1.0  0.53311  0.17016  0.97309  1.0000
  Cl  Cl2       1.0  0.8060400000000003  0.9376700000000002  0.47187  1.0000
  Cl  Cl3       1.0  0.19583000000000003  0.06078  0.52792  1.0000
  Cl  Cl4       1.0  0.4665800000000001  0.8321200000000001  0.02625  1.0000
  O   O1        1.0  0.14558  0.53899  0.05662999999999999  1.0000
  O   O2        1.0  0.07976  0.38569  0.10996000000000002  1.0000
  O   O3        1.0  0.97599  0.8467900000000002  0.13111  1.0000
  O   O4        1.0  0.99723  0.67855  0.09590999999999998  1.0000
  O   O5        1.0  0.73955  0.77239  0.6871  1.0000
  O   O6        1.0  0.8934100000000001  0.88006  0.6365  1.0000
  O   O7        1.0  0.41502  0.42439  0.68  1.0000
  O   O8        1.0  0.6209100000000001  0.53552  0.7346600000000001  1.0000
  O   O9        1.0  0.51453  0.40217  0.55655  1.0000
  O   O10       1.0  0.72317  0.5307000000000001  0.60648  1.0000
  O   O11       1.0  0.28464  0.65564  0.631  1.0000
  O   O12       1.0  0.41763000000000017  0.5995500000000001  0.59574  1.0000
  O   O13       1.0  0.9102000000000001  0.44805  0.18744  1.0000
  O   O14       1.0  0.7571100000000002  0.24175  0.13642  1.0000
  O   O15       1.0  0.26016  0.76373  0.17905  1.0000
  O   O16       1.0  0.19225999999999996  0.6219199999999999  0.23831  1.0000
  O   O17       1.0  0.48463  0.59303  0.44316  1.0000
  O   O18       1.0  0.2777500000000001  0.47086000000000006  0.39004  1.0000
  O   O19       1.0  0.7154100000000001  0.34375  0.36873999999999996  1.0000
  O   O20       1.0  0.58317  0.40128  0.40373  1.0000
  O   O21       1.0  0.08530999999999998  0.55048  0.81272  1.0000
  O   O22       1.0  0.24044000000000007  0.7562000000000001  0.8638200000000001  1.0000
  O   O23       1.0  0.7454200000000002  0.23368000000000014  0.81981  1.0000
  O   O24       1.0  0.8022500000000002  0.38487000000000005  0.76524  1.0000
  O   O25       1.0  0.8459500000000002  0.4555100000000001  0.94333  1.0000
  O   O26       1.0  0.9239699999999997  0.6139599999999998  0.8932899999999999  1.0000
  O   O27       1.0  0.023270000000000002  0.14856000000000005  0.86868  1.0000
  O   O28       1.0  0.005870000000000017  0.31925000000000003  0.90387  1.0000
  O   O29       1.0  0.2619500000000001  0.22681  0.31246  1.0000
  O   O30       1.0  0.10774000000000003  0.12118  0.36316  1.0000
  O   O31       1.0  0.58617  0.5719599999999999  0.31663  1.0000
  O   O32       1.0  0.3786  0.4677700000000001  0.26465  1.0000
