data_image0
_chemical_formula_structural       Co4H64C120N12O24
_chemical_formula_sum              "Co4 H64 C120 N12 O24"
_cell_length_a       10.12059
_cell_length_b       16.26091
_cell_length_c       24.71941
_cell_angle_alpha    106.34624000000001
_cell_angle_beta     93.12042000000001
_cell_angle_gamma    104.24007000000002

_symmetry_space_group_name_H-M    'P 1'
_symmetry_Int_Tables_number       1

loop_
  _symmetry_equiv_pos_as_xyz
  'x,y,z'

loop_
  _atom_site_type_symbol
  _atom_site_label
  _atom_site_symmetry_multiplicity
  _atom_site_fract_x
  _atom_site_fract_y
  _atom_site_fract_z
  _atom_site_occupancy
  Co  Co1       1.0  0.5971000000000001  0.15643  0.03806  1.0000
  Co  Co2       1.0  0.036090000000000004  0.65257  0.54104  1.0000
  Co  Co3       1.0  0.40290000000000004  0.8435699999999999  0.9619399999999999  1.0000
  Co  Co4       1.0  0.9639100000000002  0.34743  0.45896  1.0000
  H   H1        1.0  0.25402999999999987  0.9935699999999997  0.09756  1.0000
  H   H2        1.0  0.8308000000000001  0.0011300000000000062  0.09734000000000001  1.0000
  H   H3        1.0  0.11324000000000001  0.17661  0.028659999999999998  1.0000
  H   H4        1.0  0.91032  0.98762  0.19544  1.0000
  H   H5        1.0  0.86553  0.86934  0.24241  1.0000
  H   H6        1.0  0.04716999999999999  0.71007  0.11387  1.0000
  H   H7        1.0  0.09359  0.82983  0.06707  1.0000
  H   H8        1.0  0.65509  0.49274  0.10167  1.0000
  H   H9        1.0  0.5474699999999999  0.33265  0.04341  1.0000
  H   H10       1.0  0.78699  0.2424  0.14224  1.0000
  H   H11       1.0  0.8934599999999999  0.3971  0.20815  1.0000
  H   H12       1.0  0.06727  0.53643  0.32982  1.0000
  H   H13       1.0  0.09297000000000002  0.54274  0.43196  1.0000
  H   H14       1.0  0.92046  0.75488  0.47733  1.0000
  H   H15       1.0  0.8966000000000001  0.7613900000000001  0.37823000000000007  1.0000
  H   H16       1.0  0.24493999999999996  0.87807  0.33135  1.0000
  H   H17       1.0  0.54105  0.67182  0.53208  1.0000
  H   H18       1.0  0.26403  0.48328  0.594  1.0000
  H   H19       1.0  0.69353  0.49032  0.59799  1.0000
  H   H20       1.0  0.5631699999999998  0.32902  0.56703  1.0000
  H   H21       1.0  0.53614  0.21004999999999996  0.61373  1.0000
  H   H22       1.0  0.3285  0.35139  0.74043  1.0000
  H   H23       1.0  0.34753  0.46737  0.69196  1.0000
  H   H24       1.0  0.67814  0.26038999999999995  0.86339  1.0000
  H   H25       1.0  0.7331100000000002  0.25823000000000007  0.9621000000000001  1.0000
  H   H26       1.0  0.40885999999999995  0.03328  0.93974  1.0000
  H   H27       1.0  0.34127  0.02608999999999998  0.83995  1.0000
  H   H28       1.0  0.38868  0.8877999999999999  0.6981999999999999  1.0000
  H   H29       1.0  0.26343  0.73523  0.63465  1.0000
  H   H30       1.0  0.97342  0.83081  0.56573  1.0000
  H   H31       1.0  0.09585999999999999  0.98928  0.62169  1.0000
  H   H32       1.0  0.68732  0.40718  0.8096  1.0000
  H   H33       1.0  0.7459699999999999  0.006439999999999943  0.9024399999999999  1.0000
  H   H34       1.0  0.16920000000000002  0.99887  0.9026600000000001  1.0000
  H   H35       1.0  0.88676  0.82339  0.97134  1.0000
  H   H36       1.0  0.08968999999999999  0.01237999999999999  0.80456  1.0000
  H   H37       1.0  0.13446999999999995  0.13065999999999994  0.75759  1.0000
  H   H38       1.0  0.95283  0.2899300000000001  0.8861300000000001  1.0000
  H   H39       1.0  0.9064099999999999  0.17016999999999996  0.93293  1.0000
  H   H40       1.0  0.34491  0.50726  0.89833  1.0000
  H   H41       1.0  0.45254000000000005  0.6673500000000001  0.9565900000000002  1.0000
  H   H42       1.0  0.21300999999999995  0.7576  0.85776  1.0000
  H   H43       1.0  0.10654999999999999  0.6029000000000001  0.7918500000000002  1.0000
  H   H44       1.0  0.9327300000000001  0.46358  0.67018  1.0000
  H   H45       1.0  0.9070399999999998  0.45727  0.56803  1.0000
  H   H46       1.0  0.07954  0.24512  0.52267  1.0000
  H   H47       1.0  0.10340000000000002  0.23861000000000004  0.62177  1.0000
  H   H48       1.0  0.75506  0.12193  0.66865  1.0000
  H   H49       1.0  0.4589500000000001  0.32818  0.46792  1.0000
  H   H50       1.0  0.73597  0.51673  0.40599  1.0000
  H   H51       1.0  0.30647  0.50968  0.40201  1.0000
  H   H52       1.0  0.43683000000000005  0.67098  0.43297  1.0000
  H   H53       1.0  0.4638600000000001  0.7899500000000002  0.38627000000000006  1.0000
  H   H54       1.0  0.6714999999999999  0.64862  0.25957  1.0000
  H   H55       1.0  0.65247  0.53263  0.30804  1.0000
  H   H56       1.0  0.32186  0.73961  0.13661  1.0000
  H   H57       1.0  0.26689  0.74177  0.0379  1.0000
  H   H58       1.0  0.59114  0.96673  0.06026  1.0000
  H   H59       1.0  0.65874  0.97391  0.16005  1.0000
  H   H60       1.0  0.61132  0.11220000000000001  0.3018  1.0000
  H   H61       1.0  0.73657  0.26477  0.36535  1.0000
  H   H62       1.0  0.026579999999999975  0.1692  0.43427  1.0000
  H   H63       1.0  0.90414  0.010729999999999986  0.37831  1.0000
  H   H64       1.0  0.31268  0.59283  0.1904  1.0000
  C   C1        1.0  0.33944  0.12581  0.05056  1.0000
  C   C2        1.0  0.19802  0.08905  0.06264  1.0000
  C   C3        1.0  0.1706  0.020589999999999994  0.08787  1.0000
  C   C4        1.0  0.038720000000000004  0.98915  0.10164000000000001  1.0000
  C   C5        1.0  0.93452  0.026  0.08848  1.0000
  C   C6        1.0  0.9601600000000001  0.09249  0.06163  1.0000
  C   C7        1.0  0.09242  0.12448  0.04906  1.0000
  C   C8        1.0  0.8467399999999999  0.12876  0.04614999999999999  1.0000
  C   C9        1.0  0.008849999999999985  0.9178  0.12905  1.0000
  C   C10       1.0  0.95636  0.78247  0.18196  1.0000
  C   C11       1.0  0.94125  0.92702  0.17773  1.0000
  C   C12       1.0  0.91631  0.8607399999999998  0.20439999999999997  1.0000
  C   C13       1.0  0.019089999999999933  0.77162  0.13198  1.0000
  C   C14       1.0  0.04674999999999997  0.8388  0.10623  1.0000
  C   C15       1.0  0.9326599999999999  0.7098  0.20837  1.0000
  C   C16       1.0  0.8679899999999999  0.623  0.17634  1.0000
  C   C17       1.0  0.85061  0.54925  0.19513  1.0000
  C   C18       1.0  0.95509  0.64477  0.2849  1.0000
  C   C19       1.0  0.97911  0.72091  0.26588  1.0000
  C   C20       1.0  0.78529  0.45734  0.15903  1.0000
  C   C21       1.0  0.68717  0.43896  0.11176  1.0000
  C   C22       1.0  0.62822  0.35104  0.07898  1.0000
  C   C23       1.0  0.76001  0.29984  0.13544  1.0000
  C   C24       1.0  0.81958  0.38544  0.17132  1.0000
  C   C25       1.0  0.9838499999999999  0.65046  0.34554  1.0000
  C   C26       1.0  0.037550000000000014  0.58774  0.36153  1.0000
  C   C27       1.0  0.05148000000000001  0.59054  0.41835  1.0000
  C   C28       1.0  0.9578899999999999  0.71076  0.44385  1.0000
  C   C29       1.0  0.9439799999999999  0.71338  0.38826  1.0000
  C   C30       1.0  0.060760000000000064  0.8107500000000001  0.30381  1.0000
  C   C31       1.0  0.7739  0.62724  0.55499  1.0000
  C   C32       1.0  0.63229  0.58588  0.56473  1.0000
  C   C33       1.0  0.52298  0.61771  0.55079  1.0000
  C   C34       1.0  0.39032999999999995  0.57986  0.56088  1.0000
  C   C35       1.0  0.36773  0.51152  0.58626  1.0000
  C   C36       1.0  0.47656  0.47840000000000005  0.59968  1.0000
  C   C37       1.0  0.60805  0.51529  0.58796  1.0000
  C   C38       1.0  0.27482  0.61379  0.54455  1.0000
  C   C39       1.0  0.45710999999999996  0.40643  0.62645  1.0000
  C   C40       1.0  0.51082  0.33351  0.60477  1.0000
  C   C41       1.0  0.49562999999999996  0.26676  0.63085  1.0000
  C   C42       1.0  0.43118  0.27311  0.68022  1.0000
  C   C43       1.0  0.37888  0.34619  0.70233  1.0000
  C   C44       1.0  0.38978  0.41135  0.67501  1.0000
  C   C45       1.0  0.41736  0.20121999999999995  0.70706  1.0000
  C   C46       1.0  0.46930000000000005  0.21509000000000006  0.76436  1.0000
  C   C47       1.0  0.45188  0.14002999999999993  0.78442  1.0000
  C   C48       1.0  0.33085  0.04265999999999998  0.69715  1.0000
  C   C49       1.0  0.34875  0.11461999999999999  0.67652  1.0000
  C   C50       1.0  0.49933  0.14484  0.84344  1.0000
  C   C51       1.0  0.61267  0.21016000000000007  0.8785600000000001  1.0000
  C   C52       1.0  0.6451199999999999  0.20949  0.9338099999999999  1.0000
  C   C53       1.0  0.46501  0.08302999999999999  0.92156  1.0000
  C   C54       1.0  0.42748  0.07932999999999997  0.86601  1.0000
  C   C55       1.0  0.25506  0.95108  0.66334  1.0000
  C   C56       1.0  0.29901  0.87794  0.66832  1.0000
  C   C57       1.0  0.22940999999999998  0.79316  0.6334  1.0000
  C   C58       1.0  0.06948000000000001  0.84749  0.59348  1.0000
  C   C59       1.0  0.13677  0.93471  0.62523  1.0000
  C   C60       1.0  0.53336  0.30897  0.80119  1.0000
  C   C61       1.0  0.66056  0.87419  0.9494399999999998  1.0000
  C   C62       1.0  0.8019799999999999  0.9109499999999998  0.93735  1.0000
  C   C63       1.0  0.8294  0.9794099999999999  0.91213  1.0000
  C   C64       1.0  0.9612799999999999  0.010849999999999983  0.89836  1.0000
  C   C65       1.0  0.06548999999999998  0.974  0.91152  1.0000
  C   C66       1.0  0.039839999999999966  0.90752  0.9383699999999999  1.0000
  C   C67       1.0  0.90758  0.87553  0.95094  1.0000
  C   C68       1.0  0.15326  0.87124  0.95385  1.0000
  C   C69       1.0  0.99116  0.0822  0.87095  1.0000
  C   C70       1.0  0.04365000000000001  0.21754  0.81804  1.0000
  C   C71       1.0  0.05875000000000002  0.07298000000000002  0.82227  1.0000
  C   C72       1.0  0.08370000000000004  0.13927000000000006  0.7956  1.0000
  C   C73       1.0  0.9809099999999998  0.22837999999999997  0.86801  1.0000
  C   C74       1.0  0.9532500000000002  0.16121  0.89377  1.0000
  C   C75       1.0  0.06733999999999996  0.2902  0.7916300000000001  1.0000
  C   C76       1.0  0.13201  0.377  0.82366  1.0000
  C   C77       1.0  0.14939  0.45075  0.80487  1.0000
  C   C78       1.0  0.044910000000000005  0.35523  0.7151  1.0000
  C   C79       1.0  0.02088999999999997  0.27909999999999996  0.73412  1.0000
  C   C80       1.0  0.21471  0.54266  0.84097  1.0000
  C   C81       1.0  0.31283  0.56105  0.88824  1.0000
  C   C82       1.0  0.37178  0.64896  0.92102  1.0000
  C   C83       1.0  0.23999000000000004  0.70017  0.86456  1.0000
  C   C84       1.0  0.18041999999999994  0.61456  0.82868  1.0000
  C   C85       1.0  0.016159999999999994  0.34954  0.65446  1.0000
  C   C86       1.0  0.96245  0.41227  0.63847  1.0000
  C   C87       1.0  0.94852  0.40946  0.58165  1.0000
  C   C88       1.0  0.04211  0.28924  0.55615  1.0000
  C   C89       1.0  0.05601999999999999  0.28662  0.61174  1.0000
  C   C90       1.0  0.93925  0.18925  0.69619  1.0000
  C   C91       1.0  0.22610000000000002  0.37277  0.44501  1.0000
  C   C92       1.0  0.36771  0.41413  0.43527  1.0000
  C   C93       1.0  0.47702  0.38229  0.44921000000000005  1.0000
  C   C94       1.0  0.60967  0.42014000000000007  0.43912000000000007  1.0000
  C   C95       1.0  0.63227  0.48848  0.41374000000000005  1.0000
  C   C96       1.0  0.52344  0.5216  0.40031  1.0000
  C   C97       1.0  0.39195  0.48472  0.41203  1.0000
  C   C98       1.0  0.72518  0.38621  0.45545  1.0000
  C   C99       1.0  0.5429  0.59357  0.37355  1.0000
  C   C100      1.0  0.48917999999999995  0.66649  0.3952300000000001  1.0000
  C   C101      1.0  0.50437  0.73324  0.36915  1.0000
  C   C102      1.0  0.56882  0.7269  0.31978  1.0000
  C   C103      1.0  0.62112  0.65381  0.29767  1.0000
  C   C104      1.0  0.61022  0.58866  0.32499  1.0000
  C   C105      1.0  0.58264  0.79879  0.29294  1.0000
  C   C106      1.0  0.5307  0.78492  0.23563999999999996  1.0000
  C   C107      1.0  0.54812  0.85998  0.21558  1.0000
  C   C108      1.0  0.66915  0.9573399999999999  0.30285  1.0000
  C   C109      1.0  0.65125  0.88539  0.32348  1.0000
  C   C110      1.0  0.50067  0.85516  0.15656  1.0000
  C   C111      1.0  0.38733000000000006  0.78984  0.12143999999999999  1.0000
  C   C112      1.0  0.35488  0.79051  0.06619  1.0000
  C   C113      1.0  0.53499  0.91697  0.07844  1.0000
  C   C114      1.0  0.57252  0.92067  0.13399  1.0000
  C   C115      1.0  0.74494  0.04892000000000002  0.33666  1.0000
  C   C116      1.0  0.70099  0.12206999999999997  0.33168  1.0000
  C   C117      1.0  0.7706  0.20684  0.3666  1.0000
  C   C118      1.0  0.9305199999999999  0.15251999999999996  0.40651999999999994  1.0000
  C   C119      1.0  0.8632300000000002  0.06529999999999997  0.37477  1.0000
  C   C120      1.0  0.46665  0.69103  0.19881  1.0000
  N   N1        1.0  0.8968100000000001  0.56188  0.25018  1.0000
  N   N2        1.0  0.66567  0.28217  0.08973  1.0000
  N   N3        1.0  0.38654000000000005  0.05696000000000003  0.75103  1.0000
  N   N4        1.0  0.57136  0.14821000000000004  0.95574  1.0000
  N   N5        1.0  0.11660999999999999  0.77727  0.5958  1.0000
  N   N6        1.0  0.0117  0.65115  0.45931  1.0000
  N   N7        1.0  0.10319000000000005  0.43812  0.74981  1.0000
  N   N8        1.0  0.33433  0.71783  0.91027  1.0000
  N   N9        1.0  0.6134600000000001  0.9430400000000001  0.24897  1.0000
  N   N10       1.0  0.42864  0.85179  0.04426  1.0000
  N   N11       1.0  0.8833900000000001  0.22273999999999997  0.40419999999999995  1.0000
  N   N12       1.0  0.9883  0.34885000000000005  0.54069  1.0000
  O   O1        1.0  0.43295  0.08728  0.06046  1.0000
  O   O2        1.0  0.36723  0.19149  0.0317  1.0000
  O   O3        1.0  0.72715  0.09627  0.06053  1.0000
  O   O4        1.0  0.86647  0.18789  0.021720000000000003  1.0000
  O   O5        1.0  0.15609999999999993  0.58332  0.56026  1.0000
  O   O6        1.0  0.29305  0.67098  0.51851  1.0000
  O   O7        1.0  0.8003099999999999  0.69627  0.53961  1.0000
  O   O8        1.0  0.86755  0.588  0.56327  1.0000
  O   O9        1.0  0.19805999999999999  0.81762  0.30693  1.0000
  O   O10       1.0  0.01329000000000001  0.87096  0.32856  1.0000
  O   O11       1.0  0.65827  0.34435  0.78662  1.0000
  O   O12       1.0  0.47996999999999995  0.35011  0.83879  1.0000
  O   O13       1.0  0.56705  0.91273  0.93954  1.0000
  O   O14       1.0  0.63277  0.80851  0.96829  1.0000
  O   O15       1.0  0.27285  0.90373  0.93947  1.0000
  O   O16       1.0  0.13352999999999998  0.81211  0.97828  1.0000
  O   O17       1.0  0.8439  0.41668000000000005  0.4397400000000001  1.0000
  O   O18       1.0  0.7069499999999999  0.32902  0.48149  1.0000
  O   O19       1.0  0.19969  0.30374  0.46039  1.0000
  O   O20       1.0  0.13245  0.41200999999999993  0.43673000000000006  1.0000
  O   O21       1.0  0.8019399999999999  0.18237999999999993  0.69307  1.0000
  O   O22       1.0  0.9867099999999999  0.12903999999999993  0.67144  1.0000
  O   O23       1.0  0.34173  0.65566  0.21338  1.0000
  O   O24       1.0  0.52003  0.64989  0.16121  1.0000
