data_image0
_chemical_formula_structural       Cd4H56C88N16O16
_chemical_formula_sum              "Cd4 H56 C88 N16 O16"
_cell_length_a       12.83986
_cell_length_b       13.90723
_cell_length_c       13.867520000000003
_cell_angle_alpha    99.14706
_cell_angle_beta     100.74848
_cell_angle_gamma    100.74678

_symmetry_space_group_name_H-M    'P 1'
_symmetry_Int_Tables_number       1

loop_
  _symmetry_equiv_pos_as_xyz
  'x,y,z'

loop_
  _atom_site_type_symbol
  _atom_site_label
  _atom_site_symmetry_multiplicity
  _atom_site_fract_x
  _atom_site_fract_y
  _atom_site_fract_z
  _atom_site_occupancy
  Cd  Cd1       1.0  0.4306399999999999  0.31778  0.41049  1.0000
  Cd  Cd2       1.0  0.06950000000000002  0.5906900000000002  0.68325  1.0000
  Cd  Cd3       1.0  0.5693699999999999  0.6822200000000003  0.58951  1.0000
  Cd  Cd4       1.0  0.9305099999999998  0.40931000000000006  0.31675  1.0000
  H   H1        1.0  0.6133399999999999  0.14725000000000005  0.63868  1.0000
  H   H2        1.0  0.6886199999999999  0.04754000000000004  0.75978  1.0000
  H   H3        1.0  0.8478499999999998  0.99913  0.8534899999999997  1.0000
  H   H4        1.0  0.03386999999999993  0.06510999999999997  0.8303499999999998  1.0000
  H   H5        1.0  0.06062000000000002  0.17671000000000006  0.71058  1.0000
  H   H6        1.0  0.9825799999999998  0.2637  0.58153  1.0000
  H   H7        1.0  0.3596599999999999  0.12066000000000003  0.48011  1.0000
  H   H8        1.0  0.19872000000000004  0.99932  0.50457  1.0000
  H   H9        1.0  0.9963899999999999  0.19379  0.4002099999999999  1.0000
  H   H10       1.0  0.16577  0.30921  0.38233  1.0000
  H   H11       1.0  0.60157  0.19732999999999998  0.32332999999999995  1.0000
  H   H12       1.0  0.61522  0.07482000000000003  0.17671  1.0000
  H   H13       1.0  0.29193  0.09032000000000001  0.03267  1.0000
  H   H14       1.0  0.2901  0.21194000000000005  0.18818  1.0000
  H   H15       1.0  0.88644  0.36134  0.8530899999999999  1.0000
  H   H16       1.0  0.81146  0.23980000000000007  0.95144  1.0000
  H   H17       1.0  0.6527  0.14679  0.00117  1.0000
  H   H18       1.0  0.46652999999999983  0.16993999999999998  0.9355699999999999  1.0000
  H   H19       1.0  0.43919  0.28914  0.82365  1.0000
  H   H20       1.0  0.51731  0.41796  0.7353599999999999  1.0000
  H   H21       1.0  0.14047000000000004  0.5195900000000001  0.8799  1.0000
  H   H22       1.0  0.30181  0.49547000000000013  0.00142  1.0000
  H   H23       1.0  0.5034799999999999  0.60002  0.8059899999999999  1.0000
  H   H24       1.0  0.3336599999999999  0.61707  0.69026  1.0000
  H   H25       1.0  0.89899  0.6769600000000002  0.80316  1.0000
  H   H26       1.0  0.8849399999999997  0.8232100000000004  0.92569  1.0000
  H   H27       1.0  0.20790000000000003  0.9675200000000002  0.90977  1.0000
  H   H28       1.0  0.20992  0.81246  0.78795  1.0000
  H   H29       1.0  0.38667  0.85275  0.36132  1.0000
  H   H30       1.0  0.31139  0.9524600000000002  0.24022  1.0000
  H   H31       1.0  0.15216  0.0008700000000000015  0.14651  1.0000
  H   H32       1.0  0.9661399999999999  0.9348900000000002  0.16966  1.0000
  H   H33       1.0  0.93939  0.82329  0.28942  1.0000
  H   H34       1.0  0.017430000000000032  0.7363000000000002  0.4184799999999999  1.0000
  H   H35       1.0  0.6403399999999999  0.8793400000000001  0.51989  1.0000
  H   H36       1.0  0.80129  0.0006799999999999952  0.49544  1.0000
  H   H37       1.0  0.0036200000000000104  0.8062100000000001  0.59979  1.0000
  H   H38       1.0  0.8342400000000001  0.6907800000000001  0.61767  1.0000
  H   H39       1.0  0.3984399999999999  0.80267  0.6766699999999998  1.0000
  H   H40       1.0  0.38479  0.9251800000000002  0.8232899999999999  1.0000
  H   H41       1.0  0.7080799999999998  0.9096799999999999  0.9673299999999998  1.0000
  H   H42       1.0  0.7099100000000002  0.7880599999999999  0.8118199999999999  1.0000
  H   H43       1.0  0.11357000000000005  0.6386600000000002  0.14691  1.0000
  H   H44       1.0  0.18854  0.7602000000000002  0.04855999999999999  1.0000
  H   H45       1.0  0.34730999999999995  0.8532100000000002  0.99883  1.0000
  H   H46       1.0  0.53348  0.8300600000000002  0.06444  1.0000
  H   H47       1.0  0.56082  0.7108600000000002  0.17635  1.0000
  H   H48       1.0  0.4827  0.5820400000000001  0.26464  1.0000
  H   H49       1.0  0.85954  0.48041  0.1201  1.0000
  H   H50       1.0  0.6982  0.50453  0.99858  1.0000
  H   H51       1.0  0.49652  0.39998000000000017  0.19401  1.0000
  H   H52       1.0  0.66635  0.3829300000000001  0.30975  1.0000
  H   H53       1.0  0.10101999999999998  0.32304  0.19684999999999994  1.0000
  H   H54       1.0  0.11506999999999999  0.17679000000000006  0.07432  1.0000
  H   H55       1.0  0.7921099999999998  0.03247  0.09023  1.0000
  H   H56       1.0  0.79009  0.18754  0.21205  1.0000
  C   C1        1.0  0.6117799999999999  0.26523  0.50598  1.0000
  C   C2        1.0  0.70796  0.23006000000000004  0.55545  1.0000
  C   C3        1.0  0.69432  0.17035000000000006  0.62538  1.0000
  C   C4        1.0  0.78281  0.13986  0.6799699999999999  1.0000
  C   C5        1.0  0.76964  0.07518  0.74855  1.0000
  C   C6        1.0  0.8586099999999998  0.04853  0.80097  1.0000
  C   C7        1.0  0.9642699999999998  0.08604999999999999  0.78816  1.0000
  C   C8        1.0  0.97973  0.14881  0.72188  1.0000
  C   C9        1.0  0.88977  0.17640999999999998  0.6658399999999999  1.0000
  C   C10       1.0  0.9019900000000001  0.23690000000000005  0.59389  1.0000
  C   C11       1.0  0.81369  0.26065  0.53668  1.0000
  C   C12       1.0  0.8348299999999995  0.30585  0.44875  1.0000
  C   C13       1.0  0.27781  0.1338  0.46428  1.0000
  C   C14       1.0  0.18949  0.06763  0.47860999999999987  1.0000
  C   C15       1.0  0.08666  0.08988000000000003  0.45682  1.0000
  C   C16       1.0  0.07597  0.17633  0.41928999999999994  1.0000
  C   C17       1.0  0.16927  0.23996  0.4091199999999999  1.0000
  C   C18       1.0  0.53336  0.17007  0.25891  1.0000
  C   C19       1.0  0.54211  0.10343000000000002  0.17646  1.0000
  C   C20       1.0  0.45486  0.07455  0.0927  1.0000
  C   C21       1.0  0.36119999999999997  0.11180000000000001  0.09625  1.0000
  C   C22       1.0  0.35902999999999996  0.17800000000000005  0.18203  1.0000
  C   C23       1.0  0.88983  0.49567  0.73858  1.0000
  C   C24       1.0  0.7924499999999998  0.44537  0.77129  1.0000
  C   C25       1.0  0.8055299999999999  0.37465  0.8299699999999998  1.0000
  C   C26       1.0  0.7168099999999998  0.3194  0.85949  1.0000
  C   C27       1.0  0.7302699999999999  0.25076  0.92399  1.0000
  C   C28       1.0  0.64156  0.19873000000000005  0.95122  1.0000
  C   C29       1.0  0.53592  0.21183000000000005  0.91415  1.0000
  C   C30       1.0  0.52017  0.27785  0.8511499999999999  1.0000
  C   C31       1.0  0.60989  0.33355000000000007  0.82291  1.0000
  C   C32       1.0  0.59789  0.4055600000000001  0.76238  1.0000
  C   C33       1.0  0.6865999999999998  0.4635900000000001  0.73987  1.0000
  C   C34       1.0  0.66601  0.5515300000000001  0.6947399999999999  1.0000
  C   C35       1.0  0.22224999999999998  0.53545  0.86665  1.0000
  C   C36       1.0  0.31077  0.5213800000000001  0.9328499999999998  1.0000
  C   C37       1.0  0.4134299999999999  0.5433600000000001  0.9102999999999999  1.0000
  C   C38       1.0  0.42397  0.58081  0.8236099999999998  1.0000
  C   C39       1.0  0.3304399999999999  0.59062  0.75988  1.0000
  C   C40       1.0  0.96706  0.7413500000000002  0.8304199999999998  1.0000
  C   C41       1.0  0.9580499999999998  0.8236500000000002  0.89697  1.0000
  C   C42       1.0  0.04511  0.9073400000000001  0.92565  1.0000
  C   C43       1.0  0.13880000000000006  0.9039700000000003  0.88837  1.0000
  C   C44       1.0  0.14116999999999993  0.81843  0.8222  1.0000
  C   C45       1.0  0.38823  0.73477  0.49402  1.0000
  C   C46       1.0  0.29205  0.76994  0.4445599999999999  1.0000
  C   C47       1.0  0.30569  0.8296500000000002  0.37462  1.0000
  C   C48       1.0  0.21720000000000006  0.8601400000000002  0.3200299999999999  1.0000
  C   C49       1.0  0.23037  0.92482  0.25145  1.0000
  C   C50       1.0  0.14140000000000005  0.9514700000000003  0.19903  1.0000
  C   C51       1.0  0.03573000000000007  0.9139400000000002  0.21184  1.0000
  C   C52       1.0  0.020279999999999986  0.85119  0.27812  1.0000
  C   C53       1.0  0.11024  0.82359  0.33416  1.0000
  C   C54       1.0  0.09801999999999995  0.7631  0.40611  1.0000
  C   C55       1.0  0.18631999999999993  0.7393399999999999  0.4633199999999999  1.0000
  C   C56       1.0  0.16518  0.69415  0.55125  1.0000
  C   C57       1.0  0.7221999999999998  0.8662000000000001  0.53572  1.0000
  C   C58       1.0  0.8105199999999998  0.9323700000000001  0.5214  1.0000
  C   C59       1.0  0.9133499999999998  0.9101099999999999  0.54318  1.0000
  C   C60       1.0  0.92404  0.8236700000000002  0.58071  1.0000
  C   C61       1.0  0.83074  0.76004  0.59088  1.0000
  C   C62       1.0  0.46665  0.82993  0.7411  1.0000
  C   C63       1.0  0.4578999999999999  0.8965700000000002  0.8235499999999998  1.0000
  C   C64       1.0  0.5451499999999999  0.92545  0.9073  1.0000
  C   C65       1.0  0.63881  0.8882  0.9037499999999999  1.0000
  C   C66       1.0  0.6409799999999998  0.8220000000000001  0.8179699999999999  1.0000
  C   C67       1.0  0.11017999999999994  0.50433  0.26142  1.0000
  C   C68       1.0  0.20756000000000005  0.5546300000000002  0.22870999999999997  1.0000
  C   C69       1.0  0.19448  0.62535  0.17003999999999997  1.0000
  C   C70       1.0  0.28318999999999994  0.6806  0.14051  1.0000
  C   C71       1.0  0.26974  0.74923  0.07601  1.0000
  C   C72       1.0  0.35845  0.80127  0.04878  1.0000
  C   C73       1.0  0.46409  0.7881700000000003  0.08585  1.0000
  C   C74       1.0  0.47984  0.72215  0.14885  1.0000
  C   C75       1.0  0.3901199999999999  0.6664500000000002  0.17709  1.0000
  C   C76       1.0  0.40211  0.59444  0.23761999999999994  1.0000
  C   C77       1.0  0.31341  0.53641  0.26014  1.0000
  C   C78       1.0  0.334  0.4484699999999999  0.30525999999999986  1.0000
  C   C79       1.0  0.7777599999999998  0.46455000000000013  0.13335  1.0000
  C   C80       1.0  0.6892399999999999  0.47862  0.06715  1.0000
  C   C81       1.0  0.58658  0.4566400000000001  0.0897  1.0000
  C   C82       1.0  0.57604  0.4191900000000001  0.1764  1.0000
  C   C83       1.0  0.6695699999999999  0.40938  0.24012999999999995  1.0000
  C   C84       1.0  0.03295  0.25865  0.16958  1.0000
  C   C85       1.0  0.04196  0.17635000000000003  0.10303999999999999  1.0000
  C   C86       1.0  0.9549  0.09266000000000002  0.07436  1.0000
  C   C87       1.0  0.86121  0.09602999999999999  0.11164  1.0000
  C   C88       1.0  0.85884  0.18157  0.17779999999999996  1.0000
  N   N1        1.0  0.26865  0.21903  0.43135  1.0000
  N   N2        1.0  0.44362  0.20708000000000001  0.26184  1.0000
  N   N3        1.0  0.45435  0.01096  0.00184  1.0000
  N   N4        1.0  0.99071  0.02720000000000001  0.46799  1.0000
  N   N5        1.0  0.23120000000000002  0.56827  0.7810999999999999  1.0000
  N   N6        1.0  0.056800000000000024  0.73869  0.79332  1.0000
  N   N7        1.0  0.04564999999999996  0.99807  0.98907  1.0000
  N   N8        1.0  0.5093199999999999  0.5322000000000001  0.9730199999999999  1.0000
  N   N9        1.0  0.7313599999999998  0.78097  0.56866  1.0000
  N   N10       1.0  0.5563900000000002  0.7929200000000002  0.73816  1.0000
  N   N11       1.0  0.54566  0.9890400000000001  0.9981599999999999  1.0000
  N   N12       1.0  0.009299999999999985  0.9728  0.53201  1.0000
  N   N13       1.0  0.76881  0.43173000000000006  0.2189  1.0000
  N   N14       1.0  0.9432099999999995  0.26131  0.20667999999999997  1.0000
  N   N15       1.0  0.9543599999999998  0.0019200000000000005  0.01094  1.0000
  N   N16       1.0  0.49069  0.4678000000000001  0.02698  1.0000
  O   O1        1.0  0.5174599999999999  0.22353000000000006  0.51559  1.0000
  O   O2        1.0  0.62511  0.33452  0.4565  1.0000
  O   O3        1.0  0.78712  0.25741  0.36186  1.0000
  O   O4        1.0  0.91016  0.38606000000000007  0.46729  1.0000
  O   O5        1.0  0.9838299999999998  0.48987  0.7849399999999997  1.0000
  O   O6        1.0  0.87759  0.5420000000000001  0.6663599999999998  1.0000
  O   O7        1.0  0.71821  0.63809  0.73986  1.0000
  O   O8        1.0  0.58693  0.53309  0.61704  1.0000
  O   O9        1.0  0.4825499999999999  0.7764699999999999  0.4844099999999999  1.0000
  O   O10       1.0  0.37489999999999996  0.6654800000000002  0.5435  1.0000
  O   O11       1.0  0.21288999999999994  0.74259  0.63814  1.0000
  O   O12       1.0  0.08985000000000003  0.6139400000000003  0.53271  1.0000
  O   O13       1.0  0.016179999999999976  0.5101300000000001  0.21506  1.0000
  O   O14       1.0  0.12242  0.458  0.33364  1.0000
  O   O15       1.0  0.2818  0.36191000000000006  0.26014  1.0000
  O   O16       1.0  0.41308  0.46691  0.38296  1.0000
