data_image0
_chemical_formula_structural       Y4H48C84O24
_chemical_formula_sum              "Y4 H48 C84 O24"
_cell_length_a       15.42008
_cell_length_b       15.43239
_cell_length_c       18.20102
_cell_angle_alpha    75.53072
_cell_angle_beta     75.50863
_cell_angle_gamma    69.4925

_symmetry_space_group_name_H-M    'P 1'
_symmetry_Int_Tables_number       1

loop_
  _symmetry_equiv_pos_as_xyz
  'x,y,z'

loop_
  _atom_site_type_symbol
  _atom_site_label
  _atom_site_symmetry_multiplicity
  _atom_site_fract_x
  _atom_site_fract_y
  _atom_site_fract_z
  _atom_site_occupancy
  Y   Y1        1.0  0.47091999999999995  0.53174  0.89504  1.0000
  Y   Y2        1.0  0.4677799999999998  0.5298700000000002  0.60424  1.0000
  Y   Y3        1.0  0.5302099999999995  0.46691  0.10436  1.0000
  Y   Y4        1.0  0.5322999999999997  0.4700000000000002  0.39571  1.0000
  H   H1        1.0  0.04904999999999994  0.5289300000000001  0.25315  1.0000
  H   H2        1.0  0.94966  0.4498  0.27037  1.0000
  H   H3        1.0  0.7849699999999995  0.44224000000000013  0.3034  1.0000
  H   H4        1.0  0.73321  0.6059700000000002  0.08199  1.0000
  H   H5        1.0  0.89387  0.62224  0.05107  1.0000
  H   H6        1.0  0.44686  0.12047  0.89653  1.0000
  H   H7        1.0  0.46814  0.271  0.89692  1.0000
  H   H8        1.0  0.5911399999999998  0.14920000000000003  0.10027  1.0000
  H   H9        1.0  0.5726799999999997  0.9974700000000002  0.10065  1.0000
  H   H10       1.0  0.041950000000000015  0.54441  0.014590000000000002  1.0000
  H   H11       1.0  0.21006000000000005  0.5359  0.97958  1.0000
  H   H12       1.0  0.21949  0.5147  0.21737  1.0000
  H   H13       1.0  0.4710299999999998  0.9517500000000002  0.24653  1.0000
  H   H14       1.0  0.55002  0.05026000000000003  0.2299  1.0000
  H   H15       1.0  0.55768  0.21464000000000005  0.19705  1.0000
  H   H16       1.0  0.3940699999999998  0.26619  0.41872  1.0000
  H   H17       1.0  0.3778500000000001  0.10555  0.44956  1.0000
  H   H18       1.0  0.8789599999999996  0.55255  0.60359  1.0000
  H   H19       1.0  0.7285699999999997  0.53077  0.60322  1.0000
  H   H20       1.0  0.85072  0.40867  0.39946000000000004  1.0000
  H   H21       1.0  0.0024499999999999574  0.4274600000000001  0.39912  1.0000
  H   H22       1.0  0.45571999999999996  0.9571100000000001  0.48550999999999994  1.0000
  H   H23       1.0  0.4649000000000001  0.78888  0.51948  1.0000
  H   H24       1.0  0.4859399999999998  0.7811900000000003  0.28146  1.0000
  H   H25       1.0  0.9520699999999996  0.47103000000000006  0.74648  1.0000
  H   H26       1.0  0.050409999999999976  0.55029  0.72969  1.0000
  H   H27       1.0  0.21515999999999988  0.5577500000000002  0.69658  1.0000
  H   H28       1.0  0.2669999999999999  0.3939700000000002  0.91794  1.0000
  H   H29       1.0  0.10624999999999997  0.37775000000000014  0.9489799999999999  1.0000
  H   H30       1.0  0.5525299999999997  0.8795  0.10384000000000002  1.0000
  H   H31       1.0  0.53284  0.7283700000000002  0.10346  1.0000
  H   H32       1.0  0.4103599999999999  0.8487700000000001  0.89976  1.0000
  H   H33       1.0  0.42679999999999985  0.0014199999999999987  0.89971  1.0000
  H   H34       1.0  0.9575399999999994  0.4557800000000002  0.98531  1.0000
  H   H35       1.0  0.7894699999999998  0.46435  0.01973  1.0000
  H   H36       1.0  0.7815999999999996  0.48481  0.78166  1.0000
  H   H37       1.0  0.5290099999999998  0.048110000000000055  0.75348  1.0000
  H   H38       1.0  0.4499399999999998  0.94964  0.77011  1.0000
  H   H39       1.0  0.4423099999999999  0.7852  0.80289  1.0000
  H   H40       1.0  0.6059299999999997  0.7337300000000002  0.58126  1.0000
  H   H41       1.0  0.6221799999999998  0.8943700000000002  0.55043  1.0000
  H   H42       1.0  0.12078  0.44762  0.39626  1.0000
  H   H43       1.0  0.27131999999999995  0.46895  0.39664  1.0000
  H   H44       1.0  0.1494799999999998  0.5909600000000003  0.60049  1.0000
  H   H45       1.0  0.9974999999999999  0.5728  0.60064  1.0000
  H   H46       1.0  0.5442999999999998  0.04279999999999999  0.51449  1.0000
  H   H47       1.0  0.5350599999999999  0.21104000000000012  0.48054  1.0000
  H   H48       1.0  0.5140499999999998  0.2186900000000001  0.71859  1.0000
  C   C1        1.0  0.08433999999999996  0.5287400000000001  0.19337000000000001  1.0000
  C   C2        1.0  0.033009999999999894  0.53612  0.13674  1.0000
  C   C3        1.0  0.9343300000000001  0.53554  0.15783  1.0000
  C   C4        1.0  0.9018799999999998  0.48612000000000005  0.22969  1.0000
  C   C5        1.0  0.81084  0.4800700000000001  0.24806000000000003  1.0000
  C   C6        1.0  0.7506099999999998  0.5211800000000001  0.19406  1.0000
  C   C7        1.0  0.7810699999999998  0.5727600000000003  0.12301  1.0000
  C   C8        1.0  0.87136  0.58081  0.10567  1.0000
  C   C9        1.0  0.6569499999999998  0.5060200000000001  0.21121  1.0000
  C   C10       1.0  0.5065299999999999  0.045339999999999964  0.9994500000000001  1.0000
  C   C11       1.0  0.47878  0.12477999999999997  0.9419000000000001  1.0000
  C   C12       1.0  0.4903799999999998  0.21046  0.9415300000000001  1.0000
  C   C13       1.0  0.5294299999999997  0.22093  0.99953  1.0000
  C   C14       1.0  0.5590699999999997  0.14232  0.05613  1.0000
  C   C15       1.0  0.54822  0.0566  0.05584  1.0000
  C   C16       1.0  0.53529  0.31502000000000013  0.0014400000000000003  1.0000
  C   C17       1.0  0.07948000000000001  0.54007  0.05932  1.0000
  C   C18       1.0  0.1741999999999999  0.53452  0.03927  1.0000
  C   C19       1.0  0.22530999999999998  0.52368  0.09652000000000001  1.0000
  C   C20       1.0  0.17931  0.52182  0.17371  1.0000
  C   C21       1.0  0.6724399999999999  0.4881400000000001  0.92127  1.0000
  C   C22       1.0  0.47141  0.91598  0.3062  1.0000
  C   C23       1.0  0.46383999999999986  0.9668500000000002  0.36321  1.0000
  C   C24       1.0  0.46431999999999995  0.06549000000000002  0.34252  1.0000
  C   C25       1.0  0.51376  0.09799  0.27066  1.0000
  C   C26       1.0  0.5198799999999998  0.1889  0.25245  1.0000
  C   C27       1.0  0.47883  0.24904000000000012  0.30653  1.0000
  C   C28       1.0  0.42729999999999996  0.21847  0.37761  1.0000
  C   C29       1.0  0.4192  0.12823000000000004  0.39489  1.0000
  C   C30       1.0  0.49384999999999984  0.34272000000000014  0.28911  1.0000
  C   C31       1.0  0.9543399999999997  0.4932400000000002  0.50051  1.0000
  C   C32       1.0  0.87482  0.52074  0.55812  1.0000
  C   C33       1.0  0.7892299999999995  0.50878  0.55858  1.0000
  C   C34       1.0  0.77893  0.46958000000000016  0.50063  1.0000
  C   C35       1.0  0.8575599999999999  0.4405500000000001  0.44374  1.0000
  C   C36       1.0  0.94322  0.45172  0.44398  1.0000
  C   C37       1.0  0.6848999999999997  0.46314  0.49888000000000005  1.0000
  C   C38       1.0  0.4601899999999999  0.9199400000000002  0.44049  1.0000
  C   C39       1.0  0.46609999999999985  0.82522  0.45998  1.0000
  C   C40       1.0  0.4768899999999998  0.77459  0.40246  1.0000
  C   C41       1.0  0.4786799999999997  0.821  0.3254  1.0000
  C   C42       1.0  0.5102700000000001  0.32782  0.57832  1.0000
  C   C43       1.0  0.9163799999999996  0.47124000000000005  0.80617  1.0000
  C   C44       1.0  0.9671699999999995  0.4639700000000002  0.86312  1.0000
  C   C45       1.0  0.06582999999999994  0.4645500000000002  0.84223  1.0000
  C   C46       1.0  0.09821999999999999  0.5139800000000001  0.7703500000000001  1.0000
  C   C47       1.0  0.18926000000000004  0.51996  0.75193  1.0000
  C   C48       1.0  0.24949  0.47875000000000006  0.80591  1.0000
  C   C49       1.0  0.21908999999999987  0.42718  0.87698  1.0000
  C   C50       1.0  0.12876999999999986  0.4192000000000001  0.8943900000000001  1.0000
  C   C51       1.0  0.34319999999999995  0.49375  0.78869  1.0000
  C   C52       1.0  0.4931399999999999  0.9540100000000002  0.00076  1.0000
  C   C53       1.0  0.52118  0.8746900000000002  0.05833  1.0000
  C   C54       1.0  0.5103799999999997  0.7886600000000002  0.05872000000000001  1.0000
  C   C55       1.0  0.47181  0.77767  0.00064  1.0000
  C   C56       1.0  0.4419499999999998  0.8561500000000002  0.94397  1.0000
  C   C57       1.0  0.4518499999999998  0.9423000000000005  0.94433  1.0000
  C   C58       1.0  0.4661799999999999  0.6834000000000002  0.99877  1.0000
  C   C59       1.0  0.92023  0.46015999999999996  0.9404100000000001  1.0000
  C   C60       1.0  0.8254999999999998  0.46560000000000024  0.9600700000000001  1.0000
  C   C61       1.0  0.77496  0.47591000000000006  0.90253  1.0000
  C   C62       1.0  0.8214999999999999  0.4778300000000001  0.82547  1.0000
  C   C63       1.0  0.3279599999999999  0.5105  0.07717  1.0000
  C   C64       1.0  0.5285999999999997  0.0839  0.69382  1.0000
  C   C65       1.0  0.5361599999999997  0.03306  0.63679  1.0000
  C   C66       1.0  0.5356699999999999  0.93443  0.65748  1.0000
  C   C67       1.0  0.4862299999999997  0.9019100000000002  0.72934  1.0000
  C   C68       1.0  0.48011999999999977  0.8109900000000002  0.74752  1.0000
  C   C69       1.0  0.5211899999999997  0.75089  0.69342  1.0000
  C   C70       1.0  0.57272  0.78147  0.62236  1.0000
  C   C71       1.0  0.5808199999999998  0.8717000000000003  0.6051  1.0000
  C   C72       1.0  0.50623  0.6572  0.71077  1.0000
  C   C73       1.0  0.04551999999999991  0.5069400000000002  0.49932000000000004  1.0000
  C   C74       1.0  0.12504999999999997  0.47929000000000016  0.44176  1.0000
  C   C75       1.0  0.21077999999999988  0.49092  0.44138  1.0000
  C   C76       1.0  0.22121999999999997  0.5299200000000001  0.49941  1.0000
  C   C77       1.0  0.14257000000000003  0.5591  0.55623  1.0000
  C   C78       1.0  0.056769999999999946  0.5483300000000002  0.55588  1.0000
  C   C79       1.0  0.3151799999999999  0.53664  0.50112  1.0000
  C   C80       1.0  0.53981  0.07997999999999998  0.55952  1.0000
  C   C81       1.0  0.53387  0.1747  0.54005  1.0000
  C   C82       1.0  0.5230799999999998  0.2253100000000001  0.59758  1.0000
  C   C83       1.0  0.52131  0.17889  0.67464  1.0000
  C   C84       1.0  0.48972  0.67208  0.42173  1.0000
  O   O1        1.0  0.6283499999999999  0.5081300000000002  0.86549  1.0000
  O   O2        1.0  0.62433  0.4754700000000002  0.28062  1.0000
  O   O3        1.0  0.5246799999999998  0.3770000000000002  0.94037  1.0000
  O   O4        1.0  0.6152599999999999  0.52276  0.15443  1.0000
  O   O5        1.0  0.3679399999999999  0.5205500000000002  0.0062  1.0000
  O   O6        1.0  0.54837  0.32924000000000003  0.0636  1.0000
  O   O7        1.0  0.48882  0.37261  0.63377  1.0000
  O   O8        1.0  0.5242399999999998  0.37504000000000004  0.21957  1.0000
  O   O9        1.0  0.62299  0.47243  0.56022  1.0000
  O   O10       1.0  0.47707999999999984  0.3845900000000001  0.3458  1.0000
  O   O11       1.0  0.48075000000000007  0.63182  0.49271  1.0000
  O   O12       1.0  0.6705799999999998  0.4508200000000001  0.4364700000000001  1.0000
  O   O13       1.0  0.3729299999999999  0.4876000000000001  0.13277  1.0000
  O   O14       1.0  0.37571  0.52458  0.71933  1.0000
  O   O15       1.0  0.47520999999999985  0.62191  0.06029  1.0000
  O   O16       1.0  0.38506999999999997  0.47660000000000025  0.84541  1.0000
  O   O17       1.0  0.63132  0.48023000000000005  0.99206  1.0000
  O   O18       1.0  0.4548699999999996  0.66848  0.9362500000000001  1.0000
  O   O19       1.0  0.5112199999999998  0.62729  0.36628  1.0000
  O   O20       1.0  0.47592999999999985  0.6248000000000002  0.78031  1.0000
  O   O21       1.0  0.37710999999999983  0.52732  0.4398  1.0000
  O   O22       1.0  0.52295  0.61542  0.65402  1.0000
  O   O23       1.0  0.5191999999999998  0.36812  0.50734  1.0000
  O   O24       1.0  0.3293999999999998  0.54933  0.56343  1.0000
