data_image0
_chemical_formula_structural       Cu3H72C108N12O24
_chemical_formula_sum              "Cu3 H72 C108 N12 O24"
_cell_length_a       8.9873
_cell_length_b       8.98452
_cell_length_c       42.9604
_cell_angle_alpha    89.98247
_cell_angle_beta     89.97471
_cell_angle_gamma    119.92401

_space_group_name_H-M_alt    "P 1"
_space_group_IT_number       1

loop_
  _space_group_symop_operation_xyz
  'x, y, z'

loop_
  _atom_site_type_symbol
  _atom_site_label
  _atom_site_symmetry_multiplicity
  _atom_site_fract_x
  _atom_site_fract_y
  _atom_site_fract_z
  _atom_site_occupancy
  Cu  Cu1       1.0  0.7573  0.92059  0.33352  1.0000
  Cu  Cu2       1.0  0.83535  0.07259  0.66617  1.0000
  Cu  Cu3       1.0  0.9072500000000003  0.9988800000000001  0.9999  1.0000
  H   H1        1.0  0.39383000000000007  0.8440900000000001  0.47042999999999996  1.0000
  H   H2        1.0  0.26486000000000015  0.4044000000000001  0.41307  1.0000
  H   H3        1.0  0.4295500000000001  0.3176100000000001  0.44958  1.0000
  H   H4        1.0  0.57593  0.4977400000000001  0.4956900000000001  1.0000
  H   H5        1.0  0.90216  0.8887900000000002  0.60953  1.0000
  H   H6        1.0  0.79349  0.8176600000000003  0.55499  1.0000
  H   H7        1.0  0.4126500000000002  0.95674  0.5794  1.0000
  H   H8        1.0  0.53534  0.02054  0.63297  1.0000
  H   H9        1.0  0.59729  0.63301  0.38352  1.0000
  H   H10       1.0  0.7356200000000002  0.55008  0.4249299999999999  1.0000
  H   H11       1.0  0.20645  0.80366  0.37173  1.0000
  H   H12       1.0  0.05264000000000012  0.8824600000000002  0.33291  1.0000
  H   H13       1.0  0.9891300000000001  0.7170000000000002  0.13663  1.0000
  H   H14       1.0  0.34099  0.24270000000000005  0.16224  1.0000
  H   H15       1.0  0.5190300000000002  0.2754200000000001  0.11573  1.0000
  H   H16       1.0  0.4283800000000001  0.02435  0.07898  1.0000
  H   H17       1.0  0.9520100000000001  0.3370100000000001  0.99879  1.0000
  H   H18       1.0  0.02846000000000013  0.5684400000000002  0.03758  1.0000
  H   H19       1.0  0.2814900000000001  0.3513300000000001  0.09112  1.0000
  H   H20       1.0  0.19783  0.12899  0.04997  1.0000
  H   H21       1.0  0.9474000000000001  0.17771000000000006  0.27675  1.0000
  H   H22       1.0  0.01995  0.14239  0.2221  1.0000
  H   H23       1.0  0.88404  0.62307  0.24593000000000004  1.0000
  H   H24       1.0  0.8199100000000002  0.6795000000000002  0.29967  1.0000
  H   H25       1.0  0.68213  0.56017  0.19468000000000002  1.0000
  H   H26       1.0  0.32881  0.73642  0.17125  1.0000
  H   H27       1.0  0.15496  0.59025  0.21809000000000003  1.0000
  H   H28       1.0  0.24844000000000002  0.42838  0.25397  1.0000
  H   H29       1.0  0.85129  0.69914  0.03281  1.0000
  H   H30       1.0  0.78525  0.57511  0.0863  1.0000
  H   H31       1.0  0.6511200000000001  0.9589200000000002  0.11095000000000001  1.0000
  H   H32       1.0  0.7241  0.06918  0.05646  1.0000
  H   H33       1.0  0.47369000000000006  0.7625  0.28306  1.0000
  H   H34       1.0  0.3884299999999999  0.89969  0.24178000000000002  1.0000
  H   H35       1.0  0.64066  0.37071  0.29488  1.0000
  H   H36       1.0  0.7178900000000003  0.21684  0.33397  1.0000
  H   H37       1.0  0.55109  0.158  0.52953  1.0000
  H   H38       1.0  0.86072  0.5957000000000002  0.58729  1.0000
  H   H39       1.0  0.11259000000000012  0.6826900000000002  0.55088  1.0000
  H   H40       1.0  0.07958  0.50423  0.50454  1.0000
  H   H41       1.0  0.012639999999999998  0.11058  0.39031  1.0000
  H   H42       1.0  0.9756300000000001  0.18251000000000006  0.44485  1.0000
  H   H43       1.0  0.4563900000000001  0.04423000000000001  0.42075000000000007  1.0000
  H   H44       1.0  0.5141400000000002  0.97975  0.36715  1.0000
  H   H45       1.0  0.9636200000000001  0.3660100000000001  0.61649  1.0000
  H   H46       1.0  0.18485  0.44919  0.57503  1.0000
  H   H47       1.0  0.4035200000000001  0.19682000000000005  0.62829  1.0000
  H   H48       1.0  0.17065000000000002  0.11733000000000003  0.66705  1.0000
  H   H49       1.0  0.27569000000000005  0.28543  0.86212  1.0000
  H   H50       1.0  0.09432000000000011  0.7565200000000002  0.8376  1.0000
  H   H51       1.0  0.24284999999999995  0.72495  0.8836  1.0000
  H   H52       1.0  0.4082100000000001  0.9774200000000002  0.91968  1.0000
  H   H53       1.0  0.61534  0.65912  0.00054  1.0000
  H   H54       1.0  0.46293  0.43123  0.96114  1.0000
  H   H55       1.0  0.9353900000000004  0.6525600000000003  0.9082799999999999  1.0000
  H   H56       1.0  0.07158000000000006  0.87064  0.95013  1.0000
  H   H57       1.0  0.76585  0.8189400000000002  0.72275  1.0000
  H   H58       1.0  0.8734800000000003  0.85509  0.77738  1.0000
  H   H59       1.0  0.2555700000000001  0.37387  0.75327  1.0000
  H   H60       1.0  0.13388000000000003  0.3167  0.69965  1.0000
  H   H61       1.0  0.12361  0.44091  0.80513  1.0000
  H   H62       1.0  0.59344  0.25921  0.82862  1.0000
  H   H63       1.0  0.56419  0.407  0.78218  1.0000
  H   H64       1.0  0.8191600000000003  0.57236  0.74642  1.0000
  H   H65       1.0  0.15264  0.29689  0.96697  1.0000
  H   H66       1.0  0.21137  0.42203  0.9135199999999999  1.0000
  H   H67       1.0  0.69374  0.04115000000000001  0.8887  1.0000
  H   H68       1.0  0.6548600000000002  0.9299800000000003  0.94318  1.0000
  H   H69       1.0  0.70966  0.23690000000000005  0.71628  1.0000
  H   H70       1.0  0.48949000000000004  0.10031  0.75796  1.0000
  H   H71       1.0  0.26792999999999995  0.62905  0.70487  1.0000
  H   H72       1.0  0.4975  0.7821600000000001  0.66553  1.0000
  C   C1        1.0  0.49627  0.68174  0.48530000000000006  1.0000
  C   C2        1.0  0.4048100000000001  0.7315800000000002  0.46567000000000003  1.0000
  C   C3        1.0  0.32437  0.62912  0.43983  1.0000
  C   C4        1.0  0.33181000000000005  0.48111  0.43333  1.0000
  C   C5        1.0  0.42347000000000007  0.4340600000000001  0.4535  1.0000
  C   C6        1.0  0.5069000000000002  0.5344200000000002  0.47951000000000005  1.0000
  C   C7        1.0  0.79317  0.90113  0.60198  1.0000
  C   C8        1.0  0.73389  0.8637500000000002  0.57149  1.0000
  C   C9        1.0  0.59174  0.8799200000000001  0.5627  1.0000
  C   C10       1.0  0.5205000000000001  0.9392700000000003  0.58536  1.0000
  C   C11       1.0  0.5879600000000003  0.9743500000000003  0.61507  1.0000
  C   C12       1.0  0.5044500000000003  0.8293200000000002  0.53231  1.0000
  C   C13       1.0  0.73175  0.66829  0.38159999999999994  1.0000
  C   C14       1.0  0.8087700000000002  0.6223800000000003  0.40468000000000004  1.0000
  C   C15       1.0  0.9832100000000001  0.66978  0.40171999999999997  1.0000
  C   C16       1.0  0.07215000000000012  0.7649500000000002  0.37518000000000007  1.0000
  C   C17       1.0  0.98648  0.8073000000000002  0.3534  1.0000
  C   C18       1.0  0.06432000000000014  0.6185400000000002  0.42569  1.0000
  C   C19       1.0  0.20379000000000014  0.8615300000000002  0.10586000000000001  1.0000
  C   C20       1.0  0.10223000000000008  0.83996  0.13187  1.0000
  C   C21       1.0  0.15431999999999998  0.98084  0.1517  1.0000
  C   C22       1.0  0.30260000000000004  0.13756  0.14589  1.0000
  C   C23       1.0  0.40178  0.154  0.11969  1.0000
  C   C24       1.0  0.35258  0.015830000000000007  0.09934  1.0000
  C   C25       1.0  0.025609999999999997  0.34491  0.01943  1.0000
  C   C26       1.0  0.06717000000000004  0.4728600000000001  0.04117  1.0000
  C   C27       1.0  0.1622  0.47936  0.06773  1.0000
  C   C28       1.0  0.20917  0.35201  0.07086  1.0000
  C   C29       1.0  0.16306  0.22858  0.0479  1.0000
  C   C30       1.0  0.21492000000000008  0.61297  0.09148  1.0000
  C   C31       1.0  0.9362600000000001  0.05695  0.26911  1.0000
  C   C32       1.0  0.97446  0.03648  0.23854  1.0000
  C   C33       1.0  0.96003  0.87919  0.2296  1.0000
  C   C34       1.0  0.9009900000000001  0.74791  0.25209  1.0000
  C   C35       1.0  0.8653200000000001  0.7790000000000002  0.28189  1.0000
  C   C36       1.0  0.012190000000000025  0.84394  0.19916000000000003  1.0000
  C   C37       1.0  0.47026  0.48943  0.22626  1.0000
  C   C38       1.0  0.5694600000000001  0.56982  0.20006999999999997  1.0000
  C   C39       1.0  0.5158400000000003  0.6595400000000002  0.18079  1.0000
  C   C40       1.0  0.36823  0.66856  0.1872  1.0000
  C   C41       1.0  0.27147  0.58531  0.21359  1.0000
  C   C42       1.0  0.32227  0.4954600000000001  0.23343  1.0000
  C   C43       1.0  0.8054400000000003  0.75204  0.05072000000000001  1.0000
  C   C44       1.0  0.76908  0.6837300000000002  0.08035  1.0000
  C   C45       1.0  0.7105200000000003  0.7554400000000002  0.10303000000000001  1.0000
  C   C46       1.0  0.6962199999999998  0.89887  0.09435999999999999  1.0000
  C   C47       1.0  0.7347500000000001  0.9590400000000001  0.06393  1.0000
  C   C48       1.0  0.66003  0.6678200000000002  0.13339  1.0000
  C   C49       1.0  0.50751  0.89659  0.28503  1.0000
  C   C50       1.0  0.4608400000000001  0.97316  0.26198  1.0000
  C   C51       1.0  0.50775  0.14757  0.26488  1.0000
  C   C52       1.0  0.6025100000000001  0.23652000000000006  0.29144  1.0000
  C   C53       1.0  0.64434  0.15089  0.31334  1.0000
  C   C54       1.0  0.45563000000000003  0.22837000000000002  0.24095999999999998  1.0000
  C   C55       1.0  0.8157300000000001  0.3201600000000001  0.51472  1.0000
  C   C56       1.0  0.6743900000000002  0.2703000000000001  0.53434  1.0000
  C   C57       1.0  0.6961700000000001  0.37218  0.56027  1.0000
  C   C58       1.0  0.85135  0.51959  0.56693  1.0000
  C   C59       1.0  0.9901700000000001  0.56673  0.5468  1.0000
  C   C60       1.0  0.97354  0.4670900000000001  0.52066  1.0000
  C   C61       1.0  0.89142  0.09859  0.39786  1.0000
  C   C62       1.0  0.87009  0.13665  0.42837000000000003  1.0000
  C   C63       1.0  0.7123200000000001  0.12126000000000003  0.43724  1.0000
  C   C64       1.0  0.58149  0.061620000000000015  0.41468000000000005  1.0000
  C   C65       1.0  0.61338  0.02601  0.38494  1.0000
  C   C66       1.0  0.67612  0.17232000000000006  0.46769999999999995  1.0000
  C   C67       1.0  0.06294000000000002  0.3308  0.61837  1.0000
  C   C68       1.0  0.18593  0.37706  0.5953  1.0000
  C   C69       1.0  0.31343  0.33021  0.59829  1.0000
  C   C70       1.0  0.30756000000000006  0.23509000000000005  0.62481  1.0000
  C   C71       1.0  0.17939  0.19237  0.64655  1.0000
  C   C72       1.0  0.44607  0.3820900000000001  0.57435  1.0000
  C   C73       1.0  0.34709000000000007  0.14131  0.89281  1.0000
  C   C74       1.0  0.26552  0.16228  0.86698  1.0000
  C   C75       1.0  0.17358  0.02011  0.84759  1.0000
  C   C76       1.0  0.16377000000000008  0.8628300000000002  0.85358  1.0000
  C   C77       1.0  0.24845  0.84705  0.87951  1.0000
  C   C78       1.0  0.34045000000000003  0.98636  0.89945  1.0000
  C   C79       1.0  0.6822800000000002  0.65281  0.9799300000000001  1.0000
  C   C80       1.0  0.59724  0.52685  0.9578200000000001  1.0000
  C   C81       1.0  0.68699  0.52277  0.93121  1.0000
  C   C82       1.0  0.8612899999999999  0.65008  0.9285100000000001  1.0000
  C   C83       1.0  0.9372800000000001  0.77115  0.95188  1.0000
  C   C84       1.0  0.60675  0.39167  0.90699  1.0000
  C   C85       1.0  0.8749600000000002  0.93967  0.73038  1.0000
  C   C86       1.0  0.9336900000000004  0.9607400000000003  0.76091  1.0000
  C   C87       1.0  0.07643  0.11796  0.7697400000000001  1.0000
  C   C88       1.0  0.14784000000000003  0.24902000000000005  0.7472000000000001  1.0000
  C   C89       1.0  0.08078000000000003  0.2176  0.71747  1.0000
  C   C90       1.0  0.16579000000000002  0.15356000000000006  0.7999300000000001  1.0000
  C   C91       1.0  0.9812100000000001  0.5119400000000002  0.77387  1.0000
  C   C92       1.0  0.0009299999999999957  0.43078  0.79988  1.0000
  C   C93       1.0  0.8577300000000002  0.3392  0.8191  1.0000
  C   C94       1.0  0.7005  0.32873000000000013  0.8127500000000001  1.0000
  C   C95       1.0  0.6861300000000001  0.41295  0.78658  1.0000
  C   C96       1.0  0.8265699999999999  0.50483  0.76683  1.0000
  C   C97       1.0  0.05406000000000003  0.24488000000000004  0.94905  1.0000
  C   C98       1.0  0.08650000000000006  0.3138100000000001  0.91945  1.0000
  C   C99       1.0  0.95638  0.24316000000000004  0.8967700000000001  1.0000
  C   C100      1.0  0.7984400000000003  0.10024  0.90536  1.0000
  C   C101      1.0  0.7761100000000001  0.03954000000000001  0.93577  1.0000
  C   C102      1.0  0.9935900000000001  0.3308200000000001  0.86644  1.0000
  C   C103      1.0  0.60944  0.10287  0.71443  1.0000
  C   C104      1.0  0.48747  0.026750000000000006  0.73768  1.0000
  C   C105      1.0  0.35992  0.85258  0.73488  1.0000
  C   C106      1.0  0.36408  0.76315  0.70825  1.0000
  C   C107      1.0  0.4906200000000001  0.8483900000000002  0.6862  1.0000
  C   C108      1.0  0.22845  0.77274  0.75906  1.0000
  N   N1        1.0  0.7208700000000002  0.9527200000000002  0.62424  1.0000
  N   N2        1.0  0.81696  0.76008  0.35577  1.0000
  N   N3        1.0  0.07250000000000002  0.22236000000000006  0.02195  1.0000
  N   N4        1.0  0.8854600000000001  0.93262  0.29124  1.0000
  N   N5        1.0  0.7857800000000001  0.8863000000000002  0.04165  1.0000
  N   N6        1.0  0.59814  0.98161  0.31094  1.0000
  N   N7        1.0  0.7674600000000003  0.047070000000000015  0.37567  1.0000
  N   N8        1.0  0.05676  0.23916  0.64419  1.0000
  N   N9        1.0  0.85154  0.77552  0.97779  1.0000
  N   N10       1.0  0.94798  0.06367  0.70818  1.0000
  N   N11       1.0  0.89971  0.11134000000000002  0.95806  1.0000
  N   N12       1.0  0.61387  0.017370000000000007  0.68849  1.0000
  O   O1        1.0  0.58604  0.7771  0.51157  1.0000
  O   O2        1.0  0.3715600000000001  0.83088  0.52653  1.0000
  O   O3        1.0  0.23714000000000002  0.67973  0.41891  1.0000
  O   O4        1.0  0.99278  0.53246  0.44871000000000005  1.0000
  O   O5        1.0  0.15277000000000004  0.72403  0.08486  1.0000
  O   O6        1.0  0.30345000000000005  0.62949  0.11422  1.0000
  O   O7        1.0  0.01464000000000008  0.7113300000000002  0.19358000000000003  1.0000
  O   O8        1.0  0.06014000000000008  0.9761400000000002  0.1782  1.0000
  O   O9        1.0  0.60797  0.74902  0.15424  1.0000
  O   O10       1.0  0.66197  0.53489  0.13913  1.0000
  O   O11       1.0  0.5237400000000001  0.4031800000000001  0.24681000000000003  1.0000
  O   O12       1.0  0.36351  0.15548000000000006  0.21864000000000003  1.0000
  O   O13       1.0  0.8101100000000002  0.22492000000000006  0.48836999999999997  1.0000
  O   O14       1.0  0.54164  0.17060000000000006  0.47351  1.0000
  O   O15       1.0  0.55836  0.3217  0.58116  1.0000
  O   O16       1.0  0.46044  0.4680800000000001  0.55133  1.0000
  O   O17       1.0  0.4342300000000001  0.279  0.9137399999999999  1.0000
  O   O18       1.0  0.6785  0.3783100000000001  0.88389  1.0000
  O   O19       1.0  0.3027700000000001  0.2847400000000001  0.80492  1.0000
  O   O20       1.0  0.08208  0.02405  0.82136  1.0000
  O   O21       1.0  0.86083  0.24912  0.8455500000000001  1.0000
  O   O22       1.0  0.1279800000000001  0.46400000000000013  0.86079  1.0000
  O   O23       1.0  0.11995999999999996  0.5986  0.75315  1.0000
  O   O24       1.0  0.21205999999999994  0.84645  0.7815699999999999  1.0000
