data_image0
_chemical_formula_structural       Sr10H28C72O50
_chemical_formula_sum              "Sr10 H28 C72 O50"
_cell_length_a       10.16155
_cell_length_b       10.16166
_cell_length_c       26.19763
_cell_angle_alpha    90.0
_cell_angle_beta     90.0
_cell_angle_gamma    117.90981000000001

_space_group_name_H-M_alt    "P 1"
_space_group_IT_number       1

loop_
  _space_group_symop_operation_xyz
  'x, y, z'

loop_
  _atom_site_type_symbol
  _atom_site_label
  _atom_site_symmetry_multiplicity
  _atom_site_fract_x
  _atom_site_fract_y
  _atom_site_fract_z
  _atom_site_occupancy
  Sr  Sr1       1.0  0.50622  0.47145  0.9068599999999998  1.0000
  Sr  Sr2       1.0  0.1297  0.28941  0.00876  1.0000
  Sr  Sr3       1.0  0.4937799999999999  0.52855  0.40686  1.0000
  Sr  Sr4       1.0  0.8702899999999999  0.71058  0.50877  1.0000
  Sr  Sr5       1.0  0.47145  0.50622  0.59314  1.0000
  Sr  Sr6       1.0  0.28941  0.12971  0.4912399999999999  1.0000
  Sr  Sr7       1.0  0.5285499999999999  0.49378  0.09313999999999997  1.0000
  Sr  Sr8       1.0  0.71058  0.87029  0.9912399999999999  1.0000
  Sr  Sr9       1.0  0.55532  0.55532  0.7499999999999998  1.0000
  Sr  Sr10      1.0  0.4446799999999999  0.44468  0.24999999999999994  1.0000
  H   H1        1.0  0.043719999999999926  0.53709  0.9382799999999998  1.0000
  H   H2        1.0  0.03535999999999992  0.9554999999999999  0.9294099999999998  1.0000
  H   H3        1.0  0.45543  0.9477800000000001  0.9267799999999998  1.0000
  H   H4        1.0  0.70157  0.28311  0.87182  1.0000
  H   H5        1.0  0.11703000000000002  0.26531000000000005  0.8743299999999998  1.0000
  H   H6        1.0  0.07005  0.5863  0.77868  1.0000
  H   H7        1.0  0.66623  0.46891  0.9868599999999997  1.0000
  H   H8        1.0  0.95627  0.46291  0.4382799999999999  1.0000
  H   H9        1.0  0.96464  0.0445  0.42941  1.0000
  H   H10       1.0  0.54457  0.05222  0.4267799999999999  1.0000
  H   H11       1.0  0.29843  0.71689  0.37180999999999986  1.0000
  H   H12       1.0  0.88297  0.73469  0.37433  1.0000
  H   H13       1.0  0.92995  0.41369  0.27868  1.0000
  H   H14       1.0  0.33376  0.53109  0.48685999999999996  1.0000
  H   H15       1.0  0.53709  0.04373  0.56172  1.0000
  H   H16       1.0  0.9554999999999999  0.03536  0.5706  1.0000
  H   H17       1.0  0.94778  0.45543  0.57322  1.0000
  H   H18       1.0  0.28311  0.7015700000000001  0.6281899999999999  1.0000
  H   H19       1.0  0.26531  0.11703  0.6256699999999998  1.0000
  H   H20       1.0  0.5863  0.07005  0.7213299999999999  1.0000
  H   H21       1.0  0.46890999999999994  0.66624  0.51315  1.0000
  H   H22       1.0  0.4628999999999999  0.95627  0.06171999999999999  1.0000
  H   H23       1.0  0.04449999999999994  0.9646399999999999  0.07059  1.0000
  H   H24       1.0  0.05221000000000002  0.54456  0.07321999999999998  1.0000
  H   H25       1.0  0.7168899999999999  0.29843  0.12819  1.0000
  H   H26       1.0  0.7346899999999998  0.88297  0.12567  1.0000
  H   H27       1.0  0.41369000000000006  0.9299500000000002  0.22133  1.0000
  H   H28       1.0  0.53108  0.33376  0.01315  1.0000
  C   C1        1.0  0.25926999999999994  0.73161  0.9338999999999997  1.0000
  C   C2        1.0  0.10401999999999997  0.65762  0.9354999999999998  1.0000
  C   C3        1.0  0.022460000000000004  0.73673  0.93379  1.0000
  C   C4        1.0  0.09699  0.89201  0.9305299999999997  1.0000
  C   C5        1.0  0.2529700000000001  0.96709  0.9287499999999999  1.0000
  C   C6        1.0  0.3345  0.88723  0.9294799999999998  1.0000
  C   C7        1.0  0.34093999999999997  0.64261  0.9388299999999998  1.0000
  C   C8        1.0  0.8577999999999998  0.65  0.93914  1.0000
  C   C9        1.0  0.33269999999999994  0.13298  0.9270199999999997  1.0000
  C   C10       1.0  0.87862  0.44708000000000003  0.82469  1.0000
  C   C11       1.0  0.8165499999999999  0.32717  0.8592299999999998  1.0000
  C   C12       1.0  0.90318  0.263  0.8776299999999999  1.0000
  C   C13       1.0  0.04995  0.31549  0.8603099999999998  1.0000
  C   C14       1.0  0.10979000000000003  0.43103  0.8241199999999997  1.0000
  C   C15       1.0  0.023980000000000046  0.4967500000000001  0.8065999999999998  1.0000
  C   C16       1.0  0.79123  0.52234  0.8067  1.0000
  C   C17       1.0  0.84086  0.14074  0.9164799999999997  1.0000
  C   C18       1.0  0.26284  0.48249999999999993  0.803  1.0000
  C   C19       1.0  0.74073  0.26839  0.4339  1.0000
  C   C20       1.0  0.89598  0.34238  0.4355  1.0000
  C   C21       1.0  0.9775300000000001  0.26327000000000006  0.43378999999999995  1.0000
  C   C22       1.0  0.9030099999999999  0.10799  0.43053  1.0000
  C   C23       1.0  0.7470299999999997  0.03291  0.42875  1.0000
  C   C24       1.0  0.6655  0.11277  0.42948  1.0000
  C   C25       1.0  0.6590599999999999  0.35739000000000004  0.4388299999999999  1.0000
  C   C26       1.0  0.14219999999999997  0.35000000000000003  0.43914  1.0000
  C   C27       1.0  0.66729  0.86702  0.4270199999999999  1.0000
  C   C28       1.0  0.12137000000000005  0.55291  0.32469  1.0000
  C   C29       1.0  0.18345000000000006  0.67282  0.3592299999999999  1.0000
  C   C30       1.0  0.09681999999999992  0.737  0.37763  1.0000
  C   C31       1.0  0.9500499999999998  0.68451  0.3603099999999999  1.0000
  C   C32       1.0  0.89021  0.56896  0.32411999999999996  1.0000
  C   C33       1.0  0.97602  0.50325  0.30659999999999993  1.0000
  C   C34       1.0  0.20876999999999998  0.47766  0.30669999999999986  1.0000
  C   C35       1.0  0.1591299999999999  0.85926  0.41647  1.0000
  C   C36       1.0  0.73716  0.5175  0.303  1.0000
  C   C37       1.0  0.7316099999999999  0.25928  0.5661  1.0000
  C   C38       1.0  0.65761  0.10401  0.5644999999999999  1.0000
  C   C39       1.0  0.73673  0.02247  0.56621  1.0000
  C   C40       1.0  0.89201  0.09698  0.5694699999999999  1.0000
  C   C41       1.0  0.9671  0.25298  0.57125  1.0000
  C   C42       1.0  0.88722  0.33449  0.5705199999999999  1.0000
  C   C43       1.0  0.6426  0.34093  0.5611699999999998  1.0000
  C   C44       1.0  0.64999  0.8578  0.5608599999999999  1.0000
  C   C45       1.0  0.13298  0.33270000000000005  0.57298  1.0000
  C   C46       1.0  0.44708  0.87862  0.67531  1.0000
  C   C47       1.0  0.32718  0.81655  0.64077  1.0000
  C   C48       1.0  0.26299999999999996  0.9031799999999999  0.6223699999999998  1.0000
  C   C49       1.0  0.31549  0.04995000000000001  0.6396899999999999  1.0000
  C   C50       1.0  0.43103  0.10979  0.6758799999999998  1.0000
  C   C51       1.0  0.4967499999999999  0.02398  0.6933999999999998  1.0000
  C   C52       1.0  0.52234  0.79123  0.6933  1.0000
  C   C53       1.0  0.14074999999999996  0.84087  0.5835299999999999  1.0000
  C   C54       1.0  0.48249999999999993  0.26284  0.6970099999999999  1.0000
  C   C55       1.0  0.26837999999999995  0.74072  0.0661  1.0000
  C   C56       1.0  0.34239  0.8959899999999998  0.06449999999999999  1.0000
  C   C57       1.0  0.26326  0.97753  0.06621  1.0000
  C   C58       1.0  0.10799000000000003  0.90302  0.06947  1.0000
  C   C59       1.0  0.03290000000000001  0.74702  0.07125  1.0000
  C   C60       1.0  0.11276999999999998  0.6655  0.07052  1.0000
  C   C61       1.0  0.3574  0.65907  0.061169999999999995  1.0000
  C   C62       1.0  0.35000999999999993  0.1422  0.060859999999999984  1.0000
  C   C63       1.0  0.86702  0.6673  0.07298  1.0000
  C   C64       1.0  0.5529100000000001  0.12138  0.17530999999999994  1.0000
  C   C65       1.0  0.67282  0.18344  0.14077  1.0000
  C   C66       1.0  0.737  0.09682  0.12236999999999999  1.0000
  C   C67       1.0  0.6844999999999998  0.9500499999999998  0.13969  1.0000
  C   C68       1.0  0.56896  0.89021  0.17587999999999995  1.0000
  C   C69       1.0  0.50325  0.97602  0.19339999999999996  1.0000
  C   C70       1.0  0.47766  0.20877  0.1933  1.0000
  C   C71       1.0  0.85925  0.15913  0.08352999999999997  1.0000
  C   C72       1.0  0.5175  0.7371600000000001  0.19701  1.0000
  O   O1        1.0  0.26714  0.50148  0.94474  1.0000
  O   O2        1.0  0.48319999999999996  0.70881  0.93644  1.0000
  O   O3        1.0  0.46282  0.19955  0.9084299999999997  1.0000
  O   O4        1.0  0.26774999999999993  0.20645  0.9442999999999998  1.0000
  O   O5        1.0  0.7757799999999998  0.71446  0.9342299999999999  1.0000
  O   O6        1.0  0.80403  0.51223  0.94939  1.0000
  O   O7        1.0  0.8260499999999998  0.59362  0.76491  1.0000
  O   O8        1.0  0.68063  0.51243  0.8334499999999998  1.0000
  O   O9        1.0  0.70202  0.06156  0.9218999999999998  1.0000
  O   O10       1.0  0.9336999999999999  0.11940999999999999  0.9446799999999997  1.0000
  O   O11       1.0  0.29323999999999995  0.54488  0.75972  1.0000
  O   O12       1.0  0.35960999999999993  0.46011  0.8282699999999998  1.0000
  O   O13       1.0  0.73285  0.49852  0.44474  1.0000
  O   O14       1.0  0.5167999999999999  0.29119  0.43643999999999994  1.0000
  O   O15       1.0  0.5371799999999999  0.80045  0.40843  1.0000
  O   O16       1.0  0.73224  0.7935500000000001  0.4442999999999999  1.0000
  O   O17       1.0  0.22422000000000003  0.28554000000000007  0.4342199999999999  1.0000
  O   O18       1.0  0.19597  0.48777  0.4493899999999999  1.0000
  O   O19       1.0  0.17394  0.40638  0.26491  1.0000
  O   O20       1.0  0.31936999999999993  0.48756999999999995  0.33344  1.0000
  O   O21       1.0  0.29797000000000007  0.9384400000000002  0.42189999999999994  1.0000
  O   O22       1.0  0.06628999999999993  0.88059  0.44468  1.0000
  O   O23       1.0  0.7067599999999999  0.45512  0.25972  1.0000
  O   O24       1.0  0.6403899999999999  0.53989  0.32827  1.0000
  O   O25       1.0  0.50148  0.26715  0.5552599999999999  1.0000
  O   O26       1.0  0.7088099999999999  0.48321000000000003  0.56356  1.0000
  O   O27       1.0  0.19955  0.46282  0.59157  1.0000
  O   O28       1.0  0.20644999999999997  0.26776  0.5557  1.0000
  O   O29       1.0  0.71446  0.77578  0.56578  1.0000
  O   O30       1.0  0.51223  0.80403  0.55061  1.0000
  O   O31       1.0  0.59362  0.82606  0.73509  1.0000
  O   O32       1.0  0.51243  0.68063  0.6665599999999998  1.0000
  O   O33       1.0  0.06155999999999999  0.70202  0.5781  1.0000
  O   O34       1.0  0.11940999999999993  0.9336999999999999  0.5553199999999999  1.0000
  O   O35       1.0  0.54488  0.29324  0.74028  1.0000
  O   O36       1.0  0.4600999999999999  0.35961  0.6717299999999998  1.0000
  O   O37       1.0  0.49852  0.73285  0.05525999999999998  1.0000
  O   O38       1.0  0.29118  0.51679  0.06356  1.0000
  O   O39       1.0  0.8004399999999999  0.53718  0.09157  1.0000
  O   O40       1.0  0.79355  0.73224  0.055699999999999986  1.0000
  O   O41       1.0  0.28554000000000007  0.22422000000000003  0.06577999999999999  1.0000
  O   O42       1.0  0.4877600000000001  0.19597  0.05061  1.0000
  O   O43       1.0  0.40638  0.17394  0.23509  1.0000
  O   O44       1.0  0.4875699999999999  0.31937  0.16655999999999999  1.0000
  O   O45       1.0  0.93844  0.29798  0.0781  1.0000
  O   O46       1.0  0.8805899999999998  0.06629  0.05531999999999999  1.0000
  O   O47       1.0  0.45512  0.70676  0.24028  1.0000
  O   O48       1.0  0.53989  0.64039  0.17173  1.0000
  O   O49       1.0  0.56222  0.43777  0.0  1.0000
  O   O50       1.0  0.43777  0.56223  0.4999999999999999  1.0000
