data_image0
_chemical_formula_structural       Ba2Cu12H54C48N12O42
_chemical_formula_sum              "Ba2 Cu12 H54 C48 N12 O42"
_cell_length_a       13.95591
_cell_length_b       17.91758
_cell_length_c       17.84211
_cell_angle_alpha    120.18543
_cell_angle_beta     90.0
_cell_angle_gamma    90.0

_space_group_name_H-M_alt    "P 1"
_space_group_IT_number       1

loop_
  _space_group_symop_operation_xyz
  'x, y, z'

loop_
  _atom_site_type_symbol
  _atom_site_label
  _atom_site_symmetry_multiplicity
  _atom_site_fract_x
  _atom_site_fract_y
  _atom_site_fract_z
  _atom_site_occupancy
  Ba  Ba1       1.0  0.48702  0.3326699999999999  0.6653099999999997  1.0000
  Ba  Ba2       1.0  0.98702  0.66733  0.3346899999999999  1.0000
  Cu  Cu1       1.0  0.36105  0.12656999999999993  0.5578899999999999  1.0000
  Cu  Cu2       1.0  0.61307  0.12586999999999987  0.5543799999999998  1.0000
  Cu  Cu3       1.0  0.3591  0.4270599999999999  0.8710499999999998  1.0000
  Cu  Cu4       1.0  0.61555  0.42365999999999987  0.8704699999999997  1.0000
  Cu  Cu5       1.0  0.35876  0.44313  0.57172  1.0000
  Cu  Cu6       1.0  0.61575  0.44737  0.57551  1.0000
  Cu  Cu7       1.0  0.86105  0.87343  0.44211  1.0000
  Cu  Cu8       1.0  0.11307  0.87413  0.4456199999999999  1.0000
  Cu  Cu9       1.0  0.85909  0.57293  0.12895  1.0000
  Cu  Cu10      1.0  0.11555  0.57634  0.12953  1.0000
  Cu  Cu11      1.0  0.85875  0.55686  0.42828  1.0000
  Cu  Cu12      1.0  0.11575  0.55263  0.42449  1.0000
  H   H1        1.0  0.48483  0.13527999999999993  0.4667999999999999  1.0000
  H   H2        1.0  0.6470100000000001  0.82216  0.30903  1.0000
  H   H3        1.0  0.67513  0.94346  0.28027  1.0000
  H   H4        1.0  0.70644  0.84199  0.18717999999999996  1.0000
  H   H5        1.0  0.79778  0.91304  0.25647  1.0000
  H   H6        1.0  0.77912  0.13405999999999998  0.72025  1.0000
  H   H7        1.0  0.91376  0.15170000000000006  0.63783  1.0000
  H   H8        1.0  0.8836400000000001  0.25301  0.73123  1.0000
  H   H9        1.0  0.84528  0.22873  0.62548  1.0000
  H   H10       1.0  0.48553  0.32701  0.85799  1.0000
  H   H11       1.0  0.6473  0.48741999999999996  0.17751999999999996  1.0000
  H   H12       1.0  0.67447  0.33688  0.05518  1.0000
  H   H13       1.0  0.70557  0.3462  0.15705  1.0000
  H   H14       1.0  0.79713  0.34315  0.08566  1.0000
  H   H15       1.0  0.78025  0.58538  0.8666599999999999  1.0000
  H   H16       1.0  0.91457  0.48591  0.84953  1.0000
  H   H17       1.0  0.88594  0.47707  0.74756  1.0000
  H   H18       1.0  0.84666  0.3958999999999999  0.77107  1.0000
  H   H19       1.0  0.48438  0.53168  0.67245  1.0000
  H   H20       1.0  0.64514  0.68958  0.51377  1.0000
  H   H21       1.0  0.6744  0.71997  0.66515  1.0000
  H   H22       1.0  0.70564  0.8115999999999998  0.6550199999999998  1.0000
  H   H23       1.0  0.79695  0.7428399999999998  0.6570799999999998  1.0000
  H   H24       1.0  0.78006  0.28196999999999994  0.4130599999999999  1.0000
  H   H25       1.0  0.91554  0.36245  0.51372  1.0000
  H   H26       1.0  0.88416  0.2696199999999999  0.5213699999999998  1.0000
  H   H27       1.0  0.84659  0.37501  0.60347  1.0000
  H   H28       1.0  0.98483  0.8647199999999999  0.5331999999999998  1.0000
  H   H29       1.0  0.14701  0.17784  0.69097  1.0000
  H   H30       1.0  0.17513  0.05653000000000001  0.71973  1.0000
  H   H31       1.0  0.20644  0.15799999999999997  0.81281  1.0000
  H   H32       1.0  0.29779  0.08694999999999992  0.74353  1.0000
  H   H33       1.0  0.27913  0.86594  0.27975  1.0000
  H   H34       1.0  0.41377  0.84829  0.36217  1.0000
  H   H35       1.0  0.38365  0.74699  0.26877  1.0000
  H   H36       1.0  0.34528  0.7712699999999999  0.37452  1.0000
  H   H37       1.0  0.98552  0.67299  0.14200999999999994  1.0000
  H   H38       1.0  0.1473  0.51257  0.8224799999999998  1.0000
  H   H39       1.0  0.17447  0.6631099999999999  0.94482  1.0000
  H   H40       1.0  0.20557  0.6537999999999999  0.8429499999999998  1.0000
  H   H41       1.0  0.29713  0.6568499999999999  0.9143399999999998  1.0000
  H   H42       1.0  0.28025  0.4146099999999999  0.13334  1.0000
  H   H43       1.0  0.41458  0.51409  0.15046999999999996  1.0000
  H   H44       1.0  0.38594  0.52293  0.25244  1.0000
  H   H45       1.0  0.34666  0.6041  0.22892999999999994  1.0000
  H   H46       1.0  0.98438  0.4683099999999999  0.3275499999999999  1.0000
  H   H47       1.0  0.14514  0.31041999999999986  0.4862299999999999  1.0000
  H   H48       1.0  0.17440000000000003  0.28003  0.33485  1.0000
  H   H49       1.0  0.20564  0.18839  0.34498  1.0000
  H   H50       1.0  0.29696  0.25716  0.34292  1.0000
  H   H51       1.0  0.28006  0.71803  0.58694  1.0000
  H   H52       1.0  0.41555  0.63755  0.48628  1.0000
  H   H53       1.0  0.38416000000000006  0.7303699999999999  0.4786299999999999  1.0000
  H   H54       1.0  0.34659  0.6249899999999999  0.3965299999999999  1.0000
  C   C1        1.0  0.78802  0.76707  0.27306  1.0000
  C   C2        1.0  0.72025  0.84569  0.3104  1.0000
  C   C3        1.0  0.72505  0.88884  0.25461  1.0000
  C   C4        1.0  0.7658  0.023150000000000007  0.54034  1.0000
  C   C5        1.0  0.70944  0.97645  0.45577  1.0000
  C   C6        1.0  0.68715  0.23215  0.72312  1.0000
  C   C7        1.0  0.76535  0.16213  0.67871  1.0000
  C   C8        1.0  0.85842  0.20177  0.66782  1.0000
  C   C9        1.0  0.78802  0.50636  0.23258999999999994  1.0000
  C   C10       1.0  0.72049  0.46506999999999993  0.15368  1.0000
  C   C11       1.0  0.7245  0.3660499999999999  0.10995  1.0000
  C   C12       1.0  0.76538  0.51744  0.97685  1.0000
  C   C13       1.0  0.70956  0.47884  0.022989999999999993  1.0000
  C   C14       1.0  0.69027  0.48935999999999996  0.76656  1.0000
  C   C15       1.0  0.7666  0.5157399999999998  0.8378799999999997  1.0000
  C   C16       1.0  0.85995  0.4652199999999999  0.7986699999999999  1.0000
  C   C17       1.0  0.78547  0.72608  0.4939399999999999  1.0000
  C   C18       1.0  0.71868  0.68871  0.53571  1.0000
  C   C19       1.0  0.72401  0.74462  0.6350499999999998  1.0000
  C   C20       1.0  0.76614  0.46042999999999995  0.48326999999999987  1.0000
  C   C21       1.0  0.70951  0.54427  0.52131  1.0000
  C   C22       1.0  0.68941  0.2783  0.50918  1.0000
  C   C23       1.0  0.76667  0.32260999999999995  0.4831399999999999  1.0000
  C   C24       1.0  0.85972  0.333  0.53379  1.0000
  C   C25       1.0  0.28802  0.23292999999999997  0.72694  1.0000
  C   C26       1.0  0.22025  0.15430999999999984  0.6895999999999998  1.0000
  C   C27       1.0  0.22505  0.11115999999999993  0.7453899999999999  1.0000
  C   C28       1.0  0.2658  0.97684  0.4596599999999999  1.0000
  C   C29       1.0  0.20944000000000002  0.02355  0.54423  1.0000
  C   C30       1.0  0.18715  0.76784  0.27688  1.0000
  C   C31       1.0  0.26535  0.8378699999999998  0.3212899999999999  1.0000
  C   C32       1.0  0.35842  0.79822  0.33218  1.0000
  C   C33       1.0  0.28803  0.49363999999999997  0.76741  1.0000
  C   C34       1.0  0.2205  0.5349299999999999  0.8463199999999999  1.0000
  C   C35       1.0  0.2245  0.6339499999999998  0.8900499999999998  1.0000
  C   C36       1.0  0.26539  0.48256  0.02315  1.0000
  C   C37       1.0  0.20956  0.52116  0.97701  1.0000
  C   C38       1.0  0.19027  0.51063  0.23343999999999995  1.0000
  C   C39       1.0  0.2666  0.48425  0.16211999999999993  1.0000
  C   C40       1.0  0.35996  0.53477  0.20133  1.0000
  C   C41       1.0  0.28548  0.27392  0.50606  1.0000
  C   C42       1.0  0.21869000000000002  0.31129  0.46429  1.0000
  C   C43       1.0  0.22401  0.25538  0.36495  1.0000
  C   C44       1.0  0.26614  0.53957  0.51673  1.0000
  C   C45       1.0  0.20951000000000003  0.45572  0.47869  1.0000
  C   C46       1.0  0.18941  0.72169  0.49082  1.0000
  C   C47       1.0  0.26667  0.67739  0.51686  1.0000
  C   C48       1.0  0.35972  0.667  0.4662099999999999  1.0000
  N   N1        1.0  0.7268000000000001  0.09751999999999994  0.5954  1.0000
  N   N2        1.0  0.7504500000000001  0.90373  0.3991999999999999  1.0000
  N   N3        1.0  0.72678  0.4971900000000001  0.90183  1.0000
  N   N4        1.0  0.75107  0.49544  0.09578999999999997  1.0000
  N   N5        1.0  0.7278  0.40557  0.50283  1.0000
  N   N6        1.0  0.74979  0.6006  0.50479  1.0000
  N   N7        1.0  0.2268  0.9024699999999999  0.4046  1.0000
  N   N8        1.0  0.25045  0.09627  0.6008  1.0000
  N   N9        1.0  0.22678  0.50281  0.09817  1.0000
  N   N10       1.0  0.25107  0.50455  0.90421  1.0000
  N   N11       1.0  0.22780000000000003  0.5944299999999999  0.4971699999999999  1.0000
  N   N12       1.0  0.24979  0.3994  0.4952099999999999  1.0000
  O   O1        1.0  0.48628  0.15451  0.52835  1.0000
  O   O2        1.0  0.86125  0.7727699999999998  0.32096999999999987  1.0000
  O   O3        1.0  0.77212  0.70347  0.19975  1.0000
  O   O4        1.0  0.84263  0.98928  0.54976  1.0000
  O   O5        1.0  0.61012  0.22303  0.67801  1.0000
  O   O6        1.0  0.63261  0.01044999999999995  0.4465999999999999  1.0000
  O   O7        1.0  0.70031  0.29413  0.79808  1.0000
  O   O8        1.0  0.48622  0.37156  0.84208  1.0000
  O   O9        1.0  0.86091  0.54935  0.22778  1.0000
  O   O10       1.0  0.77245  0.4962  0.29579  1.0000
  O   O11       1.0  0.84156  0.56166  0.01117  1.0000
  O   O12       1.0  0.61461  0.4501899999999999  0.77262  1.0000
  O   O13       1.0  0.63295  0.4353199999999999  0.98861  1.0000
  O   O14       1.0  0.7041300000000001  0.50443  0.70623  1.0000
  O   O15       1.0  0.48626  0.47145000000000004  0.62672  1.0000
  O   O16       1.0  0.85776  0.6771599999999999  0.44972  1.0000
  O   O17       1.0  0.77144  0.79913  0.50414  1.0000
  O   O18       1.0  0.84258  0.45082  0.43931  1.0000
  O   O19       1.0  0.61447  0.32556  0.54957  1.0000
  O   O20       1.0  0.63286  0.55335  0.56485  1.0000
  O   O21       1.0  0.70016  0.20314  0.49399  1.0000
  O   O22       1.0  0.9862800000000002  0.8454900000000001  0.47165  1.0000
  O   O23       1.0  0.36126  0.22722999999999993  0.6790299999999998  1.0000
  O   O24       1.0  0.27212  0.29653  0.80025  1.0000
  O   O25       1.0  0.34263  0.010710000000000011  0.45024  1.0000
  O   O26       1.0  0.11012  0.77697  0.3219899999999999  1.0000
  O   O27       1.0  0.13261  0.9895400000000001  0.5533999999999998  1.0000
  O   O28       1.0  0.20031  0.7058599999999999  0.20191999999999996  1.0000
  O   O29       1.0  0.98622  0.62844  0.15792  1.0000
  O   O30       1.0  0.36091  0.45063999999999993  0.7722199999999998  1.0000
  O   O31       1.0  0.27245  0.50379  0.70421  1.0000
  O   O32       1.0  0.34156  0.4383399999999999  0.98883  1.0000
  O   O33       1.0  0.11461  0.5498  0.22738  1.0000
  O   O34       1.0  0.13295  0.56467  0.01138  1.0000
  O   O35       1.0  0.20413  0.49556000000000006  0.29376999999999986  1.0000
  O   O36       1.0  0.98625  0.52854  0.37328  1.0000
  O   O37       1.0  0.35776  0.32283999999999996  0.55027  1.0000
  O   O38       1.0  0.27144  0.20086  0.49586  1.0000
  O   O39       1.0  0.34259000000000006  0.54917  0.56069  1.0000
  O   O40       1.0  0.11447  0.67444  0.45043  1.0000
  O   O41       1.0  0.13286  0.44664  0.43515  1.0000
  O   O42       1.0  0.20017000000000001  0.79686  0.50601  1.0000
