data_image0
_chemical_formula_structural       Zn12P16H88C40O48
_chemical_formula_sum              "Zn12 P16 H88 C40 O48"
_cell_length_a       4.68946
_cell_length_b       24.550560000000004
_cell_length_c       29.35552
_cell_angle_alpha    90.00363999999999
_cell_angle_beta     89.99635999999998
_cell_angle_gamma    90.00467

_symmetry_space_group_name_H-M    'P 1'
_symmetry_Int_Tables_number       1

loop_
  _symmetry_equiv_pos_as_xyz
  'x,y,z'

loop_
  _atom_site_type_symbol
  _atom_site_label
  _atom_site_symmetry_multiplicity
  _atom_site_fract_x
  _atom_site_fract_y
  _atom_site_fract_z
  _atom_site_occupancy
  Zn  Zn1       1.0  0.27578  0.4701800000000001  0.45107999999999987  1.0000
  Zn  Zn2       1.0  0.27582  0.029830000000000002  0.048919999999999984  1.0000
  Zn  Zn3       1.0  0.72416  0.52983  0.9510599999999998  1.0000
  Zn  Zn4       1.0  0.72438  0.9701700000000001  0.5489199999999997  1.0000
  Zn  Zn5       1.0  0.72421  0.52985  0.54898  1.0000
  Zn  Zn6       1.0  0.72422  0.97016  0.95102  1.0000
  Zn  Zn7       1.0  0.27582  0.47017  0.04897  1.0000
  Zn  Zn8       1.0  0.27577  0.029840000000000005  0.45101999999999987  1.0000
  Zn  Zn9       1.0  0.10694  0.42453  0.25014  1.0000
  Zn  Zn10      1.0  0.10722000000000001  0.07551  0.24986999999999995  1.0000
  Zn  Zn11      1.0  0.8929799999999999  0.57548  0.75013  1.0000
  Zn  Zn12      1.0  0.8929900000000001  0.9245200000000002  0.74983  1.0000
  P   P1        1.0  0.21008  0.58223  0.50744  1.0000
  P   P2        1.0  0.10465  0.4148200000000001  0.3607799999999999  1.0000
  P   P3        1.0  0.21004  0.9177900000000002  0.99256  1.0000
  P   P4        1.0  0.10459  0.08518000000000002  0.13921999999999995  1.0000
  P   P5        1.0  0.78984  0.41783000000000003  0.007459999999999998  1.0000
  P   P6        1.0  0.8955000000000001  0.58515  0.86078  1.0000
  P   P7        1.0  0.78982  0.08219000000000003  0.4925399999999999  1.0000
  P   P8        1.0  0.89562  0.91489  0.63919  1.0000
  P   P9        1.0  0.78992  0.41777  0.4925999999999999  1.0000
  P   P10       1.0  0.89531  0.58513  0.6394  1.0000
  P   P11       1.0  0.78996  0.08224  0.0073799999999999985  1.0000
  P   P12       1.0  0.89531  0.91489  0.86058  1.0000
  P   P13       1.0  0.21008  0.58223  0.99262  1.0000
  P   P14       1.0  0.10475  0.41491000000000006  0.13942  1.0000
  P   P15       1.0  0.21024  0.91777  0.50734  1.0000
  P   P16       1.0  0.10465  0.08509  0.36059999999999987  1.0000
  H   H1        1.0  0.71888  0.42253  0.39946  1.0000
  H   H2        1.0  0.56852  0.6559  0.50345  1.0000
  H   H3        1.0  0.34485  0.65014  0.45561  1.0000
  H   H4        1.0  0.83267  0.30541  0.37597  1.0000
  H   H5        1.0  0.0521  0.30180000000000007  0.327  1.0000
  H   H6        1.0  0.46549000000000007  0.34223  0.37171  1.0000
  H   H7        1.0  0.23282  0.35226  0.41870999999999997  1.0000
  H   H8        1.0  0.9360000000000002  0.6936200000000001  0.4992699999999999  1.0000
  H   H9        1.0  0.15831  0.6967900000000002  0.54802  1.0000
  H   H10       1.0  0.71887  0.07747  0.10052999999999997  1.0000
  H   H11       1.0  0.5685  0.8441300000000002  0.99654  1.0000
  H   H12       1.0  0.34487  0.84989  0.04438999999999999  1.0000
  H   H13       1.0  0.83268  0.1946  0.12402999999999997  1.0000
  H   H14       1.0  0.05204  0.1982  0.173  1.0000
  H   H15       1.0  0.46548  0.15778000000000003  0.12829  1.0000
  H   H16       1.0  0.23286  0.14776  0.08129  1.0000
  H   H17       1.0  0.93597  0.80641  0.00073  1.0000
  H   H18       1.0  0.15832  0.80323  0.95199  1.0000
  H   H19       1.0  0.28112  0.57743  0.8995  1.0000
  H   H20       1.0  0.43134999999999996  0.3441600000000001  0.0036099999999999995  1.0000
  H   H21       1.0  0.65457  0.34988  0.95571  1.0000
  H   H22       1.0  0.16732  0.69459  0.87599  1.0000
  H   H23       1.0  0.9479099999999999  0.69817  0.82702  1.0000
  H   H24       1.0  0.53454  0.6577300000000003  0.87173  1.0000
  H   H25       1.0  0.76714  0.6477400000000001  0.91872  1.0000
  H   H26       1.0  0.06392  0.3065  0.99933  1.0000
  H   H27       1.0  0.84159  0.30324  0.04808  1.0000
  H   H28       1.0  0.28115  0.9226700000000001  0.60041  1.0000
  H   H29       1.0  0.43131  0.15585  0.49643  1.0000
  H   H30       1.0  0.65454  0.15014000000000002  0.54433  1.0000
  H   H31       1.0  0.16738  0.80544  0.62402  1.0000
  H   H32       1.0  0.9478699999999999  0.80186  0.67298  1.0000
  H   H33       1.0  0.53461  0.8423  0.62827  1.0000
  H   H34       1.0  0.76723  0.85225  0.58126  1.0000
  H   H35       1.0  0.06389  0.19353  0.50068  1.0000
  H   H36       1.0  0.84158  0.19674000000000003  0.45194  1.0000
  H   H37       1.0  0.28093  0.57744  0.60065  1.0000
  H   H38       1.0  0.43149  0.34409  0.49656  1.0000
  H   H39       1.0  0.65505  0.34981000000000007  0.54442  1.0000
  H   H40       1.0  0.16727  0.69454  0.62411  1.0000
  H   H41       1.0  0.9479099999999999  0.6982700000000002  0.67308  1.0000
  H   H42       1.0  0.53444  0.65774  0.62846  1.0000
  H   H43       1.0  0.7669  0.64765  0.58147  1.0000
  H   H44       1.0  0.06399  0.3063600000000001  0.50074  1.0000
  H   H45       1.0  0.84163  0.30322  0.45199  1.0000
  H   H46       1.0  0.28089  0.9225700000000002  0.89934  1.0000
  H   H47       1.0  0.43156  0.15591  0.00339  1.0000
  H   H48       1.0  0.65522  0.1502  0.95555  1.0000
  H   H49       1.0  0.16723  0.8054800000000001  0.8759  1.0000
  H   H50       1.0  0.9479500000000001  0.80173  0.82692  1.0000
  H   H51       1.0  0.53442  0.84227  0.87154  1.0000
  H   H52       1.0  0.76688  0.85238  0.91852  1.0000
  H   H53       1.0  0.06404  0.19367000000000004  0.9992399999999999  1.0000
  H   H54       1.0  0.84166  0.19678000000000004  0.04798  1.0000
  H   H55       1.0  0.71912  0.42263  0.10069  1.0000
  H   H56       1.0  0.56852  0.65589  0.99661  1.0000
  H   H57       1.0  0.34494  0.6502  0.04446  1.0000
  H   H58       1.0  0.83272  0.3055  0.12411999999999997  1.0000
  H   H59       1.0  0.05207  0.30177  0.17309999999999995  1.0000
  H   H60       1.0  0.46552  0.34232  0.12848  1.0000
  H   H61       1.0  0.23302999999999996  0.3524  0.08149  1.0000
  H   H62       1.0  0.9360000000000002  0.6936  0.00077  1.0000
  H   H63       1.0  0.15842  0.6967300000000001  0.95203  1.0000
  H   H64       1.0  0.71902  0.07736  0.39935  1.0000
  H   H65       1.0  0.56867  0.8441500000000001  0.5034  1.0000
  H   H66       1.0  0.34542  0.8497400000000002  0.45551  1.0000
  H   H67       1.0  0.83265  0.19450000000000003  0.3758899999999999  1.0000
  H   H68       1.0  0.05202  0.19823  0.32691  1.0000
  H   H69       1.0  0.4654400000000001  0.15769  0.3715399999999999  1.0000
  H   H70       1.0  0.23295  0.14764000000000002  0.41852999999999996  1.0000
  H   H71       1.0  0.93611  0.80644  0.49925  1.0000
  H   H72       1.0  0.15854  0.8033300000000002  0.54797  1.0000
  H   H73       1.0  0.30323  0.75001  0.45648  1.0000
  H   H74       1.0  0.52795  0.75002  0.50421  1.0000
  H   H75       1.0  0.30316  0.75004  0.04354  1.0000
  H   H76       1.0  0.52793  0.75002  0.9957999999999998  1.0000
  H   H77       1.0  0.69689  0.25012  0.9565  1.0000
  H   H78       1.0  0.4720500000000001  0.25003  0.00422  1.0000
  H   H79       1.0  0.69684  0.24992000000000003  0.54351  1.0000
  H   H80       1.0  0.47204000000000007  0.24996000000000004  0.49578  1.0000
  H   H81       1.0  0.19981  0.24991  0.41904  1.0000
  H   H82       1.0  0.4266  0.24997  0.37158  1.0000
  H   H83       1.0  0.19988  0.25009  0.08096  1.0000
  H   H84       1.0  0.42664  0.25003  0.12842  1.0000
  H   H85       1.0  0.80011  0.7500800000000001  0.9190599999999998  1.0000
  H   H86       1.0  0.57334  0.75  0.8716  1.0000
  H   H87       1.0  0.80016  0.7499300000000002  0.58095  1.0000
  H   H88       1.0  0.57339  0.75001  0.62842  1.0000
  C   C1        1.0  0.34149  0.65022  0.4931  1.0000
  C   C2        1.0  0.06105000000000001  0.30211  0.36448  1.0000
  C   C3        1.0  0.23884999999999998  0.3495900000000001  0.38128  1.0000
  C   C4        1.0  0.16457  0.69727  0.51064  1.0000
  C   C5        1.0  0.34149  0.84981  0.0069  1.0000
  C   C6        1.0  0.06105000000000001  0.1979  0.13553  1.0000
  C   C7        1.0  0.23884999999999998  0.15042  0.11871999999999998  1.0000
  C   C8        1.0  0.16455  0.8027500000000001  0.98937  1.0000
  C   C9        1.0  0.65827  0.34984  0.99319  1.0000
  C   C10       1.0  0.9389400000000001  0.69787  0.8644899999999999  1.0000
  C   C11       1.0  0.76119  0.6503900000000001  0.8813  1.0000
  C   C12       1.0  0.83535  0.30280000000000007  0.010699999999999996  1.0000
  C   C13       1.0  0.65823  0.15017  0.50685  1.0000
  C   C14       1.0  0.9389700000000001  0.80215  0.63551  1.0000
  C   C15       1.0  0.76129  0.84963  0.6186899999999999  1.0000
  C   C16       1.0  0.83532  0.19721000000000005  0.48932  1.0000
  C   C17       1.0  0.65849  0.3497600000000001  0.50693  1.0000
  C   C18       1.0  0.9389099999999999  0.6978800000000002  0.63561  1.0000
  C   C19       1.0  0.76106  0.65037  0.61889  1.0000
  C   C20       1.0  0.8354  0.30271  0.48937  1.0000
  C   C21       1.0  0.65858  0.15024  0.9930399999999999  1.0000
  C   C22       1.0  0.9388899999999999  0.80214  0.8643899999999998  1.0000
  C   C23       1.0  0.76105  0.84965  0.8810999999999998  1.0000
  C   C24       1.0  0.83545  0.19730000000000006  0.0106  1.0000
  C   C25       1.0  0.34151  0.65022  0.006969999999999999  1.0000
  C   C26       1.0  0.06108  0.30217000000000005  0.13563  1.0000
  C   C27       1.0  0.23889  0.3496800000000001  0.11890999999999999  1.0000
  C   C28       1.0  0.1646  0.69726  0.98941  1.0000
  C   C29       1.0  0.34172  0.84978  0.493  1.0000
  C   C30       1.0  0.06101  0.19784  0.36438  1.0000
  C   C31       1.0  0.23879  0.15033  0.38111  1.0000
  C   C32       1.0  0.16471  0.8027800000000002  0.5106  1.0000
  C   C33       1.0  0.29808  0.75001  0.49397999999999986  1.0000
  C   C34       1.0  0.29804  0.75002  0.00603  1.0000
  C   C35       1.0  0.70195  0.25006  0.9939999999999999  1.0000
  C   C36       1.0  0.70193  0.24995  0.506  1.0000
  C   C37       1.0  0.19644  0.24995  0.3815999999999999  1.0000
  C   C38       1.0  0.19649  0.25006  0.11841  1.0000
  C   C39       1.0  0.80348  0.75002  0.88161  1.0000
  C   C40       1.0  0.80353  0.74999  0.6183999999999997  1.0000
  O   O1        1.0  0.88521  0.5902  0.51346  1.0000
  O   O2        1.0  0.29938  0.54526  0.46811  1.0000
  O   O3        1.0  0.32576  0.55819  0.55408  1.0000
  O   O4        1.0  0.2144  0.46556  0.38395  1.0000
  O   O5        1.0  0.77191  0.40816000000000013  0.36617  1.0000
  O   O6        1.0  0.17339  0.41477000000000014  0.30853  1.0000
  O   O7        1.0  0.88519  0.9098  0.98655  1.0000
  O   O8        1.0  0.29933  0.9547700000000001  0.03189  1.0000
  O   O9        1.0  0.32575  0.94183  0.94592  1.0000
  O   O10       1.0  0.21440999999999996  0.03443  0.11606999999999998  1.0000
  O   O11       1.0  0.77187  0.09186  0.13382  1.0000
  O   O12       1.0  0.17341  0.08522  0.19146  1.0000
  O   O13       1.0  0.11470999999999999  0.40984  0.01346  1.0000
  O   O14       1.0  0.70024  0.45478000000000013  0.96814  1.0000
  O   O15       1.0  0.67431  0.44183000000000006  0.054109999999999984  1.0000
  O   O16       1.0  0.78554  0.53441  0.88392  1.0000
  O   O17       1.0  0.2282  0.59181  0.86619  1.0000
  O   O18       1.0  0.82669  0.5852000000000002  0.80854  1.0000
  O   O19       1.0  0.11468999999999999  0.09017000000000003  0.4865299999999999  1.0000
  O   O20       1.0  0.70034  0.04522000000000002  0.53186  1.0000
  O   O21       1.0  0.67425  0.05818000000000001  0.4458999999999999  1.0000
  O   O22       1.0  0.78546  0.9656300000000001  0.6160699999999999  1.0000
  O   O23       1.0  0.2283  0.90832  0.63375  1.0000
  O   O24       1.0  0.82678  0.9148000000000002  0.69143  1.0000
  O   O25       1.0  0.11479  0.4097800000000001  0.48656  1.0000
  O   O26       1.0  0.70071  0.45475000000000004  0.53192  1.0000
  O   O27       1.0  0.6742  0.44181  0.44596999999999987  1.0000
  O   O28       1.0  0.78557  0.53445  0.6161399999999998  1.0000
  O   O29       1.0  0.22805  0.59181  0.63392  1.0000
  O   O30       1.0  0.827  0.5851600000000001  0.6916799999999999  1.0000
  O   O31       1.0  0.11483000000000002  0.09024  0.01345  1.0000
  O   O32       1.0  0.7009  0.04527000000000001  0.96807  1.0000
  O   O33       1.0  0.67417  0.05818000000000001  0.054019999999999985  1.0000
  O   O34       1.0  0.78559  0.9655500000000001  0.88385  1.0000
  O   O35       1.0  0.22806  0.9082000000000001  0.86607  1.0000
  O   O36       1.0  0.82708  0.91485  0.80829  1.0000
  O   O37       1.0  0.88524  0.59021  0.98654  1.0000
  O   O38       1.0  0.29916  0.54527  0.03194  1.0000
  O   O39       1.0  0.32581  0.55818  0.94597  1.0000
  O   O40       1.0  0.21447000000000002  0.46554  0.11612999999999998  1.0000
  O   O41       1.0  0.77196  0.40831  0.13397  1.0000
  O   O42       1.0  0.17309  0.41481  0.1917  1.0000
  O   O43       1.0  0.88543  0.9097900000000002  0.51346  1.0000
  O   O44       1.0  0.29926  0.9547200000000001  0.46801  1.0000
  O   O45       1.0  0.32593  0.94185  0.55398  1.0000
  O   O46       1.0  0.21444999999999997  0.03444  0.38388  1.0000
  O   O47       1.0  0.7719  0.09167000000000003  0.36605  1.0000
  O   O48       1.0  0.17322  0.08517000000000002  0.30833  1.0000
