data_image0
_chemical_formula_structural       Tb4H56C96N8O24
_chemical_formula_sum              "Tb4 H56 C96 N8 O24"
_cell_length_a       12.55952
_cell_length_b       14.22924
_cell_length_c       14.87763
_cell_angle_alpha    68.95287
_cell_angle_beta     67.51096
_cell_angle_gamma    78.07454

_space_group_name_H-M_alt    "P 1"
_space_group_IT_number       1

loop_
  _space_group_symop_operation_xyz
  'x, y, z'

loop_
  _atom_site_type_symbol
  _atom_site_label
  _atom_site_symmetry_multiplicity
  _atom_site_fract_x
  _atom_site_fract_y
  _atom_site_fract_z
  _atom_site_occupancy
  Tb  Tb1       1.0  0.43624000000000007  0.48235999999999984  0.40261  1.0000
  Tb  Tb2       1.0  0.9479699999999996  0.94593  0.9063300000000001  1.0000
  Tb  Tb3       1.0  0.56348  0.51837  0.5981700000000001  1.0000
  Tb  Tb4       1.0  0.05157999999999998  0.05407  0.09376  1.0000
  H   H1        1.0  0.69924  0.78235  0.19019000000000005  1.0000
  H   H2        1.0  0.19426999999999983  0.7121  0.22538000000000002  1.0000
  H   H3        1.0  0.44466000000000006  0.7859199999999997  0.48196  1.0000
  H   H4        1.0  0.6810399999999998  0.01992  0.31169  1.0000
  H   H5        1.0  0.20754999999999998  0.7054400000000001  0.72639  1.0000
  H   H6        1.0  0.16612999999999986  0.7277899999999999  0.9404700000000001  1.0000
  H   H7        1.0  0.38796  0.49157  0.07668  1.0000
  H   H8        1.0  0.30244999999999994  0.57253  0.93768  1.0000
  H   H9        1.0  0.017849999999999994  0.94588  0.5633  1.0000
  H   H10       1.0  0.5084000000000001  0.94871  0.46131  1.0000
  H   H11       1.0  0.60427  0.34531  0.24865  1.0000
  H   H12       1.0  0.77322  0.12486999999999998  0.78697  1.0000
  H   H13       1.0  0.09892999999999996  0.8792  0.41341  1.0000
  H   H14       1.0  0.83747  0.5484299999999998  0.13118  1.0000
  H   H15       1.0  0.021820000000000016  0.33947999999999995  0.72409  1.0000
  H   H16       1.0  0.11354999999999996  0.06910999999999998  0.5780200000000001  1.0000
  H   H17       1.0  0.61148  0.20326  0.18427  1.0000
  H   H18       1.0  0.18002000000000004  0.45370999999999984  0.60843  1.0000
  H   H19       1.0  0.9601499999999998  0.69535  0.029640000000000003  1.0000
  H   H20       1.0  0.021419999999999884  0.17941999999999994  0.6895400000000003  1.0000
  H   H21       1.0  0.22691000000000003  0.71719  0.4275800000000001  1.0000
  H   H22       1.0  0.63238  0.56968  0.13181  1.0000
  H   H23       1.0  0.5749599999999998  0.16138  0.77433  1.0000
  H   H24       1.0  0.2674799999999999  0.03666000000000001  0.42424  1.0000
  H   H25       1.0  0.47964000000000007  0.6763299999999999  0.06759  1.0000
  H   H26       1.0  0.40637000000000006  0.84269  0.97203  1.0000
  H   H27       1.0  0.44934  0.08814  0.27529  1.0000
  H   H28       1.0  0.43951999999999997  0.02288999999999992  0.8650400000000003  1.0000
  H   H29       1.0  0.30040999999999995  0.21784999999999985  0.8098400000000001  1.0000
  H   H30       1.0  0.80578  0.28824  0.7748500000000001  1.0000
  H   H31       1.0  0.55558  0.2146499999999999  0.51816  1.0000
  H   H32       1.0  0.3191800000000001  0.9806199999999999  0.68776  1.0000
  H   H33       1.0  0.79226  0.2951099999999999  0.27373  1.0000
  H   H34       1.0  0.8339499999999999  0.2723299999999999  0.05980000000000001  1.0000
  H   H35       1.0  0.61189  0.50851  0.9239000000000002  1.0000
  H   H36       1.0  0.69753  0.42743  0.0627  1.0000
  H   H37       1.0  0.9819599999999998  0.05440000000000001  0.43648  1.0000
  H   H38       1.0  0.49208  0.051910000000000005  0.53855  1.0000
  H   H39       1.0  0.39561999999999997  0.6549999999999999  0.75185  1.0000
  H   H40       1.0  0.22643999999999995  0.87509  0.21325000000000002  1.0000
  H   H41       1.0  0.90117  0.12090999999999999  0.5864900000000001  1.0000
  H   H42       1.0  0.16237999999999997  0.45166999999999996  0.86881  1.0000
  H   H43       1.0  0.97794  0.66029  0.2762  1.0000
  H   H44       1.0  0.8865299999999996  0.9309199999999997  0.4219100000000001  1.0000
  H   H45       1.0  0.3885099999999997  0.7973199999999999  0.8158300000000003  1.0000
  H   H46       1.0  0.8195  0.5462799999999998  0.3918900000000001  1.0000
  H   H47       1.0  0.03957000000000002  0.3048699999999999  0.97024  1.0000
  H   H48       1.0  0.9784399999999998  0.82044  0.31058  1.0000
  H   H49       1.0  0.77299  0.2829  0.5727  1.0000
  H   H50       1.0  0.36742  0.43027999999999983  0.86838  1.0000
  H   H51       1.0  0.42473  0.8385999999999998  0.22564  1.0000
  H   H52       1.0  0.7326299999999999  0.96357  0.57563  1.0000
  H   H53       1.0  0.51997  0.32364999999999977  0.93253  1.0000
  H   H54       1.0  0.5931999999999997  0.15720999999999996  0.0281  1.0000
  H   H55       1.0  0.55081  0.91234  0.72458  1.0000
  H   H56       1.0  0.5601199999999998  0.9771999999999998  0.13497  1.0000
  C   C1        1.0  0.53375  0.67227  0.35643  1.0000
  C   C2        1.0  0.6995399999999999  0.9062599999999998  0.24159000000000005  1.0000
  C   C3        1.0  0.80018  0.9516  0.15058000000000002  1.0000
  C   C4        1.0  0.17212  0.73041  0.0827  1.0000
  C   C5        1.0  0.5695499999999998  0.7728999999999999  0.3386400000000001  1.0000
  C   C6        1.0  0.6587900000000001  0.8177099999999998  0.25037  1.0000
  C   C7        1.0  0.29485999999999984  0.5965999999999999  0.15986000000000003  1.0000
  C   C8        1.0  0.21755  0.68251  0.16185  1.0000
  C   C9        1.0  0.3042500000000001  0.60652  0.58008  1.0000
  C   C10       1.0  0.10838000000000005  0.8302999999999998  0.65267  1.0000
  C   C11       1.0  0.09587000000000004  0.8261799999999998  0.08234  1.0000
  C   C12       1.0  0.5150499999999999  0.8207599999999998  0.41429000000000005  1.0000
  C   C13       1.0  0.05681999999999998  0.87051  0.74141  1.0000
  C   C14       1.0  0.6470199999999998  0.9522699999999997  0.3187800000000001  1.0000
  C   C15       1.0  0.34692  0.5523799999999999  0.24270000000000005  1.0000
  C   C16       1.0  0.18399999999999994  0.7425799999999999  0.658  1.0000
  C   C17       1.0  0.26403999999999994  0.27813  0.49614  1.0000
  C   C18       1.0  0.20171000000000003  0.68991  0.00205  1.0000
  C   C19       1.0  0.3264000000000001  0.5576499999999999  0.07817  1.0000
  C   C20       1.0  0.27858999999999995  0.60362  0.00039  1.0000
  C   C21       1.0  0.3582899999999999  0.25511  0.41205  1.0000
  C   C22       1.0  0.22607999999999998  0.7020900000000001  0.57684  1.0000
  C   C23       1.0  0.6811399999999997  0.8998199999999997  0.9222600000000002  1.0000
  C   C24       1.0  0.6488399999999996  0.72286  0.030340000000000006  1.0000
  C   C25       1.0  0.7233899999999999  0.8026599999999997  0.9777300000000002  1.0000
  C   C26       1.0  0.07803000000000004  0.8788999999999998  0.56451  1.0000
  C   C27       1.0  0.55208  0.9115  0.40289  1.0000
  C   C28       1.0  0.1762699999999999  0.20973000000000003  0.55541  1.0000
  C   C29       1.0  0.5345999999999997  0.29536999999999997  0.28454  1.0000
  C   C30       1.0  0.5665699999999999  0.9130599999999999  0.9199100000000001  1.0000
  C   C31       1.0  0.7136799999999998  0.06583999999999995  0.82243  1.0000
  C   C32       1.0  0.12207  0.8404299999999999  0.48205000000000003  1.0000
  C   C33       1.0  0.8026999999999999  0.6187999999999997  0.08755000000000003  1.0000
  C   C34       1.0  0.35674  0.16933  0.38467  1.0000
  C   C35       1.0  0.08874  0.31934  0.65995  1.0000
  C   C36       1.0  0.1801899999999999  0.12138999999999997  0.52891  1.0000
  C   C37       1.0  0.53839  0.21490000000000004  0.24951  1.0000
  C   C38       1.0  0.17759  0.38374  0.59573  1.0000
  C   C39       1.0  0.8716599999999998  0.70099  0.03133  1.0000
  C   C40       1.0  0.08778  0.23184  0.64016  1.0000
  C   C41       1.0  0.19428999999999996  0.75119  0.48896  1.0000
  C   C42       1.0  0.69072  0.62977  0.08745  1.0000
  C   C43       1.0  0.60218  0.08584000000000003  0.8157  1.0000
  C   C44       1.0  0.2657300000000001  0.10305999999999997  0.44513  1.0000
  C   C45       1.0  0.53424  0.7389  0.026310000000000007  1.0000
  C   C46       1.0  0.4944299999999999  0.83045  0.9731600000000001  1.0000
  C   C47       1.0  0.44898999999999994  0.15189  0.29951  1.0000
  C   C48       1.0  0.5278499999999998  0.009439999999999962  0.8657100000000001  1.0000
  C   C49       1.0  0.4656699999999998  0.32830000000000004  0.64391  1.0000
  C   C50       1.0  0.30019  0.09403000000000002  0.75816  1.0000
  C   C51       1.0  0.1996699999999999  0.04838999999999997  0.8492400000000002  1.0000
  C   C52       1.0  0.8280500000000001  0.2698  0.91752  1.0000
  C   C53       1.0  0.43007999999999996  0.22761000000000003  0.66147  1.0000
  C   C54       1.0  0.3408399999999999  0.18256000000000003  0.74962  1.0000
  C   C55       1.0  0.70518  0.40364  0.8405  1.0000
  C   C56       1.0  0.7825499999999999  0.3177899999999999  0.8384100000000001  1.0000
  C   C57       1.0  0.6951599999999997  0.39366999999999996  0.42031000000000013  1.0000
  C   C58       1.0  0.8915599999999998  0.17015  0.34719000000000005  1.0000
  C   C59       1.0  0.9038699999999996  0.17376999999999995  0.91785  1.0000
  C   C60       1.0  0.4849999999999997  0.17987999999999996  0.5857200000000001  1.0000
  C   C61       1.0  0.94325  0.12993999999999997  0.25841  1.0000
  C   C62       1.0  0.35309  0.048229999999999947  0.68086  1.0000
  C   C63       1.0  0.65304  0.44784999999999986  0.7577500000000001  1.0000
  C   C64       1.0  0.81581  0.2577899999999999  0.34211  1.0000
  C   C65       1.0  0.7356699999999999  0.722  0.50399  1.0000
  C   C66       1.0  0.7984399999999999  0.31025  0.99819  1.0000
  C   C67       1.0  0.6735599999999998  0.44251999999999986  0.9222400000000001  1.0000
  C   C68       1.0  0.7214799999999998  0.39647999999999994  0.99991  1.0000
  C   C69       1.0  0.6415600000000001  0.74505  0.58812  1.0000
  C   C70       1.0  0.77366  0.2981899999999999  0.42337  1.0000
  C   C71       1.0  0.31834  0.10011999999999997  0.07775000000000001  1.0000
  C   C72       1.0  0.3507799999999999  0.27707999999999994  0.9697500000000001  1.0000
  C   C73       1.0  0.27619  0.19726  0.02226  1.0000
  C   C74       1.0  0.9218699999999999  0.12142999999999993  0.4353900000000001  1.0000
  C   C75       1.0  0.44817000000000007  0.08910999999999998  0.59695  1.0000
  C   C76       1.0  0.82356  0.7902999999999999  0.4447  1.0000
  C   C77       1.0  0.46527999999999997  0.70494  0.7158400000000001  1.0000
  C   C78       1.0  0.43295  0.08689000000000001  0.08014  1.0000
  C   C79       1.0  0.28592999999999996  0.93414  0.17764  1.0000
  C   C80       1.0  0.8778599999999996  0.15979000000000002  0.51794  1.0000
  C   C81       1.0  0.19706999999999988  0.38125999999999977  0.9124500000000002  1.0000
  C   C82       1.0  0.64324  0.83089  0.61538  1.0000
  C   C83       1.0  0.9110100000000001  0.68055  0.34027  1.0000
  C   C84       1.0  0.8198199999999999  0.8786799999999997  0.4710900000000001  1.0000
  C   C85       1.0  0.46158999999999994  0.78554  0.75065  1.0000
  C   C86       1.0  0.82201  0.6163  0.40446000000000004  1.0000
  C   C87       1.0  0.12805999999999995  0.29911999999999983  0.9685600000000002  1.0000
  C   C88       1.0  0.9120200000000002  0.7680899999999999  0.3599800000000001  1.0000
  C   C89       1.0  0.80554  0.249  0.51123  1.0000
  C   C90       1.0  0.3090299999999999  0.37021  0.9126600000000002  1.0000
  C   C91       1.0  0.39746  0.91415  0.18429000000000006  1.0000
  C   C92       1.0  0.7343199999999999  0.89712  0.55484  1.0000
  C   C93       1.0  0.4653999999999999  0.26104999999999995  0.9737700000000001  1.0000
  C   C94       1.0  0.5051499999999999  0.16946999999999998  0.02692  1.0000
  C   C95       1.0  0.5510599999999998  0.84849  0.7005100000000002  1.0000
  C   C96       1.0  0.4717700000000001  0.99057  0.13433000000000003  1.0000
  N   N1        1.0  0.2642000000000001  0.36427  0.51615  1.0000
  N   N2        1.0  0.7523999999999997  0.9764399999999998  0.8750300000000002  1.0000
  N   N3        1.0  0.83349  0.79075  0.9788  1.0000
  N   N4        1.0  0.44704999999999995  0.3160299999999998  0.3629000000000001  1.0000
  N   N5        1.0  0.7353399999999999  0.6359  0.48394  1.0000
  N   N6        1.0  0.24696999999999994  0.023509999999999996  0.12508  1.0000
  N   N7        1.0  0.16605000000000003  0.20925  0.0211  1.0000
  N   N8        1.0  0.5527599999999999  0.6841299999999999  0.6375100000000001  1.0000
  O   O1        1.0  0.44951  0.50929  0.22283  1.0000
  O   O2        1.0  0.07400000000000004  0.82025  0.82568  1.0000
  O   O3        1.0  0.52846  0.60493  0.44285  1.0000
  O   O4        1.0  0.8042399999999997  0.9527  0.06328  1.0000
  O   O5        1.0  0.87278  0.98643  0.16828  1.0000
  O   O6        1.0  0.36241  0.5764900000000001  0.64112  1.0000
  O   O7        1.0  0.30700000000000005  0.5621799999999998  0.51857  1.0000
  O   O8        1.0  0.99398  0.9550099999999998  0.7315100000000001  1.0000
  O   O9        1.0  0.031589999999999986  0.85265  0.027600000000000006  1.0000
  O   O10       1.0  0.5072399999999999  0.6532499999999999  0.29118  1.0000
  O   O11       1.0  0.28765999999999997  0.56166  0.3311  1.0000
  O   O12       1.0  0.10032999999999986  0.87685  0.13622  1.0000
  O   O13       1.0  0.55047  0.4909  0.77763  1.0000
  O   O14       1.0  0.9262499999999998  0.18021  0.17397000000000007  1.0000
  O   O15       1.0  0.4706099999999998  0.39575  0.55768  1.0000
  O   O16       1.0  0.19591999999999998  0.047399999999999956  0.93635  1.0000
  O   O17       1.0  0.12694999999999987  0.01337999999999995  0.8317700000000002  1.0000
  O   O18       1.0  0.6365500000000001  0.42339  0.3596100000000001  1.0000
  O   O19       1.0  0.69248  0.43811  0.48170000000000013  1.0000
  O   O20       1.0  0.00593  0.04539  0.26849  1.0000
  O   O21       1.0  0.9679499999999995  0.14635999999999993  0.9729800000000001  1.0000
  O   O22       1.0  0.4927899999999999  0.34712  0.70895  1.0000
  O   O23       1.0  0.7122199999999997  0.4386599999999999  0.6692700000000003  1.0000
  O   O24       1.0  0.8993499999999999  0.1236899999999999  0.8635900000000002  1.0000
