data_image0
_chemical_formula_structural       Ag4H80C96N16
_chemical_formula_sum              "Ag4 H80 C96 N16"
_cell_length_a       10.45282
_cell_length_b       15.33223
_cell_length_c       20.198960000000003
_cell_angle_alpha    85.00123999999998
_cell_angle_beta     75.05006
_cell_angle_gamma    70.25767

_symmetry_space_group_name_H-M    'P 1'
_symmetry_Int_Tables_number       1

loop_
  _symmetry_equiv_pos_as_xyz
  'x,y,z'

loop_
  _atom_site_type_symbol
  _atom_site_label
  _atom_site_symmetry_multiplicity
  _atom_site_fract_x
  _atom_site_fract_y
  _atom_site_fract_z
  _atom_site_occupancy
  Ag  Ag1       1.0  0.015299999999999996  0.74981  0.96997  1.0000
  Ag  Ag2       1.0  0.23447000000000004  0.74985  0.53079  1.0000
  Ag  Ag3       1.0  0.9847  0.2502  0.030019999999999998  1.0000
  Ag  Ag4       1.0  0.7655299999999999  0.25016  0.4692  1.0000
  H   H1        1.0  0.88238  0.17868  0.18412  1.0000
  H   H2        1.0  0.67617  0.14587  0.25755  1.0000
  H   H3        1.0  0.39981  0.3410299999999999  0.07583  1.0000
  H   H4        1.0  0.25286  0.30706  0.00939  1.0000
  H   H5        1.0  0.44376000000000004  0.34474  0.18787  1.0000
  H   H6        1.0  0.031089999999999954  0.6359  0.50118  1.0000
  H   H7        1.0  0.014979999999999967  0.54762  0.40803  1.0000
  H   H8        1.0  0.016560000000000054  0.5737099999999998  0.20945  1.0000
  H   H9        1.0  0.92947  0.6625499999999998  0.11309000000000001  1.0000
  H   H10       1.0  0.10196000000000001  0.49997  0.2873  1.0000
  H   H11       1.0  0.9336600000000002  0.32114999999999994  0.18412  1.0000
  H   H12       1.0  0.06658999999999998  0.35409  0.25756  1.0000
  H   H13       1.0  0.52423  0.15888999999999995  0.07574  1.0000
  H   H14       1.0  0.73742  0.19275999999999993  0.00934  1.0000
  H   H15       1.0  0.36843000000000004  0.15523999999999993  0.18776  1.0000
  H   H16       1.0  0.46760000000000024  0.8642299999999998  0.50124  1.0000
  H   H17       1.0  0.5766899999999999  0.95249  0.40814  1.0000
  H   H18       1.0  0.7743400000000003  0.92624  0.20948000000000003  1.0000
  H   H19       1.0  0.9574899999999998  0.83746  0.11314  1.0000
  H   H20       1.0  0.61052  0.0  0.28752  1.0000
  H   H21       1.0  0.93934  0.17844  0.31521  1.0000
  H   H22       1.0  0.17822999999999997  0.14592  0.24204999999999996  1.0000
  H   H23       1.0  0.26003999999999994  0.3405399999999999  0.4242  1.0000
  H   H24       1.0  0.44108999999999987  0.30698  0.49033000000000004  1.0000
  H   H25       1.0  0.21221  0.34405  0.31186  1.0000
  H   H26       1.0  0.3318499999999999  0.63637  0.99896  1.0000
  H   H27       1.0  0.43672  0.54837  0.09184  1.0000
  H   H28       1.0  0.4102999999999996  0.57337  0.29127  1.0000
  H   H29       1.0  0.40783000000000025  0.66252  0.38785  1.0000
  H   H30       1.0  0.39769000000000004  0.50082  0.21284999999999998  1.0000
  H   H31       1.0  0.7453599999999999  0.32151  0.31534  1.0000
  H   H32       1.0  0.57944  0.35402  0.24213000000000004  1.0000
  H   H33       1.0  0.3159  0.15940999999999994  0.42425  1.0000
  H   H34       1.0  0.06898000000000001  0.19299  0.49028000000000005  1.0000
  H   H35       1.0  0.47591  0.15595  0.31193  1.0000
  H   H36       1.0  0.66903  0.8638  0.99887  1.0000
  H   H37       1.0  0.47155000000000014  0.95176  0.09172  1.0000
  H   H38       1.0  0.2982000000000002  0.9265899999999999  0.29114  1.0000
  H   H39       1.0  0.20418999999999998  0.8375499999999999  0.38768  1.0000
  H   H40       1.0  0.38973  0.9991399999999999  0.21260000000000004  1.0000
  H   H41       1.0  0.11762000000000006  0.82133  0.81588  1.0000
  H   H42       1.0  0.3238300000000001  0.85414  0.74245  1.0000
  H   H43       1.0  0.60019  0.65897  0.92417  1.0000
  H   H44       1.0  0.7471400000000002  0.69295  0.9906  1.0000
  H   H45       1.0  0.55624  0.65526  0.81212  1.0000
  H   H46       1.0  0.96891  0.3641  0.49882  1.0000
  H   H47       1.0  0.9850200000000001  0.4523799999999999  0.59196  1.0000
  H   H48       1.0  0.98344  0.42629999999999996  0.79055  1.0000
  H   H49       1.0  0.07053  0.33745  0.8869099999999999  1.0000
  H   H50       1.0  0.89804  0.50004  0.71269  1.0000
  H   H51       1.0  0.06634000000000019  0.6788599999999998  0.81588  1.0000
  H   H52       1.0  0.9334099999999999  0.64592  0.74244  1.0000
  H   H53       1.0  0.47577  0.84111  0.92426  1.0000
  H   H54       1.0  0.26257  0.80724  0.99065  1.0000
  H   H55       1.0  0.6315700000000006  0.84477  0.81224  1.0000
  H   H56       1.0  0.5323999999999999  0.13576999999999997  0.49876  1.0000
  H   H57       1.0  0.42331  0.04750999999999999  0.59186  1.0000
  H   H58       1.0  0.22566000000000003  0.07375999999999999  0.79052  1.0000
  H   H59       1.0  0.04251000000000007  0.16255  0.8868599999999999  1.0000
  H   H60       1.0  0.3894800000000001  0.0  0.71247  1.0000
  H   H61       1.0  0.060659999999999985  0.82157  0.68479  1.0000
  H   H62       1.0  0.8217700000000001  0.8540899999999998  0.75794  1.0000
  H   H63       1.0  0.7399600000000002  0.6594699999999998  0.5758  1.0000
  H   H64       1.0  0.55891  0.69303  0.50967  1.0000
  H   H65       1.0  0.7877899999999999  0.65596  0.68814  1.0000
  H   H66       1.0  0.6681500000000001  0.36363  0.00103  1.0000
  H   H67       1.0  0.5632799999999999  0.4516399999999999  0.90816  1.0000
  H   H68       1.0  0.5896999999999999  0.4266399999999999  0.70873  1.0000
  H   H69       1.0  0.5921700000000001  0.33748  0.61215  1.0000
  H   H70       1.0  0.60231  0.49918  0.78714  1.0000
  H   H71       1.0  0.25464  0.6784899999999999  0.68465  1.0000
  H   H72       1.0  0.42056000000000027  0.64598  0.75787  1.0000
  H   H73       1.0  0.6841  0.8405899999999997  0.57575  1.0000
  H   H74       1.0  0.9310199999999992  0.80702  0.50972  1.0000
  H   H75       1.0  0.5240899999999998  0.84406  0.68807  1.0000
  H   H76       1.0  0.33096  0.13621  0.00113  1.0000
  H   H77       1.0  0.52845  0.04825  0.9082700000000001  1.0000
  H   H78       1.0  0.7018000000000001  0.07342  0.70885  1.0000
  H   H79       1.0  0.79581  0.16245999999999994  0.61231  1.0000
  H   H80       1.0  0.61027  0.00086  0.7874  1.0000
  C   C1        1.0  0.80003  0.17462  0.16185  1.0000
  C   C2        1.0  0.6838400000000001  0.15542  0.20284  1.0000
  C   C3        1.0  0.24851999999999985  0.34984  0.17363  1.0000
  C   C4        1.0  0.29735  0.33641  0.10194  1.0000
  C   C5        1.0  0.21592000000000014  0.31744  0.06463  1.0000
  C   C6        1.0  0.3323300000000001  0.3793899999999999  0.21055  1.0000
  C   C7        1.0  0.26531000000000016  0.6215499999999998  0.04673  1.0000
  C   C8        1.0  0.32339000000000007  0.5722199999999998  0.09875  1.0000
  C   C9        1.0  0.23609000000000002  0.55235  0.16015  1.0000
  C   C10       1.0  0.09122000000000008  0.5858699999999998  0.1641  1.0000
  C   C11       1.0  0.04143999999999994  0.63563  0.11005000000000001  1.0000
  C   C12       1.0  0.29731  0.49258  0.21327  1.0000
  C   C13       1.0  0.03813000000000002  0.3253  0.16187  1.0000
  C   C14       1.0  0.11338999999999999  0.34459  0.20284  1.0000
  C   C15       1.0  0.57783  0.15019  0.17361  1.0000
  C   C16       1.0  0.60055  0.16358999999999996  0.1019  1.0000
  C   C17       1.0  0.7192799999999998  0.18246999999999994  0.06459  1.0000
  C   C18       1.0  0.45716  0.12063  0.21051  1.0000
  C   C19       1.0  0.68795  0.8786  0.04665  1.0000
  C   C20       1.0  0.5779500000000002  0.9278999999999997  0.09868  1.0000
  C   C21       1.0  0.6039500000000001  0.94772  0.16012  1.0000
  C   C22       1.0  0.7448800000000001  0.9141699999999998  0.1641  1.0000
  C   C23       1.0  0.8485699999999998  0.86443  0.11003000000000002  1.0000
  C   C24       1.0  0.4895400000000001  0.00747  0.2132  1.0000
  C   C25       1.0  0.02551999999999999  0.17437  0.33761  1.0000
  C   C26       1.0  0.16087000000000004  0.15530999999999998  0.2968  1.0000
  C   C27       1.0  0.4019300000000001  0.3499499999999999  0.32623  1.0000
  C   C28       1.0  0.3668500000000001  0.33631  0.39794  1.0000
  C   C29       1.0  0.46734000000000003  0.31753  0.4351  1.0000
  C   C30       1.0  0.2887700000000001  0.37917  0.28933  1.0000
  C   C31       1.0  0.11263000000000012  0.62125  0.45351  1.0000
  C   C32       1.0  0.10429999999999998  0.57177  0.40134  1.0000
  C   C33       1.0  0.21167  0.55206  0.34009  1.0000
  C   C34       1.0  0.32314999999999994  0.5856399999999999  0.33644  1.0000
  C   C35       1.0  0.3227099999999999  0.63555  0.39061  1.0000
  C   C36       1.0  0.21033000000000013  0.49225999999999986  0.28686  1.0000
  C   C37       1.0  0.63681  0.32565  0.33771  1.0000
  C   C38       1.0  0.5422  0.34473  0.29689  1.0000
  C   C39       1.0  0.27184  0.15012  0.32619  1.0000
  C   C40       1.0  0.23533000000000007  0.16374  0.39791  1.0000
  C   C41       1.0  0.09777000000000005  0.18249999999999994  0.43504  1.0000
  C   C42       1.0  0.42187000000000013  0.12085999999999997  0.28933  1.0000
  C   C43       1.0  0.43364000000000014  0.87889  0.45354  1.0000
  C   C44       1.0  0.4941  0.9283299999999998  0.40138  1.0000
  C   C45       1.0  0.44799  0.94799  0.34007  1.0000
  C   C46       1.0  0.34021000000000007  0.9143999999999998  0.33635  1.0000
  C   C47       1.0  0.2865000000000001  0.86453  0.39054  1.0000
  C   C48       1.0  0.50267  0.007789999999999999  0.28689  1.0000
  C   C49       1.0  0.19997  0.82538  0.8381399999999999  1.0000
  C   C50       1.0  0.31616000000000005  0.8445799999999998  0.79716  1.0000
  C   C51       1.0  0.75148  0.65016  0.8263599999999999  1.0000
  C   C52       1.0  0.70265  0.6636  0.89806  1.0000
  C   C53       1.0  0.7840799999999999  0.68257  0.9353699999999999  1.0000
  C   C54       1.0  0.66767  0.6206099999999999  0.78945  1.0000
  C   C55       1.0  0.73469  0.37845999999999996  0.95327  1.0000
  C   C56       1.0  0.6766100000000003  0.4277899999999999  0.9012499999999999  1.0000
  C   C57       1.0  0.7639099999999999  0.44765  0.8398499999999999  1.0000
  C   C58       1.0  0.90878  0.41414  0.8359  1.0000
  C   C59       1.0  0.9585499999999999  0.36437  0.88995  1.0000
  C   C60       1.0  0.7026900000000001  0.50742  0.78673  1.0000
  C   C61       1.0  0.9618700000000002  0.6747  0.83813  1.0000
  C   C62       1.0  0.8866100000000001  0.6554199999999998  0.79715  1.0000
  C   C63       1.0  0.42217000000000005  0.84982  0.8263900000000001  1.0000
  C   C64       1.0  0.39944000000000013  0.83642  0.89809  1.0000
  C   C65       1.0  0.28071999999999997  0.8175299999999999  0.9354100000000001  1.0000
  C   C66       1.0  0.5428400000000002  0.8793699999999998  0.78949  1.0000
  C   C67       1.0  0.3120399999999998  0.12139999999999997  0.9533500000000001  1.0000
  C   C68       1.0  0.42205000000000004  0.07211  0.90132  1.0000
  C   C69       1.0  0.39604999999999996  0.05228999999999999  0.8398800000000001  1.0000
  C   C70       1.0  0.2551200000000001  0.08582999999999998  0.83589  1.0000
  C   C71       1.0  0.15143  0.13558  0.88996  1.0000
  C   C72       1.0  0.5104600000000001  0.9925399999999998  0.78679  1.0000
  C   C73       1.0  0.97448  0.82563  0.66239  1.0000
  C   C74       1.0  0.8391300000000002  0.84469  0.7032  1.0000
  C   C75       1.0  0.59807  0.6500599999999999  0.67376  1.0000
  C   C76       1.0  0.63315  0.6636899999999998  0.60206  1.0000
  C   C77       1.0  0.5326599999999999  0.68248  0.56489  1.0000
  C   C78       1.0  0.7112299999999999  0.62083  0.71066  1.0000
  C   C79       1.0  0.8873699999999999  0.37876  0.54649  1.0000
  C   C80       1.0  0.8957000000000002  0.42824  0.59865  1.0000
  C   C81       1.0  0.78833  0.4479499999999999  0.6599  1.0000
  C   C82       1.0  0.67685  0.41437  0.66356  1.0000
  C   C83       1.0  0.6772900000000001  0.3644499999999999  0.60938  1.0000
  C   C84       1.0  0.7896700000000001  0.50775  0.71314  1.0000
  C   C85       1.0  0.3631799999999999  0.67435  0.66228  1.0000
  C   C86       1.0  0.4578  0.65528  0.70311  1.0000
  C   C87       1.0  0.72816  0.84989  0.67381  1.0000
  C   C88       1.0  0.7646700000000001  0.8362699999999997  0.60209  1.0000
  C   C89       1.0  0.9022300000000002  0.8175099999999998  0.56496  1.0000
  C   C90       1.0  0.5781300000000003  0.87915  0.71067  1.0000
  C   C91       1.0  0.56636  0.12111999999999998  0.54645  1.0000
  C   C92       1.0  0.5059000000000002  0.07166999999999998  0.59862  1.0000
  C   C93       1.0  0.552  0.05200999999999999  0.65992  1.0000
  C   C94       1.0  0.65979  0.08561  0.66365  1.0000
  C   C95       1.0  0.7135000000000001  0.13547  0.60946  1.0000
  C   C96       1.0  0.49733  0.9922199999999998  0.71311  1.0000
  N   N1        1.0  0.82046  0.18842  0.09316  1.0000
  N   N2        1.0  0.12558000000000002  0.65415  0.05104  1.0000
  N   N3        1.0  0.08625  0.31147  0.09318  1.0000
  N   N4        1.0  0.82337  0.846  0.05098  1.0000
  N   N5        1.0  0.9910000000000002  0.18819  0.40632  1.0000
  N   N6        1.0  0.21973000000000004  0.65408  0.44944  1.0000
  N   N7        1.0  0.6027400000000003  0.31184  0.40642  1.0000
  N   N8        1.0  0.33058000000000015  0.8460899999999998  0.44943  1.0000
  N   N9        1.0  0.17953999999999998  0.81158  0.90684  1.0000
  N   N10       1.0  0.87442  0.34586  0.9489599999999999  1.0000
  N   N11       1.0  0.9137400000000001  0.68853  0.9068199999999998  1.0000
  N   N12       1.0  0.17662999999999998  0.15401  0.9490200000000001  1.0000
  N   N13       1.0  0.008999999999999963  0.8118099999999998  0.59367  1.0000
  N   N14       1.0  0.78027  0.34593  0.55056  1.0000
  N   N15       1.0  0.3972599999999997  0.68816  0.59357  1.0000
  N   N16       1.0  0.6694199999999999  0.15391999999999997  0.55057  1.0000
