data_image0
_chemical_formula_structural       Zn8H80C96N16O16
_chemical_formula_sum              "Zn8 H80 C96 N16 O16"
_cell_length_a       13.804
_cell_length_b       18.141240000000003
_cell_length_c       18.171699999999998
_cell_angle_alpha    81.76878
_cell_angle_beta     67.62525999999998
_cell_angle_gamma    67.58955

_symmetry_space_group_name_H-M    'P 1'
_symmetry_Int_Tables_number       1

loop_
  _symmetry_equiv_pos_as_xyz
  'x,y,z'

loop_
  _atom_site_type_symbol
  _atom_site_label
  _atom_site_symmetry_multiplicity
  _atom_site_fract_x
  _atom_site_fract_y
  _atom_site_fract_z
  _atom_site_occupancy
  Zn  Zn1       1.0  0.60388  0.28298  0.26485  1.0000
  Zn  Zn2       1.0  0.89581  0.2352  0.21727999999999995  1.0000
  Zn  Zn3       1.0  0.34751999999999994  0.26453  0.28333  1.0000
  Zn  Zn4       1.0  0.15258000000000005  0.21654  0.23550999999999994  1.0000
  Zn  Zn5       1.0  0.3961200000000006  0.7170299999999998  0.73515  1.0000
  Zn  Zn6       1.0  0.1042000000000001  0.76481  0.7827199999999997  1.0000
  Zn  Zn7       1.0  0.6524899999999999  0.73547  0.71667  1.0000
  Zn  Zn8       1.0  0.84743  0.78347  0.76449  1.0000
  H   H1        1.0  0.57117  0.48353999999999997  0.13115  1.0000
  H   H2        1.0  0.57101  0.58719  0.02521  1.0000
  H   H3        1.0  0.61411  0.5761  0.79087  1.0000
  H   H4        1.0  0.5124400000000001  0.63695  0.8735  1.0000
  H   H5        1.0  0.60014  0.53964  0.88925  1.0000
  H   H6        1.0  0.7501200000000002  0.17261  0.04406999999999999  1.0000
  H   H7        1.0  0.8561500000000002  0.06774  0.9389499999999997  1.0000
  H   H8        1.0  0.09357999999999998  0.84609  0.91437  1.0000
  H   H9        1.0  0.9926600000000004  0.9271399999999997  0.9791999999999998  1.0000
  H   H10       1.0  0.06060000000000005  0.9450299999999998  0.87749  1.0000
  H   H11       1.0  0.92687  0.36887  0.018579999999999992  1.0000
  H   H12       1.0  0.9288300000000002  0.47349  0.91366  1.0000
  H   H13       1.0  0.8855899999999999  0.70911  0.9237399999999998  1.0000
  H   H14       1.0  0.9877900000000001  0.62647  0.86294  1.0000
  H   H15       1.0  0.9000900000000001  0.6104199999999999  0.9599799999999999  1.0000
  H   H16       1.0  0.74993  0.45595  0.32764  1.0000
  H   H17       1.0  0.6439200000000002  0.56128  0.4323599999999999  1.0000
  H   H18       1.0  0.4069800000000003  0.58548  0.6535599999999998  1.0000
  H   H19       1.0  0.5078000000000001  0.52072  0.5725499999999998  1.0000
  H   H20       1.0  0.43943999999999994  0.62264  0.55489  1.0000
  H   H21       1.0  0.31361999999999995  0.13110999999999998  0.48299  1.0000
  H   H22       1.0  0.3157100000000001  0.025549999999999993  0.58724  1.0000
  H   H23       1.0  0.5191400000000002  0.79163  0.57746  1.0000
  H   H24       1.0  0.47597  0.8745499999999998  0.63812  1.0000
  H   H25       1.0  0.47055000000000013  0.8900899999999999  0.5407099999999998  1.0000
  H   H26       1.0  0.53229  0.04389999999999999  0.17229  1.0000
  H   H27       1.0  0.63784  0.93823  0.06769  1.0000
  H   H28       1.0  0.6449900000000003  0.9148999999999998  0.84692  1.0000
  H   H29       1.0  0.6001699999999996  0.9804199999999998  0.92723  1.0000
  H   H30       1.0  0.6150800000000003  0.8789199999999998  0.9460599999999998  1.0000
  H   H31       1.0  0.18579000000000004  0.01691  0.3693999999999999  1.0000
  H   H32       1.0  0.18454000000000012  0.91235  0.4746399999999999  1.0000
  H   H33       1.0  0.9815600000000001  0.9225299999999997  0.70817  1.0000
  H   H34       1.0  0.024259999999999976  0.86185  0.62547  1.0000
  H   H35       1.0  0.029720000000000073  0.9594  0.6099299999999998  1.0000
  H   H36       1.0  0.9679  0.32741  0.45612  1.0000
  H   H37       1.0  0.8623200000000002  0.43222  0.56161  1.0000
  H   H38       1.0  0.8553500000000002  0.65311  0.58497  1.0000
  H   H39       1.0  0.9002  0.57263  0.51958  1.0000
  H   H40       1.0  0.8852000000000002  0.5538  0.62094  1.0000
  H   H41       1.0  0.42883000000000016  0.51647  0.8688499999999998  1.0000
  H   H42       1.0  0.4290000000000001  0.41281  0.9747899999999999  1.0000
  H   H43       1.0  0.3858900000000001  0.4239  0.20913  1.0000
  H   H44       1.0  0.48756000000000005  0.3630499999999999  0.1265  1.0000
  H   H45       1.0  0.3998700000000001  0.46037  0.11075  1.0000
  H   H46       1.0  0.24988000000000016  0.8273899999999997  0.95593  1.0000
  H   H47       1.0  0.14385000000000003  0.93226  0.06105  1.0000
  H   H48       1.0  0.90642  0.15391  0.08563  1.0000
  H   H49       1.0  0.007340000000000002  0.07285999999999998  0.0208  1.0000
  H   H50       1.0  0.9394000000000005  0.054979999999999994  0.12250999999999998  1.0000
  H   H51       1.0  0.07313000000000008  0.63114  0.98142  1.0000
  H   H52       1.0  0.07116999999999998  0.52651  0.08634  1.0000
  H   H53       1.0  0.11441999999999997  0.2909  0.07627  1.0000
  H   H54       1.0  0.012220000000000083  0.37353  0.13705999999999993  1.0000
  H   H55       1.0  0.09991  0.38958  0.040019999999999986  1.0000
  H   H56       1.0  0.25008  0.54406  0.67236  1.0000
  H   H57       1.0  0.35609  0.43872  0.56764  1.0000
  H   H58       1.0  0.5930200000000001  0.41453  0.34644  1.0000
  H   H59       1.0  0.4922000000000001  0.47928  0.42745  1.0000
  H   H60       1.0  0.5605600000000001  0.37736  0.44511  1.0000
  H   H61       1.0  0.68638  0.8689  0.51701  1.0000
  H   H62       1.0  0.6842900000000002  0.9744599999999999  0.4127599999999999  1.0000
  H   H63       1.0  0.48085999999999995  0.20838  0.42254  1.0000
  H   H64       1.0  0.5240300000000002  0.12546  0.36187999999999987  1.0000
  H   H65       1.0  0.5294500000000002  0.10991  0.45928999999999987  1.0000
  H   H66       1.0  0.46771  0.9561099999999999  0.82771  1.0000
  H   H67       1.0  0.36216  0.06178  0.93231  1.0000
  H   H68       1.0  0.35501  0.08511  0.15307999999999994  1.0000
  H   H69       1.0  0.39983000000000013  0.01958  0.07277  1.0000
  H   H70       1.0  0.3849200000000001  0.12107999999999998  0.05393999999999999  1.0000
  H   H71       1.0  0.8142100000000001  0.9830999999999999  0.6306  1.0000
  H   H72       1.0  0.8154600000000001  0.08764999999999998  0.5253599999999998  1.0000
  H   H73       1.0  0.01845000000000001  0.07748  0.29183  1.0000
  H   H74       1.0  0.97575  0.13816  0.37452999999999986  1.0000
  H   H75       1.0  0.97028  0.0406  0.39007  1.0000
  H   H76       1.0  0.03209999999999993  0.6726  0.54388  1.0000
  H   H77       1.0  0.13768  0.56778  0.43839  1.0000
  H   H78       1.0  0.14466  0.3469  0.4150299999999999  1.0000
  H   H79       1.0  0.09980000000000007  0.42738  0.48042  1.0000
  H   H80       1.0  0.11480000000000005  0.4461999999999999  0.37905999999999995  1.0000
  C   C1        1.0  0.64865  0.48153  0.08275999999999997  1.0000
  C   C2        1.0  0.6490800000000001  0.53933  0.0235  1.0000
  C   C3        1.0  0.68293  0.62399  0.85262  1.0000
  C   C4        1.0  0.5979399999999999  0.59261  0.85141  1.0000
  C   C5        1.0  0.72697  0.12070000000000002  0.0488  1.0000
  C   C6        1.0  0.786  0.061869999999999994  0.9903199999999999  1.0000
  C   C7        1.0  0.9334999999999999  0.89439  0.9002599999999997  1.0000
  C   C8        1.0  0.02487000000000011  0.9036  0.9187599999999998  1.0000
  C   C9        1.0  0.84976  0.41742  0.01983  1.0000
  C   C10       1.0  0.8503700000000001  0.4760899999999999  0.9613999999999999  1.0000
  C   C11       1.0  0.8174400000000004  0.64707  0.8756599999999998  1.0000
  C   C12       1.0  0.90224  0.64839  0.90714  1.0000
  C   C13       1.0  0.7730599999999999  0.4512  0.37946  1.0000
  C   C14       1.0  0.7140700000000001  0.5097599999999999  0.43819999999999987  1.0000
  C   C15       1.0  0.56681  0.5999  0.60528  1.0000
  C   C16       1.0  0.47547999999999996  0.58127  0.5961199999999998  1.0000
  C   C17       1.0  0.28663  0.08256  0.48128  1.0000
  C   C18       1.0  0.28768000000000005  0.02352  0.53936  1.0000
  C   C19       1.0  0.3404200000000003  0.85292  0.6245699999999997  1.0000
  C   C20       1.0  0.45770999999999995  0.85223  0.59362  1.0000
  C   C21       1.0  0.6029400000000001  0.04857  0.12068999999999999  1.0000
  C   C22       1.0  0.66182  0.9899499999999999  0.06194  1.0000
  C   C23       1.0  0.7710400000000001  0.90054  0.8948599999999998  1.0000
  C   C24       1.0  0.6516900000000001  0.91963  0.9042399999999998  1.0000
  C   C25       1.0  0.21306000000000005  0.01863  0.4177199999999999  1.0000
  C   C26       1.0  0.21236  0.96044  0.47663999999999995  1.0000
  C   C27       1.0  0.16016000000000008  0.8752699999999998  0.64682  1.0000
  C   C28       1.0  0.04277999999999995  0.90634  0.64765  1.0000
  C   C29       1.0  0.8972200000000001  0.3790999999999999  0.45143  1.0000
  C   C30       1.0  0.8383600000000001  0.43792  0.50997  1.0000
  C   C31       1.0  0.7293  0.6051899999999999  0.59922  1.0000
  C   C32       1.0  0.8486500000000005  0.5957  0.58024  1.0000
  C   C33       1.0  0.35135  0.51848  0.91724  1.0000
  C   C34       1.0  0.35092000000000023  0.46068  0.9765  1.0000
  C   C35       1.0  0.31708000000000003  0.37601  0.14738  1.0000
  C   C36       1.0  0.4020600000000002  0.40739  0.14859  1.0000
  C   C37       1.0  0.27303000000000016  0.8792999999999997  0.9512  1.0000
  C   C38       1.0  0.21401  0.93814  0.00968  1.0000
  C   C39       1.0  0.06651  0.10562  0.09973999999999998  1.0000
  C   C40       1.0  0.97513  0.09641  0.08124  1.0000
  C   C41       1.0  0.1502400000000001  0.58258  0.9801699999999999  1.0000
  C   C42       1.0  0.14964000000000002  0.52392  0.03859999999999999  1.0000
  C   C43       1.0  0.18256000000000003  0.35293  0.12433999999999999  1.0000
  C   C44       1.0  0.09777000000000005  0.35160999999999987  0.09286  1.0000
  C   C45       1.0  0.22694000000000003  0.54881  0.62054  1.0000
  C   C46       1.0  0.2859400000000001  0.49024999999999996  0.5618  1.0000
  C   C47       1.0  0.4332000000000001  0.40011  0.39472  1.0000
  C   C48       1.0  0.52452  0.41874  0.4038799999999999  1.0000
  C   C49       1.0  0.7133700000000004  0.9174499999999998  0.51872  1.0000
  C   C50       1.0  0.7123300000000001  0.97649  0.4606399999999999  1.0000
  C   C51       1.0  0.6595800000000003  0.14709  0.37543  1.0000
  C   C52       1.0  0.5423  0.14778  0.40638  1.0000
  C   C53       1.0  0.39706000000000014  0.95144  0.87931  1.0000
  C   C54       1.0  0.3381800000000001  0.010059999999999998  0.9380599999999998  1.0000
  C   C55       1.0  0.22896000000000014  0.09946  0.10513999999999998  1.0000
  C   C56       1.0  0.34831  0.08038  0.09575999999999998  1.0000
  C   C57       1.0  0.78695  0.9813799999999999  0.58228  1.0000
  C   C58       1.0  0.7876400000000001  0.03956  0.5233599999999998  1.0000
  C   C59       1.0  0.83984  0.12474  0.35318  1.0000
  C   C60       1.0  0.95722  0.09365999999999997  0.3523599999999999  1.0000
  C   C61       1.0  0.10278000000000002  0.62091  0.54857  1.0000
  C   C62       1.0  0.16163999999999995  0.56208  0.49002999999999997  1.0000
  C   C63       1.0  0.27070000000000005  0.39481  0.40078  1.0000
  C   C64       1.0  0.15135  0.40431  0.41976  1.0000
  C   C65       1.0  0.7482900000000002  0.3573  0.14401999999999995  1.0000
  C   C66       1.0  0.74896  0.41967  0.08131  1.0000
  C   C67       1.0  0.7499800000000001  0.538  0.9618599999999999  1.0000
  C   C68       1.0  0.7502700000000002  0.59954  0.8999899999999997  1.0000
  C   C69       1.0  0.24997000000000016  0.14282999999999996  0.3569799999999999  1.0000
  C   C70       1.0  0.24985999999999994  0.08041  0.41963  1.0000
  C   C71       1.0  0.25016999999999995  0.9616200000000001  0.53826  1.0000
  C   C72       1.0  0.2503000000000002  0.89996  0.5998199999999998  1.0000
  C   C73       1.0  0.25172000000000005  0.6427099999999999  0.85598  1.0000
  C   C74       1.0  0.25104000000000004  0.5803399999999997  0.9187  1.0000
  C   C75       1.0  0.2500300000000001  0.46200999999999987  0.03814  1.0000
  C   C76       1.0  0.24973000000000004  0.40047  0.10000999999999997  1.0000
  C   C77       1.0  0.7500300000000003  0.85717  0.6430199999999998  1.0000
  C   C78       1.0  0.75014  0.91959  0.58037  1.0000
  C   C79       1.0  0.74983  0.03838  0.46174  1.0000
  C   C80       1.0  0.7497000000000001  0.10005  0.40017999999999987  1.0000
  C   C81       1.0  0.5732300000000001  0.17691  0.17755999999999994  1.0000
  C   C82       1.0  0.6349800000000002  0.11457  0.11473  1.0000
  C   C83       1.0  0.75457  0.99533  0.9955899999999999  1.0000
  C   C84       1.0  0.8163  0.93355  0.93376  1.0000
  C   C85       1.0  0.9269900000000004  0.32236  0.32317  1.0000
  C   C86       1.0  0.8651100000000003  0.38514  0.3855499999999999  1.0000
  C   C87       1.0  0.74562  0.50442  0.50458  1.0000
  C   C88       1.0  0.6839900000000001  0.56634  0.5662  1.0000
  C   C89       1.0  0.42677000000000015  0.82309  0.82244  1.0000
  C   C90       1.0  0.3650200000000001  0.88543  0.88527  1.0000
  C   C91       1.0  0.24543  0.00468  0.00441  1.0000
  C   C92       1.0  0.18370000000000009  0.06645  0.06623999999999997  1.0000
  C   C93       1.0  0.0730200000000001  0.6776399999999998  0.6768299999999999  1.0000
  C   C94       1.0  0.13490000000000008  0.61486  0.6144499999999998  1.0000
  C   C95       1.0  0.25439000000000006  0.49559  0.49541999999999997  1.0000
  C   C96       1.0  0.31601000000000024  0.43366  0.4337999999999999  1.0000
  N   N1        1.0  0.7091500000000002  0.68232  0.8029399999999998  1.0000
  N   N2        1.0  0.95573  0.84129  0.84544  1.0000
  N   N3        1.0  0.79099  0.69695  0.8175299999999999  1.0000
  N   N4        1.0  0.5446200000000001  0.65474  0.65833  1.0000
  N   N5        1.0  0.30565000000000003  0.80304  0.6826  1.0000
  N   N6        1.0  0.8563800000000001  0.84579  0.8413999999999999  1.0000
  N   N7        1.0  0.1948500000000002  0.8172599999999999  0.6967499999999998  1.0000
  N   N8        1.0  0.6439600000000001  0.65871  0.65391  1.0000
  N   N9        1.0  0.29085  0.31769  0.19706  1.0000
  N   N10       1.0  0.04427  0.15872  0.15456  1.0000
  N   N11       1.0  0.2090200000000001  0.30306  0.18246999999999994  1.0000
  N   N12       1.0  0.4553900000000001  0.34526  0.34167  1.0000
  N   N13       1.0  0.6943500000000005  0.19697  0.3173999999999999  1.0000
  N   N14       1.0  0.14362  0.15422  0.1586  1.0000
  N   N15       1.0  0.8051600000000005  0.18274  0.3032499999999999  1.0000
  N   N16       1.0  0.3560500000000001  0.3413  0.34608999999999995  1.0000
  O   O1        1.0  0.6577800000000001  0.36906999999999995  0.20479  1.0000
  O   O2        1.0  0.6096600000000004  0.23374999999999999  0.17059  1.0000
  O   O3        1.0  0.83804  0.29587  0.13314999999999994  1.0000
  O   O4        1.0  0.8905399999999999  0.32939  0.2664  1.0000
  O   O5        1.0  0.2663900000000001  0.20448  0.3683499999999999  1.0000
  O   O6        1.0  0.48729000000000017  0.17042999999999994  0.23526999999999995  1.0000
  O   O7        1.0  0.23368000000000008  0.13104999999999997  0.29549  1.0000
  O   O8        1.0  0.013140000000000027  0.26465  0.32956  1.0000
  O   O9        1.0  0.34222000000000014  0.63093  0.79521  1.0000
  O   O10       1.0  0.3903399999999999  0.76625  0.82941  1.0000
  O   O11       1.0  0.1619600000000002  0.70414  0.8668499999999998  1.0000
  O   O12       1.0  0.10947000000000004  0.67062  0.7336  1.0000
  O   O13       1.0  0.7336100000000002  0.7955299999999997  0.6316499999999998  1.0000
  O   O14       1.0  0.5127199999999998  0.82958  0.76473  1.0000
  O   O15       1.0  0.7663200000000004  0.86896  0.70451  1.0000
  O   O16       1.0  0.9868700000000008  0.7353599999999998  0.6704399999999998  1.0000
