data_image0
_chemical_formula_structural       Cd4H80C84O16
_chemical_formula_sum              "Cd4 H80 C84 O16"
_cell_length_a       13.51286
_cell_length_b       14.65596
_cell_length_c       14.65629
_cell_angle_alpha    93.47013000000001
_cell_angle_beta     114.67610999999998
_cell_angle_gamma    114.67524

_symmetry_space_group_name_H-M    'P 1'
_symmetry_Int_Tables_number       1

loop_
  _symmetry_equiv_pos_as_xyz
  'x,y,z'

loop_
  _atom_site_type_symbol
  _atom_site_label
  _atom_site_symmetry_multiplicity
  _atom_site_fract_x
  _atom_site_fract_y
  _atom_site_fract_z
  _atom_site_occupancy
  Cd  Cd1       1.0  0.75  0.9581099999999998  0.04188999999999999  1.0000
  Cd  Cd2       1.0  0.24999999999999994  0.04189999999999998  0.9581  1.0000
  Cd  Cd3       1.0  0.0  0.0  0.0  1.0000
  Cd  Cd4       1.0  0.5  0.0  0.0  1.0000
  H   H1        1.0  0.08876999999999996  0.23110999999999995  0.00835  1.0000
  H   H2        1.0  0.92072  0.34861  0.14308  1.0000
  H   H3        1.0  0.061379999999999935  0.5317899999999999  0.15472  1.0000
  H   H4        1.0  0.22318  0.70397  0.14532  1.0000
  H   H5        1.0  0.39826  0.8435699999999999  0.1315  1.0000
  H   H6        1.0  0.46337999999999996  0.6129199999999999  0.00829  1.0000
  H   H7        1.0  0.28393  0.42414  0.87761  1.0000
  H   H8        1.0  0.17526  0.30563  0.87985  1.0000
  H   H9        1.0  0.13264999999999996  0.49342999999999987  0.84269  1.0000
  H   H10       1.0  0.024959999999999975  0.3735999999999999  0.84394  1.0000
  H   H11       1.0  0.97397  0.37485  0.65792  1.0000
  H   H12       1.0  0.016799999999999975  0.27756  0.68988  1.0000
  H   H13       1.0  0.12469999999999992  0.39755  0.68672  1.0000
  H   H14       1.0  0.32242000000000004  0.31899  0.04417  1.0000
  H   H15       1.0  0.43401  0.4377699999999999  0.04633  1.0000
  H   H16       1.0  0.36175  0.40676  0.21919  1.0000
  H   H17       1.0  0.4750499999999999  0.52437  0.22092999999999996  1.0000
  H   H18       1.0  0.57769  0.42902  0.3261  1.0000
  H   H19       1.0  0.60021  0.4354299999999999  0.21557999999999997  1.0000
  H   H20       1.0  0.48589  0.3175099999999999  0.21535  1.0000
  H   H21       1.0  0.41122  0.99165  0.76889  1.0000
  H   H22       1.0  0.57929  0.85693  0.6514  1.0000
  H   H23       1.0  0.43863  0.84529  0.46822  1.0000
  H   H24       1.0  0.27682999999999985  0.8546899999999997  0.29604  1.0000
  H   H25       1.0  0.1017500000000001  0.86851  0.15644  1.0000
  H   H26       1.0  0.03661999999999993  0.9917099999999998  0.38708  1.0000
  H   H27       1.0  0.21606999999999996  0.12238999999999996  0.57586  1.0000
  H   H28       1.0  0.3247499999999999  0.12015999999999993  0.6943699999999999  1.0000
  H   H29       1.0  0.36735  0.15730999999999995  0.50657  1.0000
  H   H30       1.0  0.47504  0.15605999999999998  0.6264  1.0000
  H   H31       1.0  0.5260399999999998  0.3420799999999999  0.62515  1.0000
  H   H32       1.0  0.4832000000000001  0.3101199999999999  0.72245  1.0000
  H   H33       1.0  0.37531  0.31329  0.60245  1.0000
  H   H34       1.0  0.17757999999999985  0.9558399999999998  0.681  1.0000
  H   H35       1.0  0.06597999999999993  0.9536699999999998  0.56223  1.0000
  H   H36       1.0  0.13824999999999987  0.7808099999999998  0.59324  1.0000
  H   H37       1.0  0.024950000000000024  0.77907  0.47563  1.0000
  H   H38       1.0  0.9223099999999999  0.6738999999999998  0.57098  1.0000
  H   H39       1.0  0.8997899999999999  0.7844299999999997  0.56456  1.0000
  H   H40       1.0  0.014109999999999909  0.7846599999999998  0.68249  1.0000
  H   H41       1.0  0.91123  0.7688999999999998  0.99165  1.0000
  H   H42       1.0  0.07927999999999985  0.6513999999999998  0.85692  1.0000
  H   H43       1.0  0.9386199999999999  0.4682199999999999  0.8452799999999999  1.0000
  H   H44       1.0  0.77682  0.29604  0.85468  1.0000
  H   H45       1.0  0.6017399999999999  0.15643999999999994  0.8684999999999999  1.0000
  H   H46       1.0  0.53662  0.38707999999999987  0.99171  1.0000
  H   H47       1.0  0.71607  0.5758599999999999  0.12239  1.0000
  H   H48       1.0  0.82475  0.6943799999999998  0.12015  1.0000
  H   H49       1.0  0.8673600000000002  0.5065799999999999  0.15731  1.0000
  H   H50       1.0  0.97504  0.62641  0.15606  1.0000
  H   H51       1.0  0.026029999999999918  0.6251599999999998  0.34208  1.0000
  H   H52       1.0  0.9832000000000001  0.7224499999999999  0.31011  1.0000
  H   H53       1.0  0.87531  0.6024499999999999  0.31328  1.0000
  H   H54       1.0  0.67759  0.6810099999999998  0.95583  1.0000
  H   H55       1.0  0.56599  0.5622399999999999  0.95367  1.0000
  H   H56       1.0  0.63826  0.5932399999999998  0.78081  1.0000
  H   H57       1.0  0.5249499999999999  0.4756399999999999  0.77907  1.0000
  H   H58       1.0  0.42231  0.5709899999999998  0.6739  1.0000
  H   H59       1.0  0.39979  0.56457  0.7844199999999999  1.0000
  H   H60       1.0  0.51411  0.6825  0.78465  1.0000
  H   H61       1.0  0.58878  0.008349999999999996  0.23111  1.0000
  H   H62       1.0  0.42072  0.14308000000000004  0.3486000000000001  1.0000
  H   H63       1.0  0.56138  0.15471999999999994  0.53178  1.0000
  H   H64       1.0  0.7231800000000002  0.14531999999999998  0.70396  1.0000
  H   H65       1.0  0.89826  0.1315  0.84356  1.0000
  H   H66       1.0  0.96339  0.008289999999999974  0.61292  1.0000
  H   H67       1.0  0.7839300000000001  0.8776099999999998  0.42414  1.0000
  H   H68       1.0  0.67526  0.8798499999999998  0.30563  1.0000
  H   H69       1.0  0.63265  0.8426899999999998  0.4934299999999999  1.0000
  H   H70       1.0  0.52496  0.84395  0.37359999999999993  1.0000
  H   H71       1.0  0.47397  0.6579299999999999  0.37484  1.0000
  H   H72       1.0  0.5167999999999999  0.68989  0.27755  1.0000
  H   H73       1.0  0.62469  0.68672  0.39755  1.0000
  H   H74       1.0  0.82242  0.04415999999999998  0.31899  1.0000
  H   H75       1.0  0.9340200000000001  0.04632999999999996  0.43776999999999994  1.0000
  H   H76       1.0  0.86175  0.2192  0.40675999999999995  1.0000
  H   H77       1.0  0.97506  0.22092999999999993  0.52437  1.0000
  H   H78       1.0  0.07768999999999998  0.32611  0.42901999999999996  1.0000
  H   H79       1.0  0.10020999999999994  0.21557999999999994  0.43542999999999993  1.0000
  H   H80       1.0  0.9858900000000002  0.21535  0.31751  1.0000
  C   C1        1.0  0.08362999999999995  0.29644999999999994  0.04123  1.0000
  C   C2        1.0  0.99633  0.27934999999999993  0.07604  1.0000
  C   C3        1.0  0.9894300000000001  0.3646  0.11726  1.0000
  C   C4        1.0  0.06790000000000002  0.46645  0.12368999999999998  1.0000
  C   C5        1.0  0.27579  0.68373  0.11637999999999998  1.0000
  C   C6        1.0  0.37338999999999994  0.7617599999999998  0.10853  1.0000
  C   C7        1.0  0.44131  0.73574  0.07085  1.0000
  C   C8        1.0  0.4099  0.6304  0.03813  1.0000
  C   C9        1.0  0.26286  0.4351199999999999  0.0157  1.0000
  C   C10       1.0  0.16251999999999994  0.3979299999999999  0.04822  1.0000
  C   C11       1.0  0.15448  0.48295  0.08902  1.0000
  C   C12       1.0  0.2472499999999999  0.5793899999999997  0.08660999999999999  1.0000
  C   C13       1.0  0.31318000000000007  0.55284  0.04597  1.0000
  C   C14       1.0  0.90891  0.17178  0.06872  1.0000
  C   C15       1.0  0.54782  0.81759  0.06526  1.0000
  C   C16       1.0  0.20724999999999985  0.3901799999999999  0.8959999999999999  1.0000
  C   C17       1.0  0.10082999999999995  0.4089299999999999  0.825  1.0000
  C   C18       1.0  0.05143999999999997  0.3624199999999999  0.70862  1.0000
  C   C19       1.0  0.36477999999999994  0.4043699999999999  0.07297  1.0000
  C   C20       1.0  0.4310399999999999  0.4388499999999999  0.19268  1.0000
  C   C21       1.0  0.52895  0.40328999999999987  0.24012  1.0000
  C   C22       1.0  0.41637000000000013  0.9587699999999999  0.70355  1.0000
  C   C23       1.0  0.5036699999999998  0.9239599999999999  0.72065  1.0000
  C   C24       1.0  0.51057  0.8827399999999999  0.63541  1.0000
  C   C25       1.0  0.43211000000000005  0.87632  0.53356  1.0000
  C   C26       1.0  0.22421999999999986  0.8836199999999997  0.31628  1.0000
  C   C27       1.0  0.12661999999999995  0.8914799999999999  0.23825  1.0000
  C   C28       1.0  0.05868999999999995  0.9291499999999999  0.26427  1.0000
  C   C29       1.0  0.09009999999999983  0.9618699999999998  0.3696  1.0000
  C   C30       1.0  0.23714000000000002  0.98431  0.56488  1.0000
  C   C31       1.0  0.33748  0.95178  0.60207  1.0000
  C   C32       1.0  0.34552  0.9109799999999999  0.51706  1.0000
  C   C33       1.0  0.25274999999999986  0.91339  0.42062  1.0000
  C   C34       1.0  0.18680999999999998  0.9540399999999998  0.44716  1.0000
  C   C35       1.0  0.59109  0.93129  0.82822  1.0000
  C   C36       1.0  0.9521900000000001  0.9347399999999998  0.18241  1.0000
  C   C37       1.0  0.29275  0.104  0.60982  1.0000
  C   C38       1.0  0.39918  0.175  0.59107  1.0000
  C   C39       1.0  0.4485700000000001  0.29137999999999986  0.63758  1.0000
  C   C40       1.0  0.13521999999999992  0.9270399999999998  0.59563  1.0000
  C   C41       1.0  0.06895999999999994  0.8073199999999999  0.56115  1.0000
  C   C42       1.0  0.9710599999999999  0.7598799999999998  0.59671  1.0000
  C   C43       1.0  0.9163799999999998  0.70356  0.9587699999999999  1.0000
  C   C44       1.0  0.0036699999999999255  0.7206499999999999  0.9239599999999999  1.0000
  C   C45       1.0  0.010569999999999913  0.6354099999999998  0.88274  1.0000
  C   C46       1.0  0.9321  0.5335499999999999  0.87631  1.0000
  C   C47       1.0  0.72421  0.31628  0.88362  1.0000
  C   C48       1.0  0.62662  0.23825  0.89147  1.0000
  C   C49       1.0  0.55869  0.26427  0.92915  1.0000
  C   C50       1.0  0.5901  0.3696  0.96187  1.0000
  C   C51       1.0  0.73714  0.56488  0.9843  1.0000
  C   C52       1.0  0.8374799999999999  0.6020699999999999  0.95178  1.0000
  C   C53       1.0  0.84552  0.51706  0.91098  1.0000
  C   C54       1.0  0.7527500000000003  0.4206199999999999  0.91339  1.0000
  C   C55       1.0  0.68682  0.44715999999999984  0.9540299999999999  1.0000
  C   C56       1.0  0.09108999999999999  0.8282299999999998  0.93128  1.0000
  C   C57       1.0  0.4521799999999999  0.18240999999999993  0.9347399999999999  1.0000
  C   C58       1.0  0.7927500000000001  0.60982  0.104  1.0000
  C   C59       1.0  0.89918  0.5910699999999998  0.175  1.0000
  C   C60       1.0  0.94856  0.6375799999999998  0.29138  1.0000
  C   C61       1.0  0.63523  0.5956399999999997  0.92703  1.0000
  C   C62       1.0  0.56897  0.56115  0.80732  1.0000
  C   C63       1.0  0.47106  0.59671  0.75988  1.0000
  C   C64       1.0  0.58363  0.041239999999999985  0.29644  1.0000
  C   C65       1.0  0.4963400000000001  0.07605  0.27935  1.0000
  C   C66       1.0  0.48943  0.11726  0.36459  1.0000
  C   C67       1.0  0.5678999999999998  0.12368999999999997  0.46644  1.0000
  C   C68       1.0  0.7757800000000001  0.11637999999999998  0.6837199999999999  1.0000
  C   C69       1.0  0.87338  0.10852999999999999  0.76175  1.0000
  C   C70       1.0  0.94131  0.07085  0.73573  1.0000
  C   C71       1.0  0.9099000000000002  0.038130000000000025  0.6304  1.0000
  C   C72       1.0  0.76286  0.0157  0.43512  1.0000
  C   C73       1.0  0.66252  0.04822000000000001  0.39793  1.0000
  C   C74       1.0  0.6544800000000001  0.08901999999999996  0.4829399999999999  1.0000
  C   C75       1.0  0.74725  0.08661  0.57938  1.0000
  C   C76       1.0  0.81319  0.04596999999999999  0.55284  1.0000
  C   C77       1.0  0.40891  0.06872  0.17178  1.0000
  C   C78       1.0  0.04782000000000012  0.06526  0.81759  1.0000
  C   C79       1.0  0.7072499999999998  0.8959999999999998  0.39017999999999997  1.0000
  C   C80       1.0  0.60083  0.8249999999999998  0.40893  1.0000
  C   C81       1.0  0.55144  0.70863  0.36242  1.0000
  C   C82       1.0  0.8647800000000001  0.07296999999999995  0.40436999999999995  1.0000
  C   C83       1.0  0.93104  0.19269  0.43885  1.0000
  C   C84       1.0  0.02894999999999998  0.24012  0.40329  1.0000
  O   O1        1.0  0.83187  0.15586999999999995  0.10087  1.0000
  O   O2        1.0  0.91105  0.09210999999999997  0.02476  1.0000
  O   O3        1.0  0.6082  0.79256  0.03243  1.0000
  O   O4        1.0  0.58051  0.91665  0.0976  1.0000
  O   O5        1.0  0.66814  0.8991399999999998  0.8441399999999999  1.0000
  O   O6        1.0  0.58896  0.9752499999999998  0.90789  1.0000
  O   O7        1.0  0.8918  0.96758  0.20744  1.0000
  O   O8        1.0  0.9194899999999999  0.9023999999999998  0.08336  1.0000
  O   O9        1.0  0.16813999999999985  0.8441399999999998  0.89913  1.0000
  O   O10       1.0  0.08895999999999984  0.9078999999999998  0.97524  1.0000
  O   O11       1.0  0.3917999999999999  0.20744999999999994  0.96757  1.0000
  O   O12       1.0  0.41949000000000003  0.08335999999999999  0.9024  1.0000
  O   O13       1.0  0.33186  0.10086999999999999  0.15586  1.0000
  O   O14       1.0  0.41104  0.02476  0.0921  1.0000
  O   O15       1.0  0.10820000000000002  0.032429999999999994  0.79256  1.0000
  O   O16       1.0  0.08051000000000001  0.09760000000000002  0.91664  1.0000
