data_image0
_chemical_formula_structural       Mn4H48C80S8N16O24
_chemical_formula_sum              "Mn4 H48 C80 S8 N16 O24"
_cell_length_a       9.40388
_cell_length_b       11.27248
_cell_length_c       24.79359
_cell_angle_alpha    90.0
_cell_angle_beta     95.80653999999998
_cell_angle_gamma    90.0

_symmetry_space_group_name_H-M    'P 1'
_symmetry_Int_Tables_number       1

loop_
  _symmetry_equiv_pos_as_xyz
  'x,y,z'

loop_
  _atom_site_type_symbol
  _atom_site_label
  _atom_site_symmetry_multiplicity
  _atom_site_fract_x
  _atom_site_fract_y
  _atom_site_fract_z
  _atom_site_occupancy
  Mn  Mn1       1.0  0.57549  0.96401  0.97474  1.0000
  Mn  Mn2       1.0  0.08255  0.56167  0.29427  1.0000
  Mn  Mn3       1.0  0.5754899999999998  0.03599000000000001  0.47473999999999994  1.0000
  Mn  Mn4       1.0  0.08255999999999998  0.4383200000000001  0.7942699999999999  1.0000
  H   H1        1.0  0.37761  0.33178  0.010839999999999999  1.0000
  H   H2        1.0  0.542  0.48066  0.059289999999999995  1.0000
  H   H3        1.0  0.77771  0.52018  0.02724  1.0000
  H   H4        1.0  0.69046  0.2623400000000001  0.8993499999999999  1.0000
  H   H5        1.0  0.90731  0.25272  0.03818  1.0000
  H   H6        1.0  0.9257399999999999  0.22433000000000003  0.13681  1.0000
  H   H7        1.0  0.046369999999999995  0.37645  0.19864999999999997  1.0000
  H   H8        1.0  0.14268  0.58193  0.060399999999999995  1.0000
  H   H9        1.0  0.37170000000000003  0.58239  0.96541  1.0000
  H   H10       1.0  0.59689  0.64393  0.9247499999999998  1.0000
  H   H11       1.0  0.61031  0.60884  0.82524  1.0000
  H   H12       1.0  0.40024  0.51706  0.77042  1.0000
  H   H13       1.0  0.89854  0.9593200000000002  0.51794  1.0000
  H   H14       1.0  0.12119  0.9082900000000003  0.47318  1.0000
  H   H15       1.0  0.11262000000000001  0.9208100000000002  0.37259  1.0000
  H   H16       1.0  0.8855699999999999  0.99357  0.3195  1.0000
  H   H17       1.0  0.2571  0.9688500000000001  0.23778  1.0000
  H   H18       1.0  0.007850000000000005  0.9829800000000001  0.19459  1.0000
  H   H19       1.0  0.84571  0.14178000000000002  0.22419999999999995  1.0000
  H   H20       1.0  0.17812  0.25786  0.34495  1.0000
  H   H21       1.0  0.63218  0.9640200000000001  0.21316  1.0000
  H   H22       1.0  0.49817000000000006  0.16958000000000004  0.07077  1.0000
  H   H23       1.0  0.35971  0.30428000000000005  0.12656  1.0000
  H   H24       1.0  0.35589  0.26812  0.22415  1.0000
  H   H25       1.0  0.37761  0.6682200000000001  0.51083  1.0000
  H   H26       1.0  0.54199  0.51934  0.55929  1.0000
  H   H27       1.0  0.77771  0.47982  0.52724  1.0000
  H   H28       1.0  0.69046  0.73767  0.39935  1.0000
  H   H29       1.0  0.9072999999999999  0.7472800000000002  0.53818  1.0000
  H   H30       1.0  0.9257399999999999  0.77567  0.6368  1.0000
  H   H31       1.0  0.04637  0.6235500000000002  0.69865  1.0000
  H   H32       1.0  0.14268  0.4180700000000001  0.5604  1.0000
  H   H33       1.0  0.3717  0.41761  0.46541  1.0000
  H   H34       1.0  0.59689  0.35607000000000005  0.42475  1.0000
  H   H35       1.0  0.61031  0.39116  0.32523999999999986  1.0000
  H   H36       1.0  0.40023  0.4829400000000001  0.27042  1.0000
  H   H37       1.0  0.89854  0.04068000000000001  0.01794  1.0000
  H   H38       1.0  0.12118999999999996  0.09171000000000003  0.9731799999999998  1.0000
  H   H39       1.0  0.11262000000000001  0.07919000000000001  0.8725899999999999  1.0000
  H   H40       1.0  0.8855800000000001  0.006430000000000002  0.8195  1.0000
  H   H41       1.0  0.2571  0.031150000000000004  0.73778  1.0000
  H   H42       1.0  0.007849999999999946  0.01702  0.6945899999999998  1.0000
  H   H43       1.0  0.84571  0.85822  0.7242  1.0000
  H   H44       1.0  0.17813000000000007  0.74215  0.84495  1.0000
  H   H45       1.0  0.63218  0.03598  0.71316  1.0000
  H   H46       1.0  0.49817999999999996  0.83042  0.57077  1.0000
  H   H47       1.0  0.35972  0.69572  0.62656  1.0000
  H   H48       1.0  0.35589999999999994  0.7318800000000002  0.7241499999999998  1.0000
  C   C1        1.0  0.52541  0.29044  0.95251  1.0000
  C   C2        1.0  0.4827699999999999  0.3492  0.99787  1.0000
  C   C3        1.0  0.57433  0.4325  0.02447999999999999  1.0000
  C   C4        1.0  0.70774  0.45448  0.00637  1.0000
  C   C5        1.0  0.75266  0.39144  0.9620599999999999  1.0000
  C   C6        1.0  0.6588299999999999  0.31028  0.9342599999999999  1.0000
  C   C7        1.0  0.8982399999999999  0.40753  0.94575  1.0000
  C   C8        1.0  0.01814999999999998  0.43670000000000003  0.98368  1.0000
  C   C9        1.0  0.02376  0.41934  0.04249  1.0000
  C   C10       1.0  0.96229  0.31889000000000006  0.06451  1.0000
  C   C11       1.0  0.9724600000000001  0.30316  0.12048999999999999  1.0000
  C   C12       1.0  0.0415  0.38788  0.15499  1.0000
  C   C13       1.0  0.10185999999999999  0.48815  0.13294  1.0000
  C   C14       1.0  0.09516  0.50381  0.07701  1.0000
  C   C15       1.0  0.14412  0.4725500000000001  0.91145  1.0000
  C   C16       1.0  0.27298  0.51802  0.88944  1.0000
  C   C17       1.0  0.38398  0.5707900000000001  0.92266  1.0000
  C   C18       1.0  0.50765  0.60369  0.89993  1.0000
  C   C19       1.0  0.5164699999999999  0.5833300000000001  0.8448799999999999  1.0000
  C   C20       1.0  0.3998999999999999  0.53333  0.8137999999999999  1.0000
  C   C21       1.0  0.9021000000000001  0.96508  0.47421  1.0000
  C   C22       1.0  0.02401999999999997  0.93698  0.4491599999999999  1.0000
  C   C23       1.0  0.01933  0.94481  0.3928  1.0000
  C   C24       1.0  0.8941000000000001  0.9836100000000001  0.3632699999999999  1.0000
  C   C25       1.0  0.7767  0.01212  0.39100999999999997  1.0000
  C   C26       1.0  0.64304  0.05738  0.36258999999999997  1.0000
  C   C27       1.0  0.50139  0.09249  0.28415  1.0000
  C   C28       1.0  0.38575  0.11055  0.31663  1.0000
  C   C29       1.0  0.23547999999999997  0.11541  0.29303  1.0000
  C   C30       1.0  0.18601  0.03656  0.25114  1.0000
  C   C31       1.0  0.04596  0.04458000000000001  0.22671  1.0000
  C   C32       1.0  0.95478  0.13276  0.24305  1.0000
  C   C33       1.0  0.0034000000000000046  0.20870000000000002  0.28554  1.0000
  C   C34       1.0  0.14193  0.19952000000000006  0.31143  1.0000
  C   C35       1.0  0.49316  0.11300000000000002  0.22547  1.0000
  C   C36       1.0  0.57232  0.03828000000000001  0.19439999999999996  1.0000
  C   C37       1.0  0.5724  0.05902  0.13911  1.0000
  C   C38       1.0  0.4959700000000001  0.1541  0.11397999999999998  1.0000
  C   C39       1.0  0.41795  0.2287  0.14503  1.0000
  C   C40       1.0  0.41541  0.20815000000000006  0.20044999999999996  1.0000
  C   C41       1.0  0.52541  0.7095700000000001  0.45251  1.0000
  C   C42       1.0  0.4827699999999999  0.6508  0.49787  1.0000
  C   C43       1.0  0.57433  0.56751  0.52448  1.0000
  C   C44       1.0  0.70774  0.54553  0.50637  1.0000
  C   C45       1.0  0.75266  0.60857  0.46206  1.0000
  C   C46       1.0  0.65883  0.68972  0.43426  1.0000
  C   C47       1.0  0.89823  0.59247  0.44575  1.0000
  C   C48       1.0  0.018150000000000003  0.5633  0.48368  1.0000
  C   C49       1.0  0.023760000000000007  0.58066  0.54249  1.0000
  C   C50       1.0  0.96229  0.68111  0.56451  1.0000
  C   C51       1.0  0.9724600000000001  0.69684  0.62049  1.0000
  C   C52       1.0  0.04149999999999994  0.6121200000000001  0.6549899999999999  1.0000
  C   C53       1.0  0.10186000000000003  0.5118500000000001  0.63294  1.0000
  C   C54       1.0  0.09516  0.49619  0.577  1.0000
  C   C55       1.0  0.14412  0.52745  0.41145  1.0000
  C   C56       1.0  0.27296999999999993  0.48198  0.38943999999999995  1.0000
  C   C57       1.0  0.38397  0.42922  0.4226599999999999  1.0000
  C   C58       1.0  0.50765  0.3963200000000001  0.39992999999999995  1.0000
  C   C59       1.0  0.51647  0.41667  0.34487999999999996  1.0000
  C   C60       1.0  0.39989  0.46667  0.3138  1.0000
  C   C61       1.0  0.9021000000000001  0.03492  0.9742099999999999  1.0000
  C   C62       1.0  0.024020000000000017  0.06302  0.94916  1.0000
  C   C63       1.0  0.01932999999999999  0.05520000000000001  0.8928  1.0000
  C   C64       1.0  0.8941000000000001  0.01639  0.86326  1.0000
  C   C65       1.0  0.7767099999999999  0.9878800000000001  0.8910099999999997  1.0000
  C   C66       1.0  0.64305  0.9426200000000001  0.86259  1.0000
  C   C67       1.0  0.5014  0.9075100000000001  0.7841499999999999  1.0000
  C   C68       1.0  0.38575  0.88945  0.81663  1.0000
  C   C69       1.0  0.23547999999999997  0.88459  0.79303  1.0000
  C   C70       1.0  0.18601  0.9634400000000001  0.75114  1.0000
  C   C71       1.0  0.04595999999999998  0.95542  0.7267099999999999  1.0000
  C   C72       1.0  0.95478  0.86724  0.74305  1.0000
  C   C73       1.0  0.003409999999999984  0.79129  0.78554  1.0000
  C   C74       1.0  0.14194  0.80048  0.81143  1.0000
  C   C75       1.0  0.49316  0.887  0.72547  1.0000
  C   C76       1.0  0.57232  0.9617200000000001  0.6944  1.0000
  C   C77       1.0  0.57241  0.9409800000000003  0.63911  1.0000
  C   C78       1.0  0.4959700000000001  0.8459  0.61398  1.0000
  C   C79       1.0  0.41795  0.7713  0.64503  1.0000
  C   C80       1.0  0.4154099999999999  0.79185  0.7004499999999998  1.0000
  S   S1        1.0  0.40900000000000003  0.18303  0.9195  1.0000
  S   S2        1.0  0.20527  0.5918500000000001  0.17512  1.0000
  S   S3        1.0  0.68454  0.96808  0.10259  1.0000
  S   S4        1.0  0.8889599999999999  0.32242000000000004  0.30611  1.0000
  S   S5        1.0  0.409  0.8169700000000001  0.41950999999999994  1.0000
  S   S6        1.0  0.20527  0.40815  0.67512  1.0000
  S   S7        1.0  0.68454  0.03192  0.60259  1.0000
  S   S8        1.0  0.8889699999999999  0.67757  0.80611  1.0000
  N   N1        1.0  0.91768  0.3918900000000001  0.89339  1.0000
  N   N2        1.0  0.044889999999999965  0.41673  0.87655  1.0000
  N   N3        1.0  0.13542000000000007  0.47993  0.96455  1.0000
  N   N4        1.0  0.2793  0.50208  0.83551  1.0000
  N   N5        1.0  0.54503  0.10275  0.3938  1.0000
  N   N6        1.0  0.4124  0.12313000000000003  0.37035  1.0000
  N   N7        1.0  0.62675  0.05646000000000001  0.30873  1.0000
  N   N8        1.0  0.77924  0.00062  0.44569  1.0000
  N   N9        1.0  0.91768  0.60811  0.39338999999999996  1.0000
  N   N10       1.0  0.044879999999999996  0.58327  0.37655  1.0000
  N   N11       1.0  0.13542  0.52007  0.46454999999999996  1.0000
  N   N12       1.0  0.2793  0.49792  0.33551  1.0000
  N   N13       1.0  0.54503  0.8972600000000001  0.8938  1.0000
  N   N14       1.0  0.4124  0.87688  0.87035  1.0000
  N   N15       1.0  0.62676  0.94354  0.80873  1.0000
  N   N16       1.0  0.77925  0.9993900000000001  0.94569  1.0000
  O   O1        1.0  0.41556  0.08300000000000002  0.96198  1.0000
  O   O2        1.0  0.26466  0.23314000000000004  0.91331  1.0000
  O   O3        1.0  0.47076  0.14831  0.87001  1.0000
  O   O4        1.0  0.11458  0.61908  0.22192  1.0000
  O   O5        1.0  0.22211  0.69802  0.14306  1.0000
  O   O6        1.0  0.33483  0.5244  0.19405999999999995  1.0000
  O   O7        1.0  0.91477  0.3332  0.36524  1.0000
  O   O8        1.0  0.74403  0.29211  0.28315  1.0000
  O   O9        1.0  0.94158  0.43202000000000007  0.27729  1.0000
  O   O10       1.0  0.72983  0.86804  0.13713  1.0000
  O   O11       1.0  0.58583  0.92808  0.05249  1.0000
  O   O12       1.0  0.79699  0.04817  0.08653  1.0000
  O   O13       1.0  0.41556  0.9170000000000001  0.46198  1.0000
  O   O14       1.0  0.26466  0.76687  0.41330999999999996  1.0000
  O   O15       1.0  0.47076  0.85169  0.37001  1.0000
  O   O16       1.0  0.11458  0.38092  0.72191  1.0000
  O   O17       1.0  0.22211  0.30198  0.64306  1.0000
  O   O18       1.0  0.33483  0.47560000000000013  0.69406  1.0000
  O   O19       1.0  0.91477  0.6668  0.86524  1.0000
  O   O20       1.0  0.74404  0.70789  0.78315  1.0000
  O   O21       1.0  0.94158  0.56796  0.77729  1.0000
  O   O22       1.0  0.72983  0.13197000000000003  0.63713  1.0000
  O   O23       1.0  0.58583  0.07191000000000002  0.55249  1.0000
  O   O24       1.0  0.797  0.95183  0.58653  1.0000
