data_image0
_chemical_formula_structural       Cd16H48C48N72
_chemical_formula_sum              "Cd16 H48 C48 N72"
_cell_length_a       8.14074
_cell_length_b       18.14463
_cell_length_c       22.709429999999998
_cell_angle_alpha    90.00178999999999
_cell_angle_beta     90.0
_cell_angle_gamma    90.0

_space_group_name_H-M_alt    "P 1"
_space_group_IT_number       1

loop_
  _space_group_symop_operation_xyz
  'x, y, z'

loop_
  _atom_site_type_symbol
  _atom_site_label
  _atom_site_symmetry_multiplicity
  _atom_site_fract_x
  _atom_site_fract_y
  _atom_site_fract_z
  _atom_site_occupancy
  Cd  Cd1       1.0  0.88394  0.10007  0.13405  1.0000
  Cd  Cd2       1.0  0.9733  0.25649999999999995  0.88649  1.0000
  Cd  Cd3       1.0  0.11535  0.40038999999999997  0.63403  1.0000
  Cd  Cd4       1.0  0.02675  0.24312999999999999  0.38648000000000005  1.0000
  Cd  Cd5       1.0  0.38395  0.89993  0.36595  1.0000
  Cd  Cd6       1.0  0.47331  0.7434899999999998  0.61351  1.0000
  Cd  Cd7       1.0  0.61535  0.5996099999999998  0.8659699999999999  1.0000
  Cd  Cd8       1.0  0.52675  0.75686  0.11352  1.0000
  Cd  Cd9       1.0  0.11603999999999999  0.89993  0.8659499999999999  1.0000
  Cd  Cd10      1.0  0.02669  0.7434999999999998  0.11351  1.0000
  Cd  Cd11      1.0  0.8846399999999998  0.5996099999999998  0.36597  1.0000
  Cd  Cd12      1.0  0.97324  0.75687  0.61352  1.0000
  Cd  Cd13      1.0  0.61604  0.10005999999999997  0.63405  1.0000
  Cd  Cd14      1.0  0.52668  0.25649999999999995  0.38649000000000006  1.0000
  Cd  Cd15      1.0  0.38464  0.40038999999999997  0.13403  1.0000
  Cd  Cd16      1.0  0.47322999999999993  0.24312999999999999  0.88649  1.0000
  H   H1        1.0  0.49817  0.1688  0.04086  1.0000
  H   H2        1.0  0.00387  0.14983  0.00835  1.0000
  H   H3        1.0  0.54703  0.95682  0.11492  1.0000
  H   H4        1.0  0.05768  0.93127  0.13245  1.0000
  H   H5        1.0  0.030979999999999997  0.131  0.26271  1.0000
  H   H6        1.0  0.53306  0.17988  0.2348  1.0000
  H   H7        1.0  0.50191  0.33130999999999994  0.54081  1.0000
  H   H8        1.0  0.9962500000000001  0.3500599999999999  0.50822  1.0000
  H   H9        1.0  0.45303  0.5439399999999999  0.61494  1.0000
  H   H10       1.0  0.9426  0.5693199999999998  0.63255  1.0000
  H   H11       1.0  0.9692  0.36864999999999987  0.7627500000000002  1.0000
  H   H12       1.0  0.46706  0.31976  0.73482  1.0000
  H   H13       1.0  0.9981700000000001  0.8312  0.45914  1.0000
  H   H14       1.0  0.50387  0.85016  0.4916499999999999  1.0000
  H   H15       1.0  0.04703  0.043169999999999986  0.38508999999999993  1.0000
  H   H16       1.0  0.55768  0.06872999999999997  0.36755  1.0000
  H   H17       1.0  0.53098  0.869  0.23729999999999998  1.0000
  H   H18       1.0  0.03307  0.82012  0.26521  1.0000
  H   H19       1.0  0.00191  0.6686899999999998  0.9592  1.0000
  H   H20       1.0  0.4962500000000001  0.64994  0.99178  1.0000
  H   H21       1.0  0.95303  0.45606  0.88506  1.0000
  H   H22       1.0  0.4425999999999999  0.4306799999999999  0.86745  1.0000
  H   H23       1.0  0.46921  0.6313499999999999  0.73725  1.0000
  H   H24       1.0  0.96707  0.68023  0.76518  1.0000
  H   H25       1.0  0.50182  0.8312  0.95914  1.0000
  H   H26       1.0  0.99611  0.85016  0.9916500000000001  1.0000
  H   H27       1.0  0.45296  0.043169999999999986  0.8850900000000002  1.0000
  H   H28       1.0  0.94231  0.06872999999999997  0.8675499999999999  1.0000
  H   H29       1.0  0.96901  0.869  0.73729  1.0000
  H   H30       1.0  0.46693  0.82012  0.7652099999999998  1.0000
  H   H31       1.0  0.4980800000000001  0.6686899999999998  0.45919  1.0000
  H   H32       1.0  0.00373  0.64994  0.49178  1.0000
  H   H33       1.0  0.54696  0.45606  0.38506  1.0000
  H   H34       1.0  0.05738  0.4306799999999999  0.36744999999999994  1.0000
  H   H35       1.0  0.03078  0.6313499999999999  0.23724999999999996  1.0000
  H   H36       1.0  0.53292  0.68023  0.26519  1.0000
  H   H37       1.0  0.00182  0.1688  0.54087  1.0000
  H   H38       1.0  0.49612000000000006  0.14983  0.50835  1.0000
  H   H39       1.0  0.95295  0.95682  0.61492  1.0000
  H   H40       1.0  0.44231  0.93127  0.63245  1.0000
  H   H41       1.0  0.46901  0.131  0.76271  1.0000
  H   H42       1.0  0.96692  0.17986999999999995  0.73479  1.0000
  H   H43       1.0  0.99807  0.33130999999999994  0.04081  1.0000
  H   H44       1.0  0.50374  0.35005  0.00822  1.0000
  H   H45       1.0  0.04696  0.5439399999999999  0.11494  1.0000
  H   H46       1.0  0.55738  0.5693199999999998  0.13255  1.0000
  H   H47       1.0  0.53078  0.36864999999999987  0.26275  1.0000
  H   H48       1.0  0.03292  0.31976  0.23481999999999997  1.0000
  C   C1        1.0  0.61797  0.17131  0.02017  1.0000
  C   C2        1.0  0.87401  0.16168  0.0036100000000000004  1.0000
  C   C3        1.0  0.66927  0.9334999999999999  0.11785  1.0000
  C   C4        1.0  0.9276699999999998  0.9204799999999999  0.12689  1.0000
  C   C5        1.0  0.9060699999999998  0.15039  0.26854  1.0000
  C   C6        1.0  0.65433  0.17568  0.25413  1.0000
  C   C7        1.0  0.3821599999999999  0.3287199999999999  0.52008  1.0000
  C   C8        1.0  0.12615  0.33827  0.5035  1.0000
  C   C9        1.0  0.33084  0.5672999999999999  0.61789  1.0000
  C   C10       1.0  0.0725  0.5802499999999998  0.62689  1.0000
  C   C11       1.0  0.09401  0.34908  0.76849  1.0000
  C   C12       1.0  0.3457  0.32382999999999995  0.7541  1.0000
  C   C13       1.0  0.11797  0.8286899999999999  0.47983  1.0000
  C   C14       1.0  0.37401  0.8383099999999998  0.49639  1.0000
  C   C15       1.0  0.16928  0.06649999999999999  0.38215  1.0000
  C   C16       1.0  0.42767  0.07952  0.37310999999999994  1.0000
  C   C17       1.0  0.40607  0.8496099999999998  0.23146  1.0000
  C   C18       1.0  0.15434  0.8243199999999999  0.24587000000000003  1.0000
  C   C19       1.0  0.88216  0.67128  0.97993  1.0000
  C   C20       1.0  0.62614  0.66173  0.9964999999999999  1.0000
  C   C21       1.0  0.83084  0.43269999999999986  0.8821099999999998  1.0000
  C   C22       1.0  0.57249  0.4197499999999999  0.8731100000000002  1.0000
  C   C23       1.0  0.59401  0.65091  0.73151  1.0000
  C   C24       1.0  0.8457  0.67617  0.7459  1.0000
  C   C25       1.0  0.3820199999999999  0.8286899999999999  0.97983  1.0000
  C   C26       1.0  0.12596999999999994  0.8383199999999997  0.9963899999999999  1.0000
  C   C27       1.0  0.33071  0.06649999999999999  0.8821499999999999  1.0000
  C   C28       1.0  0.07232  0.07952  0.8731100000000002  1.0000
  C   C29       1.0  0.09392  0.8496099999999998  0.73146  1.0000
  C   C30       1.0  0.34566  0.8243199999999999  0.7458700000000001  1.0000
  C   C31       1.0  0.6178299999999999  0.67128  0.47992  1.0000
  C   C32       1.0  0.87384  0.66173  0.4965  1.0000
  C   C33       1.0  0.6691499999999998  0.43269999999999986  0.38210999999999995  1.0000
  C   C34       1.0  0.9274899999999998  0.4197399999999999  0.37310999999999994  1.0000
  C   C35       1.0  0.9059799999999998  0.65091  0.23151  1.0000
  C   C36       1.0  0.65428  0.67617  0.2459  1.0000
  C   C37       1.0  0.88202  0.17131  0.52017  1.0000
  C   C38       1.0  0.62598  0.16169  0.50361  1.0000
  C   C39       1.0  0.83071  0.9334999999999999  0.61785  1.0000
  C   C40       1.0  0.57232  0.9204799999999999  0.62689  1.0000
  C   C41       1.0  0.59391  0.15039  0.7685399999999999  1.0000
  C   C42       1.0  0.84565  0.17567  0.75413  1.0000
  C   C43       1.0  0.11783  0.3287199999999999  0.02008  1.0000
  C   C44       1.0  0.37385  0.33827  0.0035  1.0000
  C   C45       1.0  0.16915  0.5672999999999999  0.11789000000000001  1.0000
  C   C46       1.0  0.42749  0.5802499999999998  0.12689  1.0000
  C   C47       1.0  0.40598  0.34909  0.26849  1.0000
  C   C48       1.0  0.15428  0.32382999999999995  0.2541  1.0000
  N   N1        1.0  0.7593999999999999  0.14657999999999993  0.04523  1.0000
  N   N2        1.0  0.8095  0.19354  0.95608  1.0000
  N   N3        1.0  0.64334  0.19982999999999995  0.96663  1.0000
  N   N4        1.0  0.78453  0.14152999999999996  0.22826  1.0000
  N   N5        1.0  0.69226  0.20354  0.30689  1.0000
  N   N6        1.0  0.85545  0.18687  0.31614  1.0000
  N   N7        1.0  0.8089899999999998  0.9730299999999998  0.1263  1.0000
  N   N8        1.0  0.69937  0.86127  0.11362  1.0000
  N   N9        1.0  0.86663  0.8529699999999998  0.11954  1.0000
  N   N10       1.0  0.24071  0.35343999999999987  0.54511  1.0000
  N   N11       1.0  0.19068  0.30636  0.45597  1.0000
  N   N12       1.0  0.35685  0.30011  0.46654  1.0000
  N   N13       1.0  0.21574  0.35827  0.7283399999999999  1.0000
  N   N14       1.0  0.30751  0.2955099999999999  0.8066899999999999  1.0000
  N   N15       1.0  0.14429  0.31212  0.8159099999999999  1.0000
  N   N16       1.0  0.19123999999999994  0.52777  0.62644  1.0000
  N   N17       1.0  0.30065  0.63951  0.61348  1.0000
  N   N18       1.0  0.13339  0.64777  0.61938  1.0000
  N   N19       1.0  0.2594  0.8534199999999998  0.45477  1.0000
  N   N20       1.0  0.30951  0.80645  0.54393  1.0000
  N   N21       1.0  0.14335  0.8001599999999998  0.53337  1.0000
  N   N22       1.0  0.28452999999999995  0.8584699999999998  0.27174  1.0000
  N   N23       1.0  0.19226  0.7964599999999997  0.19310999999999998  1.0000
  N   N24       1.0  0.3554499999999999  0.8131199999999997  0.18386000000000002  1.0000
  N   N25       1.0  0.30899  0.026969999999999994  0.37370000000000003  1.0000
  N   N26       1.0  0.19937  0.13873  0.38638  1.0000
  N   N27       1.0  0.36663  0.14703  0.38046  1.0000
  N   N28       1.0  0.7407099999999998  0.64655  0.95489  1.0000
  N   N29       1.0  0.69069  0.69363  0.04403  1.0000
  N   N30       1.0  0.8568499999999999  0.69988  0.03346  1.0000
  N   N31       1.0  0.71575  0.64173  0.77166  1.0000
  N   N32       1.0  0.80751  0.7044899999999998  0.69331  1.0000
  N   N33       1.0  0.64429  0.68788  0.68409  1.0000
  N   N34       1.0  0.69124  0.4722299999999999  0.8735599999999999  1.0000
  N   N35       1.0  0.80064  0.3604799999999999  0.8865199999999999  1.0000
  N   N36       1.0  0.63338  0.35223  0.8806200000000001  1.0000
  N   N37       1.0  0.24059  0.8534199999999998  0.95477  1.0000
  N   N38       1.0  0.19049  0.80646  0.04393  1.0000
  N   N39       1.0  0.35664  0.8001599999999998  0.03337  1.0000
  N   N40       1.0  0.21546  0.8584699999999998  0.77174  1.0000
  N   N41       1.0  0.30772999999999995  0.7964599999999997  0.69311  1.0000
  N   N42       1.0  0.14454  0.81313  0.68386  1.0000
  N   N43       1.0  0.191  0.026969999999999994  0.8737  1.0000
  N   N44       1.0  0.30061999999999994  0.13873  0.88638  1.0000
  N   N45       1.0  0.13336  0.14703  0.88046  1.0000
  N   N46       1.0  0.75928  0.64655  0.45489  1.0000
  N   N47       1.0  0.8093  0.69363  0.54403  1.0000
  N   N48       1.0  0.64314  0.69988  0.53346  1.0000
  N   N49       1.0  0.78424  0.64173  0.27166  1.0000
  N   N50       1.0  0.6924799999999998  0.7044899999999998  0.19331  1.0000
  N   N51       1.0  0.8557  0.68788  0.18409  1.0000
  N   N52       1.0  0.80875  0.4722299999999999  0.37356  1.0000
  N   N53       1.0  0.69934  0.3604799999999999  0.38652  1.0000
  N   N54       1.0  0.8665999999999998  0.35223  0.38062  1.0000
  N   N55       1.0  0.74059  0.14657999999999993  0.54523  1.0000
  N   N56       1.0  0.6904799999999998  0.19355  0.45608000000000004  1.0000
  N   N57       1.0  0.85664  0.19984  0.46662999999999993  1.0000
  N   N58       1.0  0.7154599999999998  0.14152999999999996  0.72826  1.0000
  N   N59       1.0  0.80772  0.20352999999999993  0.80689  1.0000
  N   N60       1.0  0.64453  0.18687  0.81614  1.0000
  N   N61       1.0  0.691  0.97302  0.6263  1.0000
  N   N62       1.0  0.80062  0.86127  0.61362  1.0000
  N   N63       1.0  0.63336  0.8529699999999998  0.61954  1.0000
  N   N64       1.0  0.25928  0.35343999999999987  0.04510999999999999  1.0000
  N   N65       1.0  0.3093  0.30637  0.95597  1.0000
  N   N66       1.0  0.14312999999999995  0.30011999999999994  0.96654  1.0000
  N   N67       1.0  0.28424  0.35827  0.22834  1.0000
  N   N68       1.0  0.19248  0.2955099999999999  0.30669  1.0000
  N   N69       1.0  0.35569  0.31212  0.31591  1.0000
  N   N70       1.0  0.30875  0.52777  0.12644  1.0000
  N   N71       1.0  0.19935  0.63951  0.11348000000000001  1.0000
  N   N72       1.0  0.36661  0.64777  0.11937999999999999  1.0000
