data_image0
_chemical_formula_structural       Cd6H30C74N12O36
_chemical_formula_sum              "Cd6 H30 C74 N12 O36"
_cell_length_a       14.10716
_cell_length_b       15.12611
_cell_length_c       15.126129999999998
_cell_angle_alpha    103.05001
_cell_angle_beta     110.87228
_cell_angle_gamma    110.87229999999998

_space_group_name_H-M_alt    "P 1"
_space_group_IT_number       1

loop_
  _space_group_symop_operation_xyz
  'x, y, z'

loop_
  _atom_site_type_symbol
  _atom_site_label
  _atom_site_symmetry_multiplicity
  _atom_site_fract_x
  _atom_site_fract_y
  _atom_site_fract_z
  _atom_site_occupancy
  Cd  Cd1       1.0  0.008480000000000053  0.4017000000000001  0.7175  1.0000
  Cd  Cd2       1.0  0.49152  0.2825  0.59829  1.0000
  Cd  Cd3       1.0  0.99152  0.59829  0.2825  1.0000
  Cd  Cd4       1.0  0.50848  0.7175000000000002  0.40171  1.0000
  Cd  Cd5       1.0  3.1479703203909405e-17  0.5  0.5  1.0000
  Cd  Cd6       1.0  0.5  0.5  0.5  1.0000
  H   H1        1.0  0.12119000000000005  0.8845400000000002  0.02662  1.0000
  H   H2        1.0  0.059670000000000036  0.73742  0.85764  1.0000
  H   H3        1.0  0.8733600000000001  0.8925000000000001  0.7331500000000001  1.0000
  H   H4        1.0  0.7717200000000001  0.5795100000000002  0.55109  1.0000
  H   H5        1.0  0.28758  0.24393999999999996  0.19177  1.0000
  H   H6        1.0  0.2604500000000001  0.4839900000000001  0.09496  1.0000
  H   H7        1.0  0.07408000000000009  0.1687000000000001  0.8689700000000001  1.0000
  H   H8        1.0  0.3788  0.97337  0.11545  1.0000
  H   H9        1.0  0.44033  0.14236000000000004  0.26257  1.0000
  H   H10       1.0  0.62664  0.26685  0.10749  1.0000
  H   H11       1.0  0.72828  0.44890000000000013  0.42049  1.0000
  H   H12       1.0  0.21241999999999986  0.80822  0.75606  1.0000
  H   H13       1.0  0.23954999999999996  0.9050299999999999  0.516  1.0000
  H   H14       1.0  0.42592  0.13102  0.8313  1.0000
  H   H15       1.0  0.8788  0.11545  0.97337  1.0000
  H   H16       1.0  0.94033  0.26257  0.14236  1.0000
  H   H17       1.0  0.12664000000000003  0.10749000000000003  0.26685  1.0000
  H   H18       1.0  0.22827  0.4204900000000001  0.4489  1.0000
  H   H19       1.0  0.7124200000000002  0.75606  0.80823  1.0000
  H   H20       1.0  0.7395499999999999  0.5160000000000002  0.90504  1.0000
  H   H21       1.0  0.9259200000000001  0.8313000000000001  0.13102  1.0000
  H   H22       1.0  0.62119  0.02661999999999997  0.88454  1.0000
  H   H23       1.0  0.5596700000000001  0.8576400000000002  0.7374300000000001  1.0000
  H   H24       1.0  0.37335999999999997  0.73314  0.89251  1.0000
  H   H25       1.0  0.27172  0.5510900000000001  0.57951  1.0000
  H   H26       1.0  0.7875799999999998  0.19177000000000005  0.24394  1.0000
  H   H27       1.0  0.76045  0.09496  0.48399  1.0000
  H   H28       1.0  0.5740800000000003  0.8689700000000002  0.1687  1.0000
  H   H29       1.0  0.7500000000000001  0.3727000000000001  0.62729  1.0000
  H   H30       1.0  0.2500000000000001  0.6272900000000002  0.37271  1.0000
  C   C1        1.0  0.9395  0.55966  0.68538  1.0000
  C   C2        1.0  0.9187400000000001  0.65111  0.70284  1.0000
  C   C3        1.0  0.99009  0.73827  0.7966000000000001  1.0000
  C   C4        1.0  0.97397  0.82591  0.80739  1.0000
  C   C5        1.0  0.88469  0.8242400000000002  0.7247600000000001  1.0000
  C   C6        1.0  0.8111800000000001  0.73532  0.6334100000000001  1.0000
  C   C7        1.0  0.82862  0.64901  0.62215  1.0000
  C   C8        1.0  0.71385  0.73207  0.54714  1.0000
  C   C9        1.0  0.04881000000000007  0.9229500000000003  0.89818  1.0000
  C   C10       1.0  0.13946999999999998  0.08355999999999997  0.99699  1.0000
  C   C11       1.0  0.17594  0.19331000000000007  0.02704  1.0000
  C   C12       1.0  0.25215  0.26714  0.13013  1.0000
  C   C13       1.0  0.28276  0.3715500000000001  0.15369  1.0000
  C   C14       1.0  0.23681000000000002  0.4027100000000001  0.07558  1.0000
  C   C15       1.0  0.16091000000000003  0.32900000000000007  0.97275  1.0000
  C   C16       1.0  0.13124000000000008  0.2252100000000001  0.94858  1.0000
  C   C17       1.0  0.36545  0.45160000000000006  0.26338  1.0000
  C   C18       1.0  0.10721999999999997  0.36098  0.88999  1.0000
  C   C19       1.0  0.5605  0.3146100000000001  0.44034  1.0000
  C   C20       1.0  0.5812599999999999  0.29715  0.34888  1.0000
  C   C21       1.0  0.5099  0.20339000000000004  0.26172  1.0000
  C   C22       1.0  0.52603  0.19261  0.17409  1.0000
  C   C23       1.0  0.61531  0.27523000000000003  0.17575  1.0000
  C   C24       1.0  0.68882  0.3665900000000001  0.26468  1.0000
  C   C25       1.0  0.67137  0.37785000000000013  0.35098  1.0000
  C   C26       1.0  0.78615  0.45286  0.26793  1.0000
  C   C27       1.0  0.45118  0.10181  0.07704  1.0000
  C   C28       1.0  0.36053  0.0029999999999999758  0.91643  1.0000
  C   C29       1.0  0.3240500000000001  0.9729600000000005  0.8066900000000001  1.0000
  C   C30       1.0  0.24785000000000007  0.8698600000000002  0.73286  1.0000
  C   C31       1.0  0.21723000000000003  0.8463000000000002  0.62845  1.0000
  C   C32       1.0  0.2631900000000001  0.9244100000000002  0.59729  1.0000
  C   C33       1.0  0.33908000000000005  0.02725000000000004  0.671  1.0000
  C   C34       1.0  0.36875999999999987  0.051409999999999983  0.77479  1.0000
  C   C35       1.0  0.1345500000000001  0.7366100000000002  0.5484  1.0000
  C   C36       1.0  0.39277  0.11  0.63901  1.0000
  C   C37       1.0  0.06049000000000004  0.4403400000000001  0.31461999999999996  1.0000
  C   C38       1.0  0.08126  0.3488800000000001  0.29715  1.0000
  C   C39       1.0  0.00990000000000003  0.26172000000000006  0.20340000000000003  1.0000
  C   C40       1.0  0.02603000000000001  0.17408  0.19261  1.0000
  C   C41       1.0  0.11530000000000001  0.17575  0.27523  1.0000
  C   C42       1.0  0.18882000000000007  0.26467000000000007  0.3665900000000001  1.0000
  C   C43       1.0  0.17136999999999997  0.35098  0.37785  1.0000
  C   C44       1.0  0.28615  0.26792  0.45286  1.0000
  C   C45       1.0  0.95118  0.07704  0.10181  1.0000
  C   C46       1.0  0.8605300000000001  0.9164300000000002  0.00301  1.0000
  C   C47       1.0  0.8240500000000001  0.8066900000000002  0.97296  1.0000
  C   C48       1.0  0.74785  0.7328500000000001  0.86987  1.0000
  C   C49       1.0  0.7172299999999999  0.62845  0.8463  1.0000
  C   C50       1.0  0.76319  0.5972900000000002  0.92441  1.0000
  C   C51       1.0  0.8390900000000001  0.671  0.02725  1.0000
  C   C52       1.0  0.86876  0.7747900000000002  0.05142  1.0000
  C   C53       1.0  0.63455  0.54839  0.73662  1.0000
  C   C54       1.0  0.89278  0.6390100000000002  0.11  1.0000
  C   C55       1.0  0.4395000000000001  0.6853800000000002  0.55966  1.0000
  C   C56       1.0  0.41874000000000006  0.7028400000000001  0.65112  1.0000
  C   C57       1.0  0.49009  0.7966  0.73828  1.0000
  C   C58       1.0  0.47397  0.80738  0.82591  1.0000
  C   C59       1.0  0.3846900000000001  0.7247600000000002  0.82424  1.0000
  C   C60       1.0  0.31118  0.6334000000000002  0.73532  1.0000
  C   C61       1.0  0.32861999999999997  0.62214  0.64902  1.0000
  C   C62       1.0  0.21384  0.54713  0.73207  1.0000
  C   C63       1.0  0.5488200000000001  0.8981800000000002  0.92295  1.0000
  C   C64       1.0  0.6394700000000002  0.9969900000000003  0.08356000000000001  1.0000
  C   C65       1.0  0.67595  0.027040000000000012  0.19331  1.0000
  C   C66       1.0  0.75215  0.13013000000000005  0.26714  1.0000
  C   C67       1.0  0.78276  0.15369  0.37155  1.0000
  C   C68       1.0  0.7368099999999999  0.07558  0.40271  1.0000
  C   C69       1.0  0.66091  0.97275  0.32900000000000007  1.0000
  C   C70       1.0  0.63124  0.94858  0.22521  1.0000
  C   C71       1.0  0.86545  0.26338  0.45160000000000006  1.0000
  C   C72       1.0  0.60722  0.8899900000000002  0.36099  1.0000
  C   C73       1.0  0.75  0.3261200000000001  0.6738700000000001  1.0000
  C   C74       1.0  0.25000000000000006  0.6738700000000001  0.32612  1.0000
  N   N1        1.0  0.062139999999999966  0.01440999999999996  0.89748  1.0000
  N   N2        1.0  0.11716000000000011  0.9384300000000002  0.99779  1.0000
  N   N3        1.0  0.17533000000000004  0.03931  0.06211  1.0000
  N   N4        1.0  0.43785  0.10251999999999996  0.98559  1.0000
  N   N5        1.0  0.38283  0.0022100000000000023  0.06157  1.0000
  N   N6        1.0  0.32467  0.9378800000000003  0.96068  1.0000
  N   N7        1.0  0.93785  0.98559  0.10252  1.0000
  N   N8        1.0  0.88283  0.06157  0.00221  1.0000
  N   N9        1.0  0.8246700000000001  0.9606800000000001  0.9378900000000001  1.0000
  N   N10       1.0  0.56215  0.8974800000000002  0.01441  1.0000
  N   N11       1.0  0.61716  0.99778  0.93843  1.0000
  N   N12       1.0  0.6753299999999999  0.06211000000000001  0.03931  1.0000
  O   O1        1.0  0.0006300000000000432  0.5522200000000002  0.76584  1.0000
  O   O2        1.0  0.89444  0.4951600000000001  0.59299  1.0000
  O   O3        1.0  0.62398  0.64355  0.48238000000000003  1.0000
  O   O4        1.0  0.7225400000000002  0.8155700000000001  0.54039  1.0000
  O   O5        1.0  0.39523000000000014  0.41463000000000017  0.33052000000000004  1.0000
  O   O6        1.0  0.39597  0.5448  0.27701  1.0000
  O   O7        1.0  0.08855000000000003  0.4359700000000001  0.91488  1.0000
  O   O8        1.0  0.07955000000000008  0.30973000000000006  0.7964500000000001  1.0000
  O   O9        1.0  0.83886  0.31702  0.71927  1.0000
  O   O10       1.0  0.49935999999999997  0.23415  0.44778  1.0000
  O   O11       1.0  0.60556  0.4070100000000001  0.50484  1.0000
  O   O12       1.0  0.8760200000000002  0.5176100000000002  0.35645  1.0000
  O   O13       1.0  0.7774600000000002  0.4596000000000001  0.18443  1.0000
  O   O14       1.0  0.10476999999999997  0.66947  0.58537  1.0000
  O   O15       1.0  0.10402999999999996  0.72299  0.4552  1.0000
  O   O16       1.0  0.41145000000000004  0.08511000000000002  0.56403  1.0000
  O   O17       1.0  0.42044000000000004  0.20355000000000012  0.6902600000000001  1.0000
  O   O18       1.0  0.66114  0.28072  0.68297  1.0000
  O   O19       1.0  0.9993699999999999  0.44778  0.23416  1.0000
  O   O20       1.0  0.10555000000000005  0.50484  0.40701000000000004  1.0000
  O   O21       1.0  0.37601000000000007  0.3564500000000001  0.51761  1.0000
  O   O22       1.0  0.27745  0.18443000000000007  0.4596  1.0000
  O   O23       1.0  0.60477  0.58537  0.66948  1.0000
  O   O24       1.0  0.6040299999999998  0.45520000000000016  0.72299  1.0000
  O   O25       1.0  0.91145  0.56403  0.08511  1.0000
  O   O26       1.0  0.92045  0.69026  0.20355  1.0000
  O   O27       1.0  0.16114000000000003  0.68297  0.28072  1.0000
  O   O28       1.0  0.50063  0.76584  0.55222  1.0000
  O   O29       1.0  0.39444  0.59299  0.49516  1.0000
  O   O30       1.0  0.1239800000000001  0.48238000000000014  0.6435500000000001  1.0000
  O   O31       1.0  0.22254  0.5403900000000001  0.81557  1.0000
  O   O32       1.0  0.89523  0.33052  0.41463  1.0000
  O   O33       1.0  0.89597  0.27701  0.5448  1.0000
  O   O34       1.0  0.5885500000000002  0.9148800000000002  0.43597  1.0000
  O   O35       1.0  0.57955  0.7964400000000003  0.30974000000000007  1.0000
  O   O36       1.0  0.33886  0.71927  0.31703000000000003  1.0000
