data_image0
_chemical_formula_structural       Zn6H48C96N72
_chemical_formula_sum              "Zn6 H48 C96 N72"
_cell_length_a       13.56324
_cell_length_b       16.12508
_cell_length_c       16.576129999999996
_cell_angle_alpha    109.80249
_cell_angle_beta     100.58326
_cell_angle_gamma    109.94662999999998

_symmetry_space_group_name_H-M    'P 1'
_symmetry_Int_Tables_number       1

loop_
  _symmetry_equiv_pos_as_xyz
  'x,y,z'

loop_
  _atom_site_type_symbol
  _atom_site_label
  _atom_site_symmetry_multiplicity
  _atom_site_fract_x
  _atom_site_fract_y
  _atom_site_fract_z
  _atom_site_occupancy
  Zn  Zn1       1.0  0.5004300000000003  0.4262200000000001  0.82596  1.0000
  Zn  Zn2       1.0  0.83332  0.54145  0.42454  1.0000
  Zn  Zn3       1.0  0.41141000000000016  0.7962500000000002  0.48851  1.0000
  Zn  Zn4       1.0  0.49959  0.57375  0.17405  1.0000
  Zn  Zn5       1.0  0.16667000000000015  0.4585500000000003  0.5754600000000001  1.0000
  Zn  Zn6       1.0  0.5885899999999998  0.20375999999999997  0.51153  1.0000
  H   H1        1.0  0.8896700000000001  0.6892500000000003  0.88166  1.0000
  H   H2        1.0  0.8526599999999996  0.67404  0.7242  1.0000
  H   H3        1.0  0.6555200000000001  0.5731800000000002  0.61276  1.0000
  H   H4        1.0  0.50752  0.4871600000000001  0.6643700000000001  1.0000
  H   H5        1.0  0.04288000000000001  0.72999  0.12166  1.0000
  H   H6        1.0  0.18923000000000006  0.8956000000000002  0.16165  1.0000
  H   H7        1.0  0.13144  0.008610000000000008  0.11063  1.0000
  H   H8        1.0  0.93023  0.9486000000000001  0.02328  1.0000
  H   H9        1.0  0.014939999999999985  0.89785  0.6812  1.0000
  H   H10       1.0  0.83771  0.9072300000000001  0.69263  1.0000
  H   H11       1.0  0.65531  0.76251  0.5907  1.0000
  H   H12       1.0  0.65859  0.61237  0.4812  1.0000
  H   H13       1.0  0.11501000000000021  0.8061900000000003  0.7832300000000001  1.0000
  H   H14       1.0  0.2015700000000002  0.9613800000000002  0.92934  1.0000
  H   H15       1.0  0.3181600000000001  0.12019000000000009  0.92702  1.0000
  H   H16       1.0  0.34686  0.11558000000000006  0.78184  1.0000
  H   H17       1.0  0.031159999999999893  0.75739  0.29426  1.0000
  H   H18       1.0  0.9684300000000002  0.59139  0.17713  1.0000
  H   H19       1.0  0.08428000000000005  0.4991500000000001  0.18961  1.0000
  H   H20       1.0  0.26135000000000014  0.5840000000000002  0.32212  1.0000
  H   H21       1.0  0.10804000000000015  0.9638600000000003  0.3178  1.0000
  H   H22       1.0  0.9044400000000001  0.9054500000000002  0.23096  1.0000
  H   H23       1.0  0.7605600000000001  0.8154100000000001  0.28475  1.0000
  H   H24       1.0  0.8233400000000002  0.7875700000000002  0.42001  1.0000
  H   H25       1.0  0.11034000000000005  0.3107800000000001  0.11837000000000003  1.0000
  H   H26       1.0  0.14739000000000005  0.32601000000000013  0.27585  1.0000
  H   H27       1.0  0.34455  0.42688  0.38725  1.0000
  H   H28       1.0  0.4925100000000001  0.51287  0.33562  1.0000
  H   H29       1.0  0.9571300000000003  0.27000000000000024  0.8783100000000003  1.0000
  H   H30       1.0  0.81079  0.10440000000000002  0.83835  1.0000
  H   H31       1.0  0.8686300000000001  0.9914299999999999  0.88942  1.0000
  H   H32       1.0  0.06985  0.05145999999999999  0.97676  1.0000
  H   H33       1.0  0.98507  0.10215000000000003  0.3188  1.0000
  H   H34       1.0  0.16229  0.09276999999999998  0.30737  1.0000
  H   H35       1.0  0.34468  0.23750000000000004  0.4093  1.0000
  H   H36       1.0  0.34140000000000004  0.3876300000000001  0.5188  1.0000
  H   H37       1.0  0.8850000000000001  0.19380000000000006  0.21677  1.0000
  H   H38       1.0  0.7984500000000001  0.03863000000000001  0.07066  1.0000
  H   H39       1.0  0.68186  0.8798100000000002  0.07298  1.0000
  H   H40       1.0  0.65316  0.88442  0.21815  1.0000
  H   H41       1.0  0.96886  0.24264000000000002  0.70579  1.0000
  H   H42       1.0  0.03160000000000012  0.4086400000000001  0.8228900000000002  1.0000
  H   H43       1.0  0.9157600000000004  0.5008800000000002  0.81041  1.0000
  H   H44       1.0  0.7386800000000002  0.4160200000000001  0.6779  1.0000
  H   H45       1.0  0.89199  0.03616000000000004  0.68223  1.0000
  H   H46       1.0  0.09560000000000002  0.09454999999999998  0.76904  1.0000
  H   H47       1.0  0.23946999999999996  0.1846  0.71524  1.0000
  H   H48       1.0  0.17667000000000005  0.2124400000000001  0.58  1.0000
  C   C1        1.0  0.54872  0.41307  0.00066  1.0000
  C   C2        1.0  0.7285100000000002  0.56002  0.18691  1.0000
  C   C3        1.0  0.64645  0.49919000000000013  0.01793  1.0000
  C   C4        1.0  0.7340100000000002  0.56542  0.10098000000000001  1.0000
  C   C5        1.0  0.82022  0.65773  0.03092  1.0000
  C   C6        1.0  0.7319500000000001  0.5926200000000003  0.94663  1.0000
  C   C7        1.0  0.7182900000000001  0.59526  0.8566  1.0000
  C   C8        1.0  0.8056200000000001  0.6460300000000002  0.83282  1.0000
  C   C9        1.0  0.7843  0.6383200000000002  0.7443200000000002  1.0000
  C   C10       1.0  0.67597  0.58189  0.6825  1.0000
  C   C11       1.0  0.59311  0.53262  0.71048  1.0000
  C   C12       1.0  0.9115800000000001  0.7525000000000002  0.04928  1.0000
  C   C13       1.0  0.021699999999999994  0.7798800000000002  0.09954  1.0000
  C   C14       1.0  0.1033300000000001  0.8725900000000001  0.12144000000000002  1.0000
  C   C15       1.0  0.07101000000000009  0.9349900000000002  0.09385  1.0000
  C   C16       1.0  0.9588100000000002  0.9013100000000002  0.04453  1.0000
  C   C17       1.0  0.03508000000000006  0.5148800000000002  0.40909000000000006  1.0000
  C   C18       1.0  0.2816499999999999  0.63909  0.53894  1.0000
  C   C19       1.0  0.08099000000000008  0.6110900000000002  0.48485  1.0000
  C   C20       1.0  0.19272000000000014  0.6713900000000003  0.5416  1.0000
  C   C21       1.0  0.14339000000000007  0.7898200000000002  0.62372  1.0000
  C   C22       1.0  0.029459999999999993  0.72915  0.56936  1.0000
  C   C23       1.0  0.9305400000000003  0.7470500000000002  0.57933  1.0000
  C   C24       1.0  0.9353700000000004  0.8349300000000001  0.6394700000000002  1.0000
  C   C25       1.0  0.8362  0.8406900000000003  0.64482  1.0000
  C   C26       1.0  0.7343  0.76081  0.58834  1.0000
  C   C27       1.0  0.73554  0.67691  0.52767  1.0000
  C   C28       1.0  0.1866500000000001  0.8825800000000001  0.70826  1.0000
  C   C29       1.0  0.16583000000000017  0.8768100000000002  0.7863300000000001  1.0000
  C   C30       1.0  0.21404  0.96314  0.86681  1.0000
  C   C31       1.0  0.27946000000000004  0.05084000000000003  0.86606  1.0000
  C   C32       1.0  0.2957  0.04837000000000007  0.78451  1.0000
  C   C33       1.0  0.50653  0.003049999999999994  0.61743  1.0000
  C   C34       1.0  0.42452  0.16206  0.62139  1.0000
  C   C35       1.0  0.39871  0.9865300000000001  0.56296  1.0000
  C   C36       1.0  0.35648  0.05569999999999995  0.56591  1.0000
  C   C37       1.0  0.18683000000000013  0.9318900000000002  0.45985  1.0000
  C   C38       1.0  0.23275000000000018  0.8634200000000002  0.44543  1.0000
  C   C39       1.0  0.18207000000000018  0.7616800000000005  0.37198  1.0000
  C   C40       1.0  0.08190999999999998  0.71893  0.29982  1.0000
  C   C41       1.0  0.04660000000000004  0.62439  0.2326  1.0000
  C   C42       1.0  0.11047000000000011  0.5738900000000002  0.23904  1.0000
  C   C43       1.0  0.20893000000000012  0.6205600000000002  0.31326  1.0000
  C   C44       1.0  0.06823000000000015  0.9042500000000002  0.41189000000000003  1.0000
  C   C45       1.0  0.04158000000000006  0.9262500000000002  0.3385000000000001  1.0000
  C   C46       1.0  0.9294400000000002  0.8931200000000001  0.29054  1.0000
  C   C47       1.0  0.84906  0.84214  0.31952  1.0000
  C   C48       1.0  0.8843100000000002  0.82587  0.39503  1.0000
  C   C49       1.0  0.4513  0.58694  0.99932  1.0000
  C   C50       1.0  0.27151  0.4399900000000001  0.81309  1.0000
  C   C51       1.0  0.35356000000000004  0.50085  0.98208  1.0000
  C   C52       1.0  0.26602  0.4346000000000001  0.89902  1.0000
  C   C53       1.0  0.17981000000000005  0.3423000000000002  0.96908  1.0000
  C   C54       1.0  0.2681  0.40738  0.05337  1.0000
  C   C55       1.0  0.28173  0.40478  0.14342  1.0000
  C   C56       1.0  0.1944  0.35401  0.1672  1.0000
  C   C57       1.0  0.21574000000000002  0.36171  0.2557  1.0000
  C   C58       1.0  0.3240800000000001  0.41813000000000006  0.3175  1.0000
  C   C59       1.0  0.40692000000000006  0.4674000000000001  0.28952  1.0000
  C   C60       1.0  0.08845000000000004  0.24754000000000007  0.95073  1.0000
  C   C61       1.0  0.97833  0.22014  0.90048  1.0000
  C   C62       1.0  0.8967000000000002  0.1274300000000001  0.87858  1.0000
  C   C63       1.0  0.92904  0.06503999999999997  0.90617  1.0000
  C   C64       1.0  0.04124999999999994  0.09872999999999998  0.95549  1.0000
  C   C65       1.0  0.96492  0.48512  0.59091  1.0000
  C   C66       1.0  0.7183500000000002  0.36091  0.46105  1.0000
  C   C67       1.0  0.91901  0.38891  0.51514  1.0000
  C   C68       1.0  0.80728  0.32862000000000013  0.4584  1.0000
  C   C69       1.0  0.8566100000000001  0.21017  0.37629  1.0000
  C   C70       1.0  0.97053  0.27084  0.4306400000000001  1.0000
  C   C71       1.0  0.06946000000000005  0.2529500000000001  0.42066  1.0000
  C   C72       1.0  0.06463000000000002  0.16508  0.36052  1.0000
  C   C73       1.0  0.16380000000000003  0.15931000000000012  0.3551800000000001  1.0000
  C   C74       1.0  0.2657  0.23920000000000005  0.41167  1.0000
  C   C75       1.0  0.26446  0.32309  0.47234  1.0000
  C   C76       1.0  0.8133500000000001  0.11742000000000002  0.29174000000000005  1.0000
  C   C77       1.0  0.83417  0.12318999999999998  0.21367  1.0000
  C   C78       1.0  0.78597  0.03687000000000001  0.13318  1.0000
  C   C79       1.0  0.72056  0.9491700000000002  0.13393  1.0000
  C   C80       1.0  0.7043200000000001  0.95163  0.21548  1.0000
  C   C81       1.0  0.4934700000000002  0.9969600000000002  0.3825900000000001  1.0000
  C   C82       1.0  0.57549  0.83798  0.37864  1.0000
  C   C83       1.0  0.60131  0.0135  0.43707  1.0000
  C   C84       1.0  0.6435400000000001  0.9443300000000002  0.43412  1.0000
  C   C85       1.0  0.8131900000000001  0.06812999999999998  0.54018  1.0000
  C   C86       1.0  0.7672600000000002  0.13659000000000004  0.55461  1.0000
  C   C87       1.0  0.8179400000000001  0.23833000000000004  0.62806  1.0000
  C   C88       1.0  0.9181  0.28109  0.70022  1.0000
  C   C89       1.0  0.95342  0.3756400000000001  0.76743  1.0000
  C   C90       1.0  0.88955  0.4261400000000002  0.76099  1.0000
  C   C91       1.0  0.7910900000000001  0.37947000000000003  0.68676  1.0000
  C   C92       1.0  0.93179  0.09578000000000014  0.5881400000000002  1.0000
  C   C93       1.0  0.95845  0.07377000000000013  0.6615300000000002  1.0000
  C   C94       1.0  0.07059000000000006  0.10689000000000001  0.70948  1.0000
  C   C95       1.0  0.1509600000000001  0.15788000000000005  0.6804900000000002  1.0000
  C   C96       1.0  0.1157000000000001  0.17415000000000017  0.6049900000000001  1.0000
  N   N1        1.0  0.46648000000000006  0.3673800000000001  0.91883  1.0000
  N   N2        1.0  0.38727000000000006  0.29147000000000006  0.92105  1.0000
  N   N3        1.0  0.42199000000000003  0.2918600000000001  0.0022900000000000004  1.0000
  N   N4        1.0  0.5231  0.36770000000000014  0.05371  1.0000
  N   N5        1.0  0.6443500000000001  0.5645600000000002  0.21903  1.0000
  N   N6        1.0  0.66857  0.56083  0.29914  1.0000
  N   N7        1.0  0.76386  0.55356  0.31319  1.0000
  N   N8        1.0  0.80444  0.5533400000000003  0.24499  1.0000
  N   N9        1.0  0.6496500000000001  0.5151100000000002  0.9436800000000002  1.0000
  N   N10       1.0  0.82059  0.6406  0.10506  1.0000
  N   N11       1.0  0.61373  0.53744  0.79476  1.0000
  N   N12       1.0  0.8798300000000003  0.8116600000000003  0.02129  1.0000
  N   N13       1.0  0.9231000000000005  0.46517000000000003  0.36826  1.0000
  N   N14       1.0  0.9040200000000004  0.3806100000000001  0.30063  1.0000
  N   N15       1.0  0.00248000000000002  0.37995  0.30139  1.0000
  N   N16       1.0  0.08640000000000002  0.4634  0.36938  1.0000
  N   N17       1.0  0.37741000000000013  0.6859000000000002  0.52798  1.0000
  N   N18       1.0  0.43968  0.63668  0.53584  1.0000
  N   N19       1.0  0.3838200000000001  0.5633100000000002  0.5518900000000001  1.0000
  N   N20       1.0  0.28371000000000013  0.5628400000000002  0.5540500000000002  1.0000
  N   N21       1.0  0.0037000000000001073  0.6428800000000002  0.50087  1.0000
  N   N22       1.0  0.22211000000000014  0.7604900000000002  0.6070500000000001  1.0000
  N   N23       1.0  0.8306700000000002  0.6697000000000002  0.52415  1.0000
  N   N24       1.0  0.2510500000000002  0.9658200000000003  0.7060900000000001  1.0000
  N   N25       1.0  0.53342  0.9266400000000001  0.60002  1.0000
  N   N26       1.0  0.63738  0.96302  0.65761  1.0000
  N   N27       1.0  0.6711800000000001  0.05869999999999999  0.70795  1.0000
  N   N28       1.0  0.5905000000000002  0.08582  0.68395  1.0000
  N   N29       1.0  0.41211000000000003  0.21504  0.69712  1.0000
  N   N30       1.0  0.48697999999999997  0.30726  0.72199  1.0000
  N   N31       1.0  0.5426100000000001  0.3120400000000001  0.66508  1.0000
  N   N32       1.0  0.50469  0.22061000000000006  0.60081  1.0000
  N   N33       1.0  0.33622  0.8932300000000002  0.50004  1.0000
  N   N34       1.0  0.25098  0.026899999999999997  0.51627  1.0000
  N   N35       1.0  0.24420000000000014  0.7118000000000002  0.37734  1.0000
  N   N36       1.0  0.99193  0.8541700000000002  0.44042000000000003  1.0000
  N   N37       1.0  0.5334900000000001  0.6326600000000002  0.08119  1.0000
  N   N38       1.0  0.6127700000000001  0.7085100000000002  0.07895  1.0000
  N   N39       1.0  0.57803  0.70818  0.99774  1.0000
  N   N40       1.0  0.47695000000000004  0.6323100000000003  0.94628  1.0000
  N   N41       1.0  0.35568000000000005  0.43547000000000013  0.78096  1.0000
  N   N42       1.0  0.3314300000000001  0.43921000000000004  0.70086  1.0000
  N   N43       1.0  0.23614000000000002  0.44647000000000003  0.68683  1.0000
  N   N44       1.0  0.19559  0.44669  0.75504  1.0000
  N   N45       1.0  0.3503800000000001  0.4849100000000001  0.05632  1.0000
  N   N46       1.0  0.17945000000000014  0.35942000000000024  0.8949500000000002  1.0000
  N   N47       1.0  0.38630000000000003  0.46258999999999995  0.20524  1.0000
  N   N48       1.0  0.12022  0.18838999999999997  0.97874  1.0000
  N   N49       1.0  0.07690000000000001  0.53484  0.63175  1.0000
  N   N50       1.0  0.09596000000000011  0.6194100000000002  0.69936  1.0000
  N   N51       1.0  0.9974999999999999  0.62007  0.69857  1.0000
  N   N52       1.0  0.9136000000000001  0.5366100000000003  0.63058  1.0000
  N   N53       1.0  0.62259  0.3141000000000001  0.47202  1.0000
  N   N54       1.0  0.56034  0.3633500000000001  0.46418  1.0000
  N   N55       1.0  0.6162000000000001  0.4367100000000001  0.44813  1.0000
  N   N56       1.0  0.71629  0.43717000000000017  0.4459400000000001  1.0000
  N   N57       1.0  0.9963  0.3571300000000001  0.49911  1.0000
  N   N58       1.0  0.77789  0.23951000000000006  0.39295  1.0000
  N   N59       1.0  0.16933  0.3303  0.47584  1.0000
  N   N60       1.0  0.74895  0.034179999999999995  0.29391  1.0000
  N   N61       1.0  0.46658000000000005  0.07337000000000006  0.40002  1.0000
  N   N62       1.0  0.36263  0.03700000000000002  0.34244  1.0000
  N   N63       1.0  0.32882000000000006  0.94132  0.29206  1.0000
  N   N64       1.0  0.4095000000000002  0.9141900000000002  0.3160500000000001  1.0000
  N   N65       1.0  0.58791  0.78501  0.30291  1.0000
  N   N66       1.0  0.51304  0.69278  0.27802  1.0000
  N   N67       1.0  0.4574000000000001  0.6879900000000002  0.33493  1.0000
  N   N68       1.0  0.49532000000000015  0.7794100000000003  0.39921  1.0000
  N   N69       1.0  0.6637900000000001  0.10679  0.49999  1.0000
  N   N70       1.0  0.7490500000000001  0.9731300000000003  0.48375  1.0000
  N   N71       1.0  0.75581  0.28822  0.62269  1.0000
  N   N72       1.0  0.00808000000000002  0.14586000000000002  0.55961  1.0000
