data_image0
_chemical_formula_structural       Zn4H72C96N12O16
_chemical_formula_sum              "Zn4 H72 C96 N12 O16"
_cell_length_a       9.00502
_cell_length_b       16.37915
_cell_length_c       18.732
_cell_angle_alpha    90.17953
_cell_angle_beta     89.95468
_cell_angle_gamma    92.59358000000002

_space_group_name_H-M_alt    "P 1"
_space_group_IT_number       1

loop_
  _space_group_symop_operation_xyz
  'x, y, z'

loop_
  _atom_site_type_symbol
  _atom_site_label
  _atom_site_symmetry_multiplicity
  _atom_site_fract_x
  _atom_site_fract_y
  _atom_site_fract_z
  _atom_site_occupancy
  Zn  Zn1       1.0  0.6459  0.59306  0.68394  1.0000
  Zn  Zn2       1.0  0.3541  0.40694  0.31606  1.0000
  Zn  Zn3       1.0  0.14325  0.09478  0.8158800000000003  1.0000
  Zn  Zn4       1.0  0.85675  0.90522  0.18412  1.0000
  H   H1        1.0  0.8237  0.3144099999999999  0.41117  1.0000
  H   H2        1.0  0.8998499999999999  0.81498  0.73331  1.0000
  H   H3        1.0  0.10721  0.262  0.76206  1.0000
  H   H4        1.0  0.04418  0.37348  0.85409  1.0000
  H   H5        1.0  0.40099999999999997  0.31543  0.7660400000000003  1.0000
  H   H6        1.0  0.92875  0.34293  0.69307  1.0000
  H   H7        1.0  0.62128  0.4846399999999999  0.38409000000000004  1.0000
  H   H8        1.0  0.81584  0.50154  0.09837  1.0000
  H   H9        1.0  0.3290899999999999  0.55421  0.7410400000000003  1.0000
  H   H10       1.0  0.5691099999999998  0.15755  0.19408  1.0000
  H   H11       1.0  0.82476  0.05568  0.7592600000000002  1.0000
  H   H12       1.0  0.69975  0.11773  0.10522  1.0000
  H   H13       1.0  0.25937  0.34732  0.45958  1.0000
  H   H14       1.0  0.20102  0.6177899999999997  0.39628  1.0000
  H   H15       1.0  0.45427  0.12424  0.3532  1.0000
  H   H16       1.0  0.37386  0.17598  0.42442  1.0000
  H   H17       1.0  0.3891299999999999  0.23922  0.26208000000000004  1.0000
  H   H18       1.0  0.54573  0.87576  0.6468000000000003  1.0000
  H   H19       1.0  0.59899  0.68458  0.23396  1.0000
  H   H20       1.0  0.3787199999999999  0.51537  0.61591  1.0000
  H   H21       1.0  0.9558199999999999  0.62653  0.14592  1.0000
  H   H22       1.0  0.36808  0.87221  0.30985  1.0000
  H   H23       1.0  0.79898  0.38222  0.60372  1.0000
  H   H24       1.0  0.7249099999999998  0.04549999999999999  0.9938700000000001  1.0000
  H   H25       1.0  0.16993999999999992  0.62121  0.9788400000000002  1.0000
  H   H26       1.0  0.17524  0.94432  0.24074000000000004  1.0000
  H   H27       1.0  0.23834999999999998  0.15336  0.9601300000000001  1.0000
  H   H28       1.0  0.41471999999999987  0.7441799999999997  0.56066  1.0000
  H   H29       1.0  0.27509  0.95451  0.00613  1.0000
  H   H30       1.0  0.07125  0.65708  0.30693  1.0000
  H   H31       1.0  0.6108699999999998  0.76079  0.7379200000000001  1.0000
  H   H32       1.0  0.58528  0.25583  0.43934  1.0000
  H   H33       1.0  0.13463  0.62708  0.8089400000000002  1.0000
  H   H34       1.0  0.12404  0.3224  0.9254300000000001  1.0000
  H   H35       1.0  0.6851499999999998  0.0005700000000000004  0.59794  1.0000
  H   H36       1.0  0.66903  0.12194  0.51988  1.0000
  H   H37       1.0  0.74063  0.65268  0.54042  1.0000
  H   H38       1.0  0.33096999999999993  0.8780599999999997  0.48012000000000005  1.0000
  H   H39       1.0  0.67743  0.0764  0.3288100000000001  1.0000
  H   H40       1.0  0.60796  0.68836  0.42816000000000004  1.0000
  H   H41       1.0  0.76165  0.84664  0.03987000000000001  1.0000
  H   H42       1.0  0.30025  0.88227  0.89478  1.0000
  H   H43       1.0  0.32257  0.92361  0.6712  1.0000
  H   H44       1.0  0.44115999999999994  0.7558699999999998  0.37453  1.0000
  H   H45       1.0  0.1763  0.68559  0.58883  1.0000
  H   H46       1.0  0.63192  0.12779  0.69015  1.0000
  H   H47       1.0  0.7740999999999998  0.4540799999999999  0.49235  1.0000
  H   H48       1.0  0.9119699999999998  0.24302  0.9401700000000001  1.0000
  H   H49       1.0  0.6261299999999997  0.8240299999999998  0.57558  1.0000
  H   H50       1.0  0.89317  0.81186  0.92673  1.0000
  H   H51       1.0  0.8759599999999998  0.6776  0.07457  1.0000
  H   H52       1.0  0.22588999999999998  0.54592  0.50765  1.0000
  H   H53       1.0  0.18416  0.49846999999999997  0.90163  1.0000
  H   H54       1.0  0.5588399999999998  0.24413  0.6254800000000001  1.0000
  H   H55       1.0  0.1765  0.57763  0.17004  1.0000
  H   H56       1.0  0.10682999999999998  0.18813999999999995  0.07327  1.0000
  H   H57       1.0  0.43088999999999994  0.84245  0.80592  1.0000
  H   H58       1.0  0.32739999999999997  0.81516  0.08893000000000001  1.0000
  H   H59       1.0  0.06037999999999997  0.7439699999999998  0.8729  1.0000
  H   H60       1.0  0.87622  0.01584  0.8845100000000001  1.0000
  H   H61       1.0  0.89279  0.738  0.23794  1.0000
  H   H62       1.0  0.39204  0.31165  0.57184  1.0000
  H   H63       1.0  0.67091  0.4458  0.25896  1.0000
  H   H64       1.0  0.08803  0.75699  0.05983000000000001  1.0000
  H   H65       1.0  0.12377  0.98417  0.11549  1.0000
  H   H66       1.0  0.8234899999999998  0.42238  0.82996  1.0000
  H   H67       1.0  0.10014999999999999  0.18503  0.26669  1.0000
  H   H68       1.0  0.67259  0.18484999999999993  0.9110700000000002  1.0000
  H   H69       1.0  0.8653699999999998  0.37292999999999993  0.19106000000000006  1.0000
  H   H70       1.0  0.9396099999999998  0.25604  0.12710000000000002  1.0000
  H   H71       1.0  0.31485  0.99943  0.40206  1.0000
  H   H72       1.0  0.83006  0.3788  0.021160000000000005  1.0000
  C   C1        1.0  0.58707  0.44594  0.74437  1.0000
  C   C2        1.0  0.76106  0.34094  0.20554  1.0000
  C   C3        1.0  0.15858  0.88053  0.2562  1.0000
  C   C4        1.0  0.34273  0.76112  0.12137000000000002  1.0000
  C   C5        1.0  0.9994799999999999  0.76489  0.25533  1.0000
  C   C6        1.0  0.5024  0.31183  0.79681  1.0000
  C   C7        1.0  0.09490999999999998  0.56828  0.98797  1.0000
  C   C8        1.0  0.4976  0.6881799999999999  0.20320000000000002  1.0000
  C   C9        1.0  0.37429  0.36779  0.46945  1.0000
  C   C10       1.0  0.42168  0.55434  0.57292  1.0000
  C   C11       1.0  0.8902599999999999  0.12442  0.29305  1.0000
  C   C12       1.0  0.4961  0.26594  0.24493000000000004  1.0000
  C   C13       1.0  0.59436  0.06867  0.51133  1.0000
  C   C14       1.0  0.50959  0.93042  0.54419  1.0000
  C   C15       1.0  0.83549  0.22110999999999995  0.13639000000000004  1.0000
  C   C16       1.0  0.008580000000000006  0.42967  0.9563  1.0000
  C   C17       1.0  0.7361399999999998  0.15985  0.70477  1.0000
  C   C18       1.0  0.15971999999999995  0.73951  0.62143  1.0000
  C   C19       1.0  0.4742799999999999  0.14449  0.40869  1.0000
  C   C20       1.0  0.84141  0.11948  0.7438  1.0000
  C   C21       1.0  0.99141  0.57033  0.0437  1.0000
  C   C22       1.0  0.10274  0.49887999999999993  0.9447  1.0000
  C   C23       1.0  0.33695  0.721  0.36516  1.0000
  C   C24       1.0  0.08353999999999998  0.9464799999999998  0.7553900000000002  1.0000
  C   C25       1.0  0.41292  0.55406  0.25563  1.0000
  C   C26       1.0  0.08033999999999997  0.9452999999999998  0.07233  1.0000
  C   C27       1.0  0.91966  0.0547  0.92767  1.0000
  C   C28       1.0  0.50389  0.73407  0.75507  1.0000
  C   C29       1.0  0.04935999999999999  0.15148  0.03238  1.0000
  C   C30       1.0  0.59647  0.22138  0.2066  1.0000
  C   C31       1.0  0.75771  0.12778  0.33207  1.0000
  C   C32       1.0  0.40353  0.77862  0.7934  1.0000
  C   C33       1.0  0.10015999999999999  0.87632  0.9585600000000001  1.0000
  C   C34       1.0  0.6932  0.34815  0.59697  1.0000
  C   C35       1.0  0.16185  0.92893  0.01146  1.0000
  C   C36       1.0  0.8998399999999999  0.12367999999999998  0.04144000000000001  1.0000
  C   C37       1.0  0.9164599999999999  0.05352  0.24461000000000005  1.0000
  C   C38       1.0  0.60331  3.999999999999974e-05  0.55507  1.0000
  C   C39       1.0  0.47483999999999993  0.75577  0.15958000000000003  1.0000
  C   C40       1.0  0.3068  0.65185  0.40303  1.0000
  C   C41       1.0  0.4904099999999999  0.06958  0.45581000000000005  1.0000
  C   C42       1.0  0.23168  0.6976  0.12486000000000001  1.0000
  C   C43       1.0  0.33941  0.5712199999999997  0.5126  1.0000
  C   C44       1.0  0.23893999999999999  0.65906  0.7944600000000003  1.0000
  C   C45       1.0  0.0005200000000000009  0.23512  0.7446700000000003  1.0000
  C   C46       1.0  0.90509  0.43173  0.012030000000000002  1.0000
  C   C47       1.0  0.89726  0.50112  0.05530000000000001  1.0000
  C   C48       1.0  0.66305  0.279  0.6348400000000001  1.0000
  C   C49       1.0  0.76609  0.24093  0.6827500000000001  1.0000
  C   C50       1.0  0.3451  0.6182599999999999  0.75612  1.0000
  C   C51       1.0  0.97602  0.646  0.09034  1.0000
  C   C52       1.0  0.55067  0.65155  0.46882  1.0000
  C   C53       1.0  0.24229  0.87222  0.66793  1.0000
  C   C54       1.0  0.08798  0.32446999999999987  0.34739  1.0000
  C   C55       1.0  0.62571  0.63221  0.53055  1.0000
  C   C56       1.0  0.5989999999999998  0.37611  0.5400700000000002  1.0000
  C   C57       1.0  0.38904  0.62474  0.20693  1.0000
  C   C58       1.0  0.10973999999999996  0.8755899999999998  0.70695  1.0000
  C   C59       1.0  0.2683  0.74047  0.8160700000000002  1.0000
  C   C60       1.0  0.02398  0.35401  0.90966  1.0000
  C   C61       1.0  0.5783200000000001  0.44567  0.42708  1.0000
  C   C62       1.0  0.2577  0.62858  0.16718  1.0000
  C   C63       1.0  0.44932999999999995  0.34846  0.5311800000000002  1.0000
  C   C64       1.0  0.91202  0.67553  0.65261  1.0000
  C   C65       1.0  0.90104  0.27925  0.7057300000000002  1.0000
  C   C66       1.0  0.8381499999999997  0.07107  0.9885400000000001  1.0000
  C   C67       1.0  0.16451  0.77889  0.86361  1.0000
  C   C68       1.0  0.9506299999999999  0.84852  0.96762  1.0000
  C   C69       1.0  0.27012  0.80324  0.6256100000000001  1.0000
  C   C70       1.0  0.26386  0.84015  0.29523  1.0000
  C   C71       1.0  0.39669  0.9999599999999998  0.44493000000000005  1.0000
  C   C72       1.0  0.5251599999999998  0.24423  0.84042  1.0000
  C   C73       1.0  0.76832  0.30241  0.87514  1.0000
  C   C74       1.0  0.40759999999999996  0.17698999999999995  0.8461800000000003  1.0000
  C   C75       1.0  0.7422999999999998  0.3714199999999999  0.83282  1.0000
  C   C76       1.0  0.02692999999999999  0.74408  0.6591900000000003  1.0000
  C   C77       1.0  0.87633  0.8674  0.02986  1.0000
  C   C78       1.0  0.12366999999999999  0.1326  0.9701400000000001  1.0000
  C   C79       1.0  0.72988  0.19676  0.3744  1.0000
  C   C80       1.0  0.6572599999999997  0.23888  0.87863  1.0000
  C   C81       1.0  0.7316999999999998  0.25954  0.18393000000000007  1.0000
  C   C82       1.0  0.19438  0.84831  0.9014700000000001  1.0000
  C   C83       1.0  0.61096  0.37527  0.7930700000000002  1.0000
  C   C84       1.0  0.9980899999999999  0.18829  0.29717  1.0000
  C   C85       1.0  0.5924  0.82301  0.15382  1.0000
  C   C86       1.0  0.8402799999999999  0.26049  0.37857000000000013  1.0000
  C   C87       1.0  0.80562  0.15169  0.09853  1.0000
  C   C88       1.0  0.9730699999999999  0.25593  0.34081  1.0000
  C   C89       1.0  0.40099999999999997  0.62389  0.45993  1.0000
  C   C90       1.0  0.5257199999999999  0.85551  0.59131  1.0000
  C   C91       1.0  0.6549  0.38175  0.24388000000000004  1.0000
  C   C92       1.0  0.0019100000000000005  0.81172  0.70283  1.0000
  C   C93       1.0  0.23390999999999998  0.75907  0.3172500000000001  1.0000
  C   C94       1.0  0.4056299999999999  0.93133  0.48868000000000006  1.0000
  C   C95       1.0  0.66059  0.42878  0.4874  1.0000
  C   C96       1.0  0.09895999999999998  0.7207499999999999  0.29427000000000003  1.0000
  N   N1        1.0  0.56103  0.58633  0.58303  1.0000
  N   N2        1.0  0.47712  0.65453  0.7373  1.0000
  N   N3        1.0  0.026729999999999973  0.8441499999999997  0.23714  1.0000
  N   N4        1.0  0.89982  0.29494  0.9118600000000001  1.0000
  N   N5        1.0  0.43897  0.41366999999999987  0.4169800000000001  1.0000
  N   N6        1.0  0.5228799999999999  0.34548  0.2627  1.0000
  N   N7        1.0  0.59766  0.20404  0.4106500000000001  1.0000
  N   N8        1.0  0.94136  0.91287  0.08273  1.0000
  N   N9        1.0  0.10017999999999998  0.7050699999999998  0.08814  1.0000
  N   N10       1.0  0.40233  0.79597  0.58935  1.0000
  N   N11       1.0  0.05863  0.08714  0.91727  1.0000
  N   N12       1.0  0.97327  0.15586  0.7628600000000001  1.0000
  O   O1        1.0  0.30101  0.5010099999999997  0.26034000000000007  1.0000
  O   O2        1.0  0.5327899999999999  0.54836  0.28913  1.0000
  O   O3        1.0  0.57312  0.88535  0.11715  1.0000
  O   O4        1.0  0.80546  0.99992  0.23956  1.0000
  O   O5        1.0  0.93259  0.61491  0.61369  1.0000
  O   O6        1.0  0.0674  0.3851  0.38631  1.0000
  O   O7        1.0  0.19454  9.000000000000015e-05  0.76044  1.0000
  O   O8        1.0  0.03709  0.04829  0.21151  1.0000
  O   O9        1.0  0.2852199999999999  0.18995  0.81122  1.0000
  O   O10       1.0  0.42688  0.11466  0.88285  1.0000
  O   O11       1.0  0.7147699999999999  0.81006  0.18878  1.0000
  O   O12       1.0  0.79107  0.68599  0.68943  1.0000
  O   O13       1.0  0.69899  0.49899  0.7396600000000001  1.0000
  O   O14       1.0  0.20892999999999995  0.31402  0.31057  1.0000
  O   O15       1.0  0.96291  0.9517099999999997  0.78849  1.0000
  O   O16       1.0  0.46719999999999995  0.45164  0.7108700000000002  1.0000
