data_image0
_chemical_formula_structural       Zn8H48C68N16O32
_chemical_formula_sum              "Zn8 H48 C68 N16 O32"
_cell_length_a       11.64484
_cell_length_b       13.66398
_cell_length_c       21.98695
_cell_angle_alpha    90.0
_cell_angle_beta     90.0
_cell_angle_gamma    90.0

_symmetry_space_group_name_H-M    'P 1'
_symmetry_Int_Tables_number       1

loop_
  _symmetry_equiv_pos_as_xyz
  'x,y,z'

loop_
  _atom_site_type_symbol
  _atom_site_label
  _atom_site_symmetry_multiplicity
  _atom_site_fract_x
  _atom_site_fract_y
  _atom_site_fract_z
  _atom_site_occupancy
  Zn  Zn1       1.0  0.2485  0.92521  0.24940999999999997  1.0000
  Zn  Zn2       1.0  0.24942  0.4364899999999999  0.12575  1.0000
  Zn  Zn3       1.0  0.2485  0.07479  0.75059  1.0000
  Zn  Zn4       1.0  0.24942  0.5635099999999997  0.87426  1.0000
  Zn  Zn5       1.0  0.75151  0.5747899999999999  0.7494099999999999  1.0000
  Zn  Zn6       1.0  0.7505800000000001  0.06350999999999998  0.6257499999999999  1.0000
  Zn  Zn7       1.0  0.75151  0.42521  0.25059  1.0000
  Zn  Zn8       1.0  0.7505800000000001  0.9364899999999999  0.37426  1.0000
  H   H1        1.0  0.22076  0.7384499999999998  0.18072  1.0000
  H   H2        1.0  0.9093  0.70513  0.32884  1.0000
  H   H3        1.0  0.03222  0.8543399999999998  0.32317  1.0000
  H   H4        1.0  0.24879000000000007  0.12005  0.17849  1.0000
  H   H5        1.0  0.63491  0.11477999999999997  0.26638  1.0000
  H   H6        1.0  0.50363  0.9716399999999997  0.27213  1.0000
  H   H7        1.0  0.38112000000000007  0.61492  0.08417  1.0000
  H   H8        1.0  0.48999  0.5302499999999998  0.10778  1.0000
  H   H9        1.0  0.6345600000000001  0.52231  0.9617099999999998  1.0000
  H   H10       1.0  0.38188  0.3241299999999999  0.01924  1.0000
  H   H11       1.0  0.4905100000000001  0.3652699999999999  0.07106  1.0000
  H   H12       1.0  0.23326000000000002  0.56136  0.014589999999999999  1.0000
  H   H13       1.0  0.22076  0.26155  0.81929  1.0000
  H   H14       1.0  0.9093  0.29486999999999997  0.6711599999999999  1.0000
  H   H15       1.0  0.03222  0.14566  0.67683  1.0000
  H   H16       1.0  0.24879000000000007  0.8799499999999998  0.82151  1.0000
  H   H17       1.0  0.63491  0.88521  0.73362  1.0000
  H   H18       1.0  0.50363  0.028359999999999993  0.72788  1.0000
  H   H19       1.0  0.38112000000000007  0.38508  0.9158299999999998  1.0000
  H   H20       1.0  0.48999  0.46975  0.89222  1.0000
  H   H21       1.0  0.6345600000000001  0.47769  0.0383  1.0000
  H   H22       1.0  0.38188  0.67587  0.98076  1.0000
  H   H23       1.0  0.4905100000000001  0.63473  0.9289399999999999  1.0000
  H   H24       1.0  0.23326000000000002  0.43864  0.98541  1.0000
  H   H25       1.0  0.7792400000000002  0.7615499999999997  0.68072  1.0000
  H   H26       1.0  0.09071  0.79487  0.82884  1.0000
  H   H27       1.0  0.96779  0.64565  0.82318  1.0000
  H   H28       1.0  0.7512200000000001  0.37995  0.6785  1.0000
  H   H29       1.0  0.3650900000000001  0.3852199999999999  0.7663799999999998  1.0000
  H   H30       1.0  0.49636  0.52836  0.77213  1.0000
  H   H31       1.0  0.61888  0.88508  0.58418  1.0000
  H   H32       1.0  0.51001  0.9697499999999999  0.60778  1.0000
  H   H33       1.0  0.36544  0.9776899999999997  0.46171  1.0000
  H   H34       1.0  0.6181200000000001  0.17586999999999994  0.5192399999999999  1.0000
  H   H35       1.0  0.50949  0.13473  0.57106  1.0000
  H   H36       1.0  0.76674  0.9386399999999998  0.51459  1.0000
  H   H37       1.0  0.7792400000000002  0.23844999999999994  0.31928  1.0000
  H   H38       1.0  0.09071  0.20512  0.17116  1.0000
  H   H39       1.0  0.96779  0.3543499999999999  0.17683  1.0000
  H   H40       1.0  0.7512200000000001  0.6200399999999999  0.32150999999999996  1.0000
  H   H41       1.0  0.3650900000000001  0.6147799999999999  0.23362999999999998  1.0000
  H   H42       1.0  0.49636  0.4716399999999999  0.22788  1.0000
  H   H43       1.0  0.61888  0.11492  0.41583  1.0000
  H   H44       1.0  0.51001  0.030249999999999992  0.39222  1.0000
  H   H45       1.0  0.36544  0.02231  0.5383  1.0000
  H   H46       1.0  0.6181200000000001  0.82413  0.48075999999999997  1.0000
  H   H47       1.0  0.50949  0.86527  0.42893999999999993  1.0000
  H   H48       1.0  0.76674  0.06135999999999999  0.48541  1.0000
  C   C1        1.0  0.14989  0.72935  0.21236  1.0000
  C   C2        1.0  0.08599  0.6426599999999998  0.21203  1.0000
  C   C3        1.0  0.12981  0.56314  0.17204  1.0000
  C   C4        1.0  0.9957500000000002  0.6323  0.25422  1.0000
  C   C5        1.0  0.08656000000000003  0.04702  0.24497  1.0000
  C   C6        1.0  0.9775100000000001  0.70935  0.29514  1.0000
  C   C7        1.0  0.04601  0.7928799999999998  0.29262  1.0000
  C   C8        1.0  0.33385  0.12206999999999997  0.19858  1.0000
  C   C9        1.0  0.4006300000000001  0.20667999999999995  0.19438  1.0000
  C   C10       1.0  0.34546  0.2949099999999999  0.16789  1.0000
  C   C11       1.0  0.51188  0.20663999999999993  0.21938  1.0000
  C   C12       1.0  0.40848000000000007  0.79397  0.28306  1.0000
  C   C13       1.0  0.54923  0.11968  0.24685999999999994  1.0000
  C   C14       1.0  0.4761600000000001  0.039259999999999996  0.25043  1.0000
  C   C15       1.0  0.43626  0.5542699999999999  0.06963  1.0000
  C   C16       1.0  0.43638  0.38612999999999986  0.03226  1.0000
  C   C17       1.0  0.14989  0.27064999999999995  0.7876399999999999  1.0000
  C   C18       1.0  0.08599  0.35732999999999987  0.78797  1.0000
  C   C19       1.0  0.12981  0.43685999999999997  0.82796  1.0000
  C   C20       1.0  0.9957500000000002  0.36769999999999997  0.74578  1.0000
  C   C21       1.0  0.08655  0.95298  0.75503  1.0000
  C   C22       1.0  0.9775100000000001  0.2906499999999999  0.70486  1.0000
  C   C23       1.0  0.04601  0.20712  0.70739  1.0000
  C   C24       1.0  0.33385  0.8779299999999998  0.80142  1.0000
  C   C25       1.0  0.4006300000000001  0.7933099999999997  0.80563  1.0000
  C   C26       1.0  0.34546  0.7050899999999999  0.8321199999999999  1.0000
  C   C27       1.0  0.51188  0.79336  0.7806299999999999  1.0000
  C   C28       1.0  0.40848000000000007  0.20601999999999995  0.71694  1.0000
  C   C29       1.0  0.54923  0.8803199999999998  0.75314  1.0000
  C   C30       1.0  0.4761600000000001  0.96074  0.7495699999999998  1.0000
  C   C31       1.0  0.43626  0.44571999999999995  0.93037  1.0000
  C   C32       1.0  0.43638  0.6138699999999999  0.96774  1.0000
  C   C33       1.0  0.85011  0.7706499999999997  0.7123599999999999  1.0000
  C   C34       1.0  0.9140100000000001  0.8573299999999998  0.71204  1.0000
  C   C35       1.0  0.8701900000000002  0.93686  0.67204  1.0000
  C   C36       1.0  0.00425  0.8677  0.7542199999999999  1.0000
  C   C37       1.0  0.91345  0.45299  0.7449699999999999  1.0000
  C   C38       1.0  0.022490000000000003  0.79065  0.79514  1.0000
  C   C39       1.0  0.9539900000000002  0.7071199999999997  0.7926199999999999  1.0000
  C   C40       1.0  0.66615  0.37793  0.69858  1.0000
  C   C41       1.0  0.59937  0.2933199999999999  0.69438  1.0000
  C   C42       1.0  0.65454  0.20509999999999995  0.6678799999999999  1.0000
  C   C43       1.0  0.48812000000000005  0.29336  0.71938  1.0000
  C   C44       1.0  0.59153  0.70602  0.7830599999999999  1.0000
  C   C45       1.0  0.4507800000000001  0.3803199999999999  0.74686  1.0000
  C   C46       1.0  0.52384  0.46073999999999987  0.7504399999999999  1.0000
  C   C47       1.0  0.5637400000000001  0.9457199999999998  0.56963  1.0000
  C   C48       1.0  0.56362  0.11386999999999997  0.53226  1.0000
  C   C49       1.0  0.85011  0.22935  0.28764  1.0000
  C   C50       1.0  0.9140100000000001  0.14266  0.28797  1.0000
  C   C51       1.0  0.8701900000000002  0.06314  0.32796  1.0000
  C   C52       1.0  0.00425  0.1323  0.24577999999999997  1.0000
  C   C53       1.0  0.91345  0.5470099999999999  0.25503  1.0000
  C   C54       1.0  0.022490000000000003  0.20935  0.20486  1.0000
  C   C55       1.0  0.9539900000000002  0.29288  0.20738  1.0000
  C   C56       1.0  0.66615  0.6220699999999998  0.30142  1.0000
  C   C57       1.0  0.59937  0.7066799999999999  0.30563  1.0000
  C   C58       1.0  0.65454  0.7949  0.33211999999999997  1.0000
  C   C59       1.0  0.48812000000000005  0.70664  0.28063  1.0000
  C   C60       1.0  0.59153  0.29397  0.21693999999999997  1.0000
  C   C61       1.0  0.4507800000000001  0.6196799999999998  0.25314  1.0000
  C   C62       1.0  0.52384  0.53926  0.24957  1.0000
  C   C63       1.0  0.5637400000000001  0.05428  0.43037  1.0000
  C   C64       1.0  0.56362  0.8861299999999998  0.46774  1.0000
  C   C65       1.0  0.58015  0.4999999999999999  0.0  1.0000
  C   C66       1.0  0.28748  0.4999999999999999  0.0  1.0000
  C   C67       1.0  0.41985  0.0  0.5  1.0000
  C   C68       1.0  0.7125200000000003  0.0  0.5  1.0000
  N   N1        1.0  0.3684200000000001  0.04055999999999999  0.22744999999999999  1.0000
  N   N2        1.0  0.13152  0.8030199999999997  0.25172  1.0000
  N   N3        1.0  0.3592000000000001  0.46912  0.0524  1.0000
  N   N4        1.0  0.5083  0.58384  0.01876  1.0000
  N   N5        1.0  0.3684200000000001  0.9594299999999998  0.77255  1.0000
  N   N6        1.0  0.13152  0.19697999999999993  0.7482899999999999  1.0000
  N   N7        1.0  0.3592000000000001  0.53088  0.94761  1.0000
  N   N8        1.0  0.5083  0.4161499999999999  0.98125  1.0000
  N   N9        1.0  0.63158  0.45943999999999996  0.72746  1.0000
  N   N10       1.0  0.86848  0.6969799999999999  0.75172  1.0000
  N   N11       1.0  0.6408  0.030879999999999998  0.5524  1.0000
  N   N12       1.0  0.4917  0.91615  0.51876  1.0000
  N   N13       1.0  0.63158  0.5405599999999999  0.27255  1.0000
  N   N14       1.0  0.86848  0.30302  0.24827999999999995  1.0000
  N   N15       1.0  0.6408  0.9691199999999998  0.4476  1.0000
  N   N16       1.0  0.4917  0.08385  0.48125  1.0000
  O   O1        1.0  0.18928000000000003  0.58603  0.125  1.0000
  O   O2        1.0  0.11984000000000002  0.4734699999999999  0.18794  1.0000
  O   O3        1.0  0.1337  0.02226  0.29533999999999994  1.0000
  O   O4        1.0  0.11352000000000001  0.00933  0.19426999999999997  1.0000
  O   O5        1.0  0.26266  0.28444  0.12968  1.0000
  O   O6        1.0  0.3772000000000001  0.3803199999999999  0.18455  1.0000
  O   O7        1.0  0.3760200000000001  0.82424  0.23025  1.0000
  O   O8        1.0  0.37639  0.8286199999999998  0.33295  1.0000
  O   O9        1.0  0.18928000000000003  0.4139699999999999  0.8749999999999999  1.0000
  O   O10       1.0  0.11984000000000002  0.52652  0.81207  1.0000
  O   O11       1.0  0.13369  0.9777499999999999  0.70466  1.0000
  O   O12       1.0  0.11352000000000001  0.9906699999999998  0.80574  1.0000
  O   O13       1.0  0.26266  0.7155599999999998  0.87033  1.0000
  O   O14       1.0  0.3771900000000001  0.6196799999999998  0.81545  1.0000
  O   O15       1.0  0.3760200000000001  0.17575999999999997  0.76975  1.0000
  O   O16       1.0  0.37639  0.17137  0.66706  1.0000
  O   O17       1.0  0.81072  0.91397  0.625  1.0000
  O   O18       1.0  0.88016  0.02653  0.68794  1.0000
  O   O19       1.0  0.8663200000000002  0.47776999999999986  0.79534  1.0000
  O   O20       1.0  0.8864800000000002  0.49067  0.69426  1.0000
  O   O21       1.0  0.7373400000000001  0.21556999999999996  0.62967  1.0000
  O   O22       1.0  0.6228  0.11968  0.68455  1.0000
  O   O23       1.0  0.62398  0.67576  0.73025  1.0000
  O   O24       1.0  0.6236100000000001  0.6713699999999999  0.83295  1.0000
  O   O25       1.0  0.81072  0.08602999999999997  0.37499999999999994  1.0000
  O   O26       1.0  0.88016  0.9734699999999997  0.31207  1.0000
  O   O27       1.0  0.8663200000000002  0.52223  0.20466  1.0000
  O   O28       1.0  0.8864800000000002  0.5093299999999998  0.30574  1.0000
  O   O29       1.0  0.7373400000000001  0.7844299999999998  0.37033  1.0000
  O   O30       1.0  0.6228  0.8803199999999998  0.31546  1.0000
  O   O31       1.0  0.62398  0.32423999999999986  0.26975  1.0000
  O   O32       1.0  0.6236100000000001  0.32862999999999987  0.16706  1.0000
