data_image0
_chemical_formula_structural       Gd4H48C84N12O24
_chemical_formula_sum              "Gd4 H48 C84 N12 O24"
_cell_length_a       8.5355
_cell_length_b       16.35864
_cell_length_c       21.19879
_cell_angle_alpha    95.2922
_cell_angle_beta     90.09957
_cell_angle_gamma    90.01682

_space_group_name_H-M_alt    "P 1"
_space_group_IT_number       1

loop_
  _space_group_symop_operation_xyz
  'x, y, z'

loop_
  _atom_site_type_symbol
  _atom_site_label
  _atom_site_symmetry_multiplicity
  _atom_site_fract_x
  _atom_site_fract_y
  _atom_site_fract_z
  _atom_site_occupancy
  Gd  Gd1       1.0  0.7861  0.75701  0.27817  1.0000
  Gd  Gd2       1.0  0.28628  0.74221  0.22309000000000004  1.0000
  Gd  Gd3       1.0  0.21390000000000003  0.24299000000000004  0.72183  1.0000
  Gd  Gd4       1.0  0.7137300000000002  0.25778  0.7769100000000001  1.0000
  H   H1        1.0  0.34025  0.06585  0.47118  1.0000
  H   H2        1.0  0.03029  0.85868  0.44352  1.0000
  H   H3        1.0  0.54804  0.9872199999999999  0.40667  1.0000
  H   H4        1.0  0.23300000000000007  0.78141  0.37758  1.0000
  H   H5        1.0  0.7934600000000002  0.95092  0.22762  1.0000
  H   H6        1.0  0.37481  0.50927  0.13953  1.0000
  H   H7        1.0  0.3706800000000001  0.96237  0.11825  1.0000
  H   H8        1.0  0.77836  0.48086  0.25697  1.0000
  H   H9        1.0  0.40008  0.11581  0.12055  1.0000
  H   H10       1.0  0.36412  0.35563  0.11366000000000001  1.0000
  H   H11       1.0  0.82062  0.10367  0.2313  1.0000
  H   H12       1.0  0.7639200000000003  0.3278  0.23351  1.0000
  H   H13       1.0  0.84115  0.43501  0.02875  1.0000
  H   H14       1.0  0.52913  0.64091  0.05671  1.0000
  H   H15       1.0  0.04796  0.51389  0.09404  1.0000
  H   H16       1.0  0.7307500000000002  0.71852  0.12353  1.0000
  H   H17       1.0  0.29305  0.54897  0.27312  1.0000
  H   H18       1.0  0.8756400000000001  0.99008  0.35996  1.0000
  H   H19       1.0  0.8709900000000003  0.53712  0.38236  1.0000
  H   H20       1.0  0.27889  0.019259999999999996  0.24301999999999999  1.0000
  H   H21       1.0  0.89961  0.38355  0.37938  1.0000
  H   H22       1.0  0.86441  0.14368999999999998  0.38591999999999993  1.0000
  H   H23       1.0  0.31948  0.3962  0.2689  1.0000
  H   H24       1.0  0.26389  0.17225  0.26671  1.0000
  H   H25       1.0  0.65976  0.93415  0.52882  1.0000
  H   H26       1.0  0.96972  0.14132  0.55648  1.0000
  H   H27       1.0  0.45197  0.012770000000000002  0.59333  1.0000
  H   H28       1.0  0.76701  0.21859  0.62242  1.0000
  H   H29       1.0  0.20654  0.049079999999999985  0.77238  1.0000
  H   H30       1.0  0.6252  0.49073  0.8604700000000001  1.0000
  H   H31       1.0  0.6293200000000001  0.03762999999999998  0.8817499999999999  1.0000
  H   H32       1.0  0.22165000000000004  0.51913  0.74303  1.0000
  H   H33       1.0  0.5999300000000002  0.88419  0.8794400000000001  1.0000
  H   H34       1.0  0.63588  0.64437  0.8863399999999999  1.0000
  H   H35       1.0  0.17939  0.89633  0.7687  1.0000
  H   H36       1.0  0.23609000000000002  0.67219  0.76649  1.0000
  H   H37       1.0  0.15886  0.56499  0.97125  1.0000
  H   H38       1.0  0.47087000000000007  0.35908  0.94329  1.0000
  H   H39       1.0  0.9520500000000001  0.4861  0.9059599999999999  1.0000
  H   H40       1.0  0.26925000000000004  0.28148  0.87647  1.0000
  H   H41       1.0  0.70696  0.45103  0.72688  1.0000
  H   H42       1.0  0.12437000000000001  0.009920000000000002  0.64004  1.0000
  H   H43       1.0  0.12902  0.46288  0.61764  1.0000
  H   H44       1.0  0.7211200000000002  0.98074  0.75698  1.0000
  H   H45       1.0  0.1004  0.61644  0.62061  1.0000
  H   H46       1.0  0.1356  0.85631  0.61408  1.0000
  H   H47       1.0  0.68053  0.6038  0.7311  1.0000
  H   H48       1.0  0.73612  0.8277399999999999  0.73329  1.0000
  C   C1        1.0  0.32006  0.0034899999999999966  0.45025999999999994  1.0000
  C   C2        1.0  0.14351  0.88601  0.43504  1.0000
  C   C3        1.0  0.43430000000000013  0.95992  0.41453  1.0000
  C   C4        1.0  0.57901  0.59367  0.21839  1.0000
  C   C5        1.0  0.25658  0.84332  0.39846  1.0000
  C   C6        1.0  0.5634400000000003  0.85736  0.17533  1.0000
  C   C7        1.0  0.17454  0.96686  0.46063  1.0000
  C   C8        1.0  0.58127  0.94752  0.1724  1.0000
  C   C9        1.0  0.40228000000000014  0.87976  0.38775  1.0000
  C   C10       1.0  0.7090300000000003  0.9871300000000001  0.20384000000000002  1.0000
  C   C11       1.0  0.5232400000000001  0.83352  0.34888  1.0000
  C   C12       1.0  0.5761700000000002  0.50346  0.20032  1.0000
  C   C13       1.0  0.45948  0.46892  0.15937  1.0000
  C   C14       1.0  0.46956  0.99398  0.14206  1.0000
  C   C15       1.0  0.68826  0.4525699999999999  0.22584  1.0000
  C   C16       1.0  0.4852  0.07877  0.14338  1.0000
  C   C17       1.0  0.56191  0.33317  0.17247  1.0000
  C   C18       1.0  0.45339  0.3842  0.14508  1.0000
  C   C19       1.0  0.61255  0.1183  0.17612  1.0000
  C   C20       1.0  0.72432  0.0718  0.20593  1.0000
  C   C21       1.0  0.68096  0.36801  0.2127  1.0000
  C   C22       1.0  0.82033  0.49717999999999996  0.04992  1.0000
  C   C23       1.0  0.6428  0.6141  0.06537  1.0000
  C   C24       1.0  0.93395  0.54082  0.08612  1.0000
  C   C25       1.0  0.07908  0.90586  0.28089  1.0000
  C   C26       1.0  0.75534  0.65685  0.10243999999999999  1.0000
  C   C27       1.0  0.06344  0.64244  0.32599  1.0000
  C   C28       1.0  0.67455  0.53349  0.0395  1.0000
  C   C29       1.0  0.08111  0.55219  0.32834  1.0000
  C   C30       1.0  0.90126  0.62065  0.11329  1.0000
  C   C31       1.0  0.2085  0.51272  0.29673  1.0000
  C   C32       1.0  0.022570000000000007  0.6664  0.15244  1.0000
  C   C33       1.0  0.07665  0.9961099999999999  0.29929  1.0000
  C   C34       1.0  0.96016  0.030519999999999995  0.34023  1.0000
  C   C35       1.0  0.96947  0.50553  0.35842  1.0000
  C   C36       1.0  0.18862  0.04724  0.27405  1.0000
  C   C37       1.0  0.98468  0.4207  0.35671  1.0000
  C   C38       1.0  0.06196000000000001  0.16643  0.32737  1.0000
  C   C39       1.0  0.9537800000000001  0.11522  0.35464  1.0000
  C   C40       1.0  0.11165000000000003  0.38134  0.32384  1.0000
  C   C41       1.0  0.22339000000000003  0.42801  0.29428  1.0000
  C   C42       1.0  0.18115  0.13178  0.28731  1.0000
  C   C43       1.0  0.67994  0.9965099999999999  0.54974  1.0000
  C   C44       1.0  0.85649  0.11398  0.56495  1.0000
  C   C45       1.0  0.56571  0.04008  0.58547  1.0000
  C   C46       1.0  0.421  0.40632  0.78161  1.0000
  C   C47       1.0  0.74343  0.15668  0.60154  1.0000
  C   C48       1.0  0.43656  0.14262999999999998  0.8246699999999999  1.0000
  C   C49       1.0  0.82546  0.03313999999999999  0.53937  1.0000
  C   C50       1.0  0.41874  0.052469999999999975  0.8275999999999999  1.0000
  C   C51       1.0  0.59773  0.12024  0.61225  1.0000
  C   C52       1.0  0.29098  0.012870000000000005  0.79615  1.0000
  C   C53       1.0  0.4767700000000001  0.16648  0.65112  1.0000
  C   C54       1.0  0.42383000000000004  0.49653  0.79968  1.0000
  C   C55       1.0  0.5405300000000002  0.53108  0.84063  1.0000
  C   C56       1.0  0.53045  0.006009999999999995  0.85794  1.0000
  C   C57       1.0  0.31175  0.54743  0.7741600000000001  1.0000
  C   C58       1.0  0.5148100000000001  0.9212299999999999  0.85662  1.0000
  C   C59       1.0  0.43810000000000004  0.66682  0.82753  1.0000
  C   C60       1.0  0.54662  0.6158  0.85492  1.0000
  C   C61       1.0  0.38746  0.8817  0.82388  1.0000
  C   C62       1.0  0.2756800000000001  0.92819  0.79407  1.0000
  C   C63       1.0  0.3190500000000001  0.63198  0.7873  1.0000
  C   C64       1.0  0.17968000000000006  0.50281  0.95008  1.0000
  C   C65       1.0  0.3572  0.38589  0.9346199999999999  1.0000
  C   C66       1.0  0.06605  0.45918  0.91388  1.0000
  C   C67       1.0  0.92093  0.09413  0.71911  1.0000
  C   C68       1.0  0.24467  0.34315  0.89756  1.0000
  C   C69       1.0  0.93656  0.35755  0.67401  1.0000
  C   C70       1.0  0.32546  0.46651  0.9605000000000001  1.0000
  C   C71       1.0  0.9189  0.44781  0.67165  1.0000
  C   C72       1.0  0.09875000000000003  0.37934999999999997  0.88671  1.0000
  C   C73       1.0  0.79151  0.48727000000000004  0.70327  1.0000
  C   C74       1.0  0.97744  0.3336  0.84755  1.0000
  C   C75       1.0  0.9233600000000002  0.0038899999999999994  0.70071  1.0000
  C   C76       1.0  0.03985  0.96948  0.65977  1.0000
  C   C77       1.0  0.030540000000000005  0.49446999999999997  0.64158  1.0000
  C   C78       1.0  0.8113800000000002  0.9527599999999999  0.72595  1.0000
  C   C79       1.0  0.015330000000000002  0.5793000000000001  0.64329  1.0000
  C   C80       1.0  0.9380500000000002  0.83356  0.67263  1.0000
  C   C81       1.0  0.04622  0.88478  0.64536  1.0000
  C   C82       1.0  0.8883600000000001  0.61865  0.67616  1.0000
  C   C83       1.0  0.77662  0.57199  0.70572  1.0000
  C   C84       1.0  0.81886  0.86821  0.71269  1.0000
  N   N1        1.0  0.06759  0.016169999999999997  0.49802  1.0000
  N   N2        1.0  0.5372900000000003  0.24763000000000002  0.15895  1.0000
  N   N3        1.0  0.6386700000000001  0.20388  0.18474  1.0000
  N   N4        1.0  0.56777  0.48401  0.00197  1.0000
  N   N5        1.0  0.037070000000000006  0.25193  0.34097  1.0000
  N   N6        1.0  0.13761000000000007  0.29582  0.31494  1.0000
  N   N7        1.0  0.93241  0.9838200000000001  0.50198  1.0000
  N   N8        1.0  0.46272  0.75236  0.84105  1.0000
  N   N9        1.0  0.36134  0.79612  0.8152600000000001  1.0000
  N   N10       1.0  0.43224  0.51599  0.9980299999999999  1.0000
  N   N11       1.0  0.9629400000000001  0.74806  0.65902  1.0000
  N   N12       1.0  0.8624000000000003  0.70418  0.68506  1.0000
  O   O1        1.0  0.68015  0.81882  0.19677000000000003  1.0000
  O   O2        1.0  0.66744  0.8492  0.35903  1.0000
  O   O3        1.0  0.6991800000000002  0.62435  0.24762000000000003  1.0000
  O   O4        1.0  0.4601000000000001  0.63537  0.20402  1.0000
  O   O5        1.0  0.43529  0.82173  0.15845  1.0000
  O   O6        1.0  0.48424000000000006  0.77683  0.30455  1.0000
  O   O7        1.0  0.17995  0.68128  0.30488  1.0000
  O   O8        1.0  0.16672  0.6506  0.14222  1.0000
  O   O9        1.0  0.19825  0.87501  0.25128  1.0000
  O   O10       1.0  0.95991  0.86436  0.29523  1.0000
  O   O11       1.0  0.93534  0.67796  0.34307  1.0000
  O   O12       1.0  0.9844500000000002  0.7227  0.19707  1.0000
  O   O13       1.0  0.3198600000000001  0.18117  0.80323  1.0000
  O   O14       1.0  0.33257  0.15079  0.64097  1.0000
  O   O15       1.0  0.30083  0.37565  0.75238  1.0000
  O   O16       1.0  0.53991  0.36462  0.79598  1.0000
  O   O17       1.0  0.5647200000000001  0.17826  0.84155  1.0000
  O   O18       1.0  0.51577  0.22317  0.69545  1.0000
  O   O19       1.0  0.82006  0.31872  0.69512  1.0000
  O   O20       1.0  0.83329  0.34939000000000003  0.8577800000000001  1.0000
  O   O21       1.0  0.80176  0.12499000000000002  0.74872  1.0000
  O   O22       1.0  0.0401  0.13564  0.70477  1.0000
  O   O23       1.0  0.06467  0.32204  0.65693  1.0000
  O   O24       1.0  0.015560000000000001  0.27729  0.8029200000000001  1.0000
