data_image0
_chemical_formula_structural       Cu10H62C72N18O26
_chemical_formula_sum              "Cu10 H62 C72 N18 O26"
_cell_length_a       15.67409
_cell_length_b       18.014880000000005
_cell_length_c       18.01102
_cell_angle_alpha    76.01926
_cell_angle_beta     79.48771
_cell_angle_gamma    79.40678

_symmetry_space_group_name_H-M    'P 1'
_symmetry_Int_Tables_number       1

loop_
  _symmetry_equiv_pos_as_xyz
  'x,y,z'

loop_
  _atom_site_type_symbol
  _atom_site_label
  _atom_site_symmetry_multiplicity
  _atom_site_fract_x
  _atom_site_fract_y
  _atom_site_fract_z
  _atom_site_occupancy
  Cu  Cu1       1.0  0.74305  0.6122000000000001  0.76615  1.0000
  Cu  Cu2       1.0  0.25546  0.23397  0.38882  1.0000
  Cu  Cu3       1.0  0.2556699999999999  0.38833000000000006  0.23464999999999997  1.0000
  Cu  Cu4       1.0  0.7427799999999997  0.76589  0.61244  1.0000
  Cu  Cu5       1.0  0.8642899999999999  0.75131  0.75146  1.0000
  Cu  Cu6       1.0  0.5444900000000001  0.5337399999999999  0.53307  1.0000
  Cu  Cu7       1.0  0.13489999999999988  0.24855000000000002  0.24907  1.0000
  Cu  Cu8       1.0  0.4544599999999999  0.46744999999999987  0.4663300000000001  1.0000
  Cu  Cu9       1.0  0.0001299999999999956  0.50006  6e-05  1.0000
  Cu  Cu10      1.0  0.99882  9.999999999999855e-05  0.49986  1.0000
  H   H1        1.0  0.9705499999999999  0.7510800000000001  0.87503  1.0000
  H   H2        1.0  0.053329999999999905  0.66855  0.8942  1.0000
  H   H3        1.0  0.96967  0.69055  0.9700799999999999  1.0000
  H   H4        1.0  0.8035599999999997  0.45535  0.87133  1.0000
  H   H5        1.0  0.8153899999999995  0.44958  0.96919  1.0000
  H   H6        1.0  0.9091199999999999  0.42262  0.90391  1.0000
  H   H7        1.0  0.5561199999999997  0.49152000000000007  0.74167  1.0000
  H   H8        1.0  0.6679999999999998  0.4680500000000001  0.75461  1.0000
  H   H9        1.0  0.63051  0.44392  0.67567  1.0000
  H   H10       1.0  0.4878699999999998  0.64226  0.9718800000000001  1.0000
  H   H11       1.0  0.6165099999999998  0.42425999999999997  0.92251  1.0000
  H   H12       1.0  0.2607099999999998  0.54187  0.85763  1.0000
  H   H13       1.0  0.13589999999999988  0.38926  0.77709  1.0000
  H   H14       1.0  0.37990000000000007  0.5415299999999998  0.74376  1.0000
  H   H15       1.0  0.2530199999999998  0.39221000000000006  0.66068  1.0000
  H   H16       1.0  0.027029999999999995  0.12614  0.24952  1.0000
  H   H17       1.0  0.9447599999999999  0.10652  0.33224  1.0000
  H   H18       1.0  0.028719999999999978  0.031020000000000006  0.30995  1.0000
  H   H19       1.0  0.19368999999999992  0.13058  0.54554  1.0000
  H   H20       1.0  0.182  0.03258999999999998  0.55197  1.0000
  H   H21       1.0  0.08812999999999996  0.09815000000000002  0.57822  1.0000
  H   H22       1.0  0.44328  0.25973  0.50854  1.0000
  H   H23       1.0  0.33167999999999986  0.24611  0.53197  1.0000
  H   H24       1.0  0.36826999999999993  0.32549000000000017  0.55603  1.0000
  H   H25       1.0  0.51024  0.02947  0.35637  1.0000
  H   H26       1.0  0.3832999999999999  0.07787000000000001  0.57473  1.0000
  H   H27       1.0  0.7383299999999998  0.14253  0.45775  1.0000
  H   H28       1.0  0.86305  0.22297000000000006  0.61056  1.0000
  H   H29       1.0  0.6184499999999998  0.25581999999999994  0.45875  1.0000
  H   H30       1.0  0.7451500000000002  0.3386799999999999  0.60842  1.0000
  H   H31       1.0  0.02946  0.24902  0.12479  1.0000
  H   H32       1.0  0.9468000000000001  0.33178  0.10635  1.0000
  H   H33       1.0  0.03008999999999997  0.31033  0.03008  1.0000
  H   H34       1.0  0.19445  0.54488  0.13154  1.0000
  H   H35       1.0  0.18515  0.55106  0.033  1.0000
  H   H36       1.0  0.08983999999999998  0.5772200000000001  0.09712  1.0000
  H   H37       1.0  0.44027  0.50934  0.2571  1.0000
  H   H38       1.0  0.32773999999999986  0.53311  0.24661999999999998  1.0000
  H   H39       1.0  0.3678899999999997  0.5567000000000002  0.3245  1.0000
  H   H40       1.0  0.5118999999999998  0.35526000000000013  0.02872999999999999  1.0000
  H   H41       1.0  0.38307  0.57311  0.0779  1.0000
  H   H42       1.0  0.7410799999999997  0.45739000000000013  0.14201  1.0000
  H   H43       1.0  0.8630499999999995  0.61072  0.22408  1.0000
  H   H44       1.0  0.6201899999999999  0.45786  0.25462  1.0000
  H   H45       1.0  0.74444  0.60778  0.33942  1.0000
  H   H46       1.0  0.97111  0.87415  0.75098  1.0000
  H   H47       1.0  0.05352999999999993  0.89351  0.66835  1.0000
  H   H48       1.0  0.9699499999999996  0.9693300000000001  0.69074  1.0000
  H   H49       1.0  0.8045999999999998  0.8693900000000001  0.45511  1.0000
  H   H50       1.0  0.8147499999999999  0.9676800000000001  0.44916  1.0000
  H   H51       1.0  0.9094900000000004  0.90308  0.4227199999999999  1.0000
  H   H52       1.0  0.55692  0.74205  0.4914299999999999  1.0000
  H   H53       1.0  0.66905  0.75382  0.46821000000000007  1.0000
  H   H54       1.0  0.63061  0.67544  0.44403  1.0000
  H   H55       1.0  0.48850999999999956  0.9713  0.64326  1.0000
  H   H56       1.0  0.6158999999999998  0.9231200000000002  0.42462  1.0000
  H   H57       1.0  0.25952  0.8587100000000001  0.54235  1.0000
  H   H58       1.0  0.13608999999999988  0.77692  0.38971999999999996  1.0000
  H   H59       1.0  0.38051999999999986  0.74612  0.54127  1.0000
  H   H60       1.0  0.2549  0.66166  0.39191  1.0000
  H   H61       1.0  0.8581399999999999  0.66328  0.66367  1.0000
  H   H62       1.0  0.14177999999999993  0.33666999999999997  0.33645  1.0000
  C   C1        1.0  0.9836500000000001  0.69143  0.90781  1.0000
  C   C2        1.0  0.92845  0.642  0.88873  1.0000
  C   C3        1.0  0.86779  0.54296  0.88895  1.0000
  C   C4        1.0  0.8474099999999999  0.46265000000000006  0.90888  1.0000
  C   C5        1.0  0.6404099999999999  0.56248  0.66034  1.0000
  C   C6        1.0  0.6237199999999999  0.4867600000000001  0.71119  1.0000
  C   C7        1.0  0.61976  0.57946  0.8785899999999999  1.0000
  C   C8        1.0  0.5582699999999997  0.5374000000000002  0.94139  1.0000
  C   C9        1.0  0.4923199999999998  0.57958  0.9850500000000001  1.0000
  C   C10       1.0  0.5654200000000001  0.4563199999999999  0.95697  1.0000
  C   C11       1.0  0.11773999999999998  0.46826000000000007  0.88928  1.0000
  C   C12       1.0  0.1909999999999999  0.46586  0.82356  1.0000
  C   C13       1.0  0.25995999999999997  0.50863  0.81483  1.0000
  C   C14       1.0  0.18950000000000003  0.4224899999999999  0.7688  1.0000
  C   C15       1.0  0.39146  0.47173  0.62567  1.0000
  C   C16       1.0  0.32337  0.46678  0.69588  1.0000
  C   C17       1.0  0.32622999999999985  0.50846  0.75177  1.0000
  C   C18       1.0  0.25471  0.42365  0.70477  1.0000
  C   C19       1.0  0.01442999999999999  0.09327  0.30918  1.0000
  C   C20       1.0  0.06972999999999999  0.11229000000000004  0.35865  1.0000
  C   C21       1.0  0.12994999999999995  0.11234000000000001  0.458  1.0000
  C   C22       1.0  0.14995  0.09288  0.53843  1.0000
  C   C23       1.0  0.3583899999999998  0.34042  0.43749  1.0000
  C   C24       1.0  0.37546999999999997  0.28982  0.51324  1.0000
  C   C25       1.0  0.37798  0.12159000000000003  0.42097  1.0000
  C   C26       1.0  0.44057999999999997  0.059020000000000045  0.4618099999999999  1.0000
  C   C27       1.0  0.50631  0.01582  0.419  1.0000
  C   C28       1.0  0.4342  0.043279999999999985  0.54274  1.0000
  C   C29       1.0  0.8807899999999999  0.11073  0.53006  1.0000
  C   C30       1.0  0.8077299999999997  0.17637000000000003  0.53381  1.0000
  C   C31       1.0  0.73856  0.18518000000000004  0.49128999999999995  1.0000
  C   C32       1.0  0.8092499999999999  0.23087000000000002  0.57752  1.0000
  C   C33       1.0  0.6063000000000001  0.3739100000000001  0.52877  1.0000
  C   C34       1.0  0.6747099999999998  0.3037099999999999  0.53379  1.0000
  C   C35       1.0  0.67205  0.24802  0.4918699999999999  1.0000
  C   C36       1.0  0.74362  0.29472  0.57679  1.0000
  C   C37       1.0  0.016430000000000018  0.30887  0.09247  1.0000
  C   C38       1.0  0.0718  0.35808  0.11171  1.0000
  C   C39       1.0  0.1320699999999999  0.4571700000000001  0.11193999999999998  1.0000
  C   C40       1.0  0.1519299999999999  0.53756  0.09287  1.0000
  C   C41       1.0  0.3575199999999997  0.4382200000000001  0.33991  1.0000
  C   C42       1.0  0.3733200000000001  0.5140799999999999  0.28895  1.0000
  C   C43       1.0  0.38013  0.41836  0.12201  1.0000
  C   C44       1.0  0.44179  0.46021  0.05929  1.0000
  C   C45       1.0  0.50764  0.41793000000000013  0.015599999999999998  1.0000
  C   C46       1.0  0.43449999999999983  0.54121  0.0436  1.0000
  C   C47       1.0  0.8828999999999998  0.53186  0.1115  1.0000
  C   C48       1.0  0.80938  0.5336500000000001  0.17708  1.0000
  C   C49       1.0  0.7408199999999997  0.4906400000000001  0.18507  1.0000
  C   C50       1.0  0.8098  0.57719  0.23193999999999998  1.0000
  C   C51       1.0  0.60631  0.52827  0.37286999999999987  1.0000
  C   C52       1.0  0.6754299999999998  0.53279  0.30347  1.0000
  C   C53       1.0  0.67371  0.49090000000000006  0.24746  1.0000
  C   C54       1.0  0.7437899999999997  0.57603  0.29535  1.0000
  C   C55       1.0  0.9839  0.90711  0.69136  1.0000
  C   C56       1.0  0.9283700000000001  0.88833  0.64193  1.0000
  C   C57       1.0  0.8676399999999995  0.8882500000000001  0.5429099999999999  1.0000
  C   C58       1.0  0.8475699999999997  0.90762  0.46249  1.0000
  C   C59       1.0  0.6405500000000001  0.66002  0.56271  1.0000
  C   C60       1.0  0.6242599999999998  0.71091  0.48686  1.0000
  C   C61       1.0  0.6197200000000002  0.87859  0.57953  1.0000
  C   C62       1.0  0.55794  0.94129  0.53789  1.0000
  C   C63       1.0  0.49232999999999977  0.98464  0.58065  1.0000
  C   C64       1.0  0.5646299999999997  0.9572200000000001  0.4569  1.0000
  C   C65       1.0  0.11727999999999994  0.8896000000000001  0.46851999999999994  1.0000
  C   C66       1.0  0.19080999999999984  0.8241000000000003  0.46608000000000005  1.0000
  C   C67       1.0  0.25969  0.8159200000000001  0.50884  1.0000
  C   C68       1.0  0.18990000000000004  0.76925  0.42266  1.0000
  C   C69       1.0  0.39356  0.6277999999999999  0.47139  1.0000
  C   C70       1.0  0.32466  0.69752  0.4665099999999999  1.0000
  C   C71       1.0  0.32677999999999985  0.75348  0.50833  1.0000
  C   C72       1.0  0.25594  0.70577  0.42353  1.0000
  N   N1        1.0  0.8736299999999996  0.6649600000000002  0.83572  1.0000
  N   N2        1.0  0.8349299999999996  0.60151  0.83572  1.0000
  N   N3        1.0  0.9261099999999999  0.56663  0.92259  1.0000
  N   N4        1.0  0.6833099999999998  0.61338  0.67641  1.0000
  N   N5        1.0  0.12455999999999998  0.16521  0.3357999999999999  1.0000
  N   N6        1.0  0.16294999999999998  0.16542000000000007  0.39945  1.0000
  N   N7        1.0  0.07199000000000001  0.07852  0.43408  1.0000
  N   N8        1.0  0.3152199999999998  0.32428  0.38686  1.0000
  N   N9        1.0  0.12646999999999997  0.33498  0.16485  1.0000
  N   N10       1.0  0.16487000000000007  0.3984  0.16509  1.0000
  N   N11       1.0  0.07404999999999995  0.4335700000000001  0.07801  1.0000
  N   N12       1.0  0.3147099999999998  0.3869099999999999  0.32437  1.0000
  N   N13       1.0  0.8733799999999999  0.8355800000000001  0.66506  1.0000
  N   N14       1.0  0.8346299999999996  0.83541  0.60166  1.0000
  N   N15       1.0  0.9259899999999995  0.9219700000000001  0.56644  1.0000
  N   N16       1.0  0.6833800000000001  0.67599  0.61374  1.0000
  N   N17       1.0  0.61352  0.58971  0.5899  1.0000
  N   N18       1.0  0.3850599999999999  0.41096999999999995  0.41  1.0000
  O   O1        1.0  0.6794699999999998  0.5357600000000001  0.84075  1.0000
  O   O2        1.0  0.6149399999999999  0.65157  0.8628199999999998  1.0000
  O   O3        1.0  0.4576799999999998  0.50347  0.62639  1.0000
  O   O4        1.0  0.37756  0.44549000000000005  0.5696899999999999  1.0000
  O   O5        1.0  0.10947000000000004  0.52357  0.9257599999999999  1.0000
  O   O6        1.0  0.06505999999999999  0.4191599999999999  0.9074  1.0000
  O   O7        1.0  0.3196999999999998  0.15962000000000004  0.46562999999999993  1.0000
  O   O8        1.0  0.3805799999999999  0.13727  0.3490799999999999  1.0000
  O   O9        1.0  0.5406199999999998  0.37328  0.49626  1.0000
  O   O10       1.0  0.61937  0.42986  0.55536  1.0000
  O   O11       1.0  0.8878599999999998  0.07423000000000002  0.4749399999999999  1.0000
  O   O12       1.0  0.93484  0.09249  0.5781  1.0000
  O   O13       1.0  0.32055  0.46281  0.1596  1.0000
  O   O14       1.0  0.38474999999999987  0.34647  0.1378  1.0000
  O   O15       1.0  0.5405299999999997  0.49634000000000006  0.37118  1.0000
  O   O16       1.0  0.61899  0.55487  0.4290299999999999  1.0000
  O   O17       1.0  0.89117  0.47692000000000007  0.07449  1.0000
  O   O18       1.0  0.9352999999999999  0.5811  0.09376  1.0000
  O   O19       1.0  0.67914  0.8406  0.5357699999999999  1.0000
  O   O20       1.0  0.6151799999999996  0.8627900000000001  0.65161  1.0000
  O   O21       1.0  0.4591499999999998  0.62912  0.50365  1.0000
  O   O22       1.0  0.38081999999999994  0.57164  0.44476  1.0000
  O   O23       1.0  0.1087  0.92597  0.52399  1.0000
  O   O24       1.0  0.06481000000000002  0.9077500000000001  0.41919  1.0000
  O   O25       1.0  0.8097399999999999  0.69199  0.69225  1.0000
  O   O26       1.0  0.1905699999999999  0.30838000000000004  0.30766  1.0000
