data_image0
_chemical_formula_structural       Cd3H60C88O24
_chemical_formula_sum              "Cd3 H60 C88 O24"
_cell_length_a       15.70649
_cell_length_b       16.5617
_cell_length_c       18.522999999999996
_cell_angle_alpha    110.14813
_cell_angle_beta     103.54624
_cell_angle_gamma    108.84840000000001

_symmetry_space_group_name_H-M    'P 1'
_symmetry_Int_Tables_number       1

loop_
  _symmetry_equiv_pos_as_xyz
  'x,y,z'

loop_
  _atom_site_type_symbol
  _atom_site_label
  _atom_site_symmetry_multiplicity
  _atom_site_fract_x
  _atom_site_fract_y
  _atom_site_fract_z
  _atom_site_occupancy
  Cd  Cd1       1.0  0.4821400000000002  0.82676  0.5905900000000002  1.0000
  Cd  Cd2       1.0  0.51786  0.17324  0.40941  1.0000
  Cd  Cd3       1.0  0.5  0.0  0.5  1.0000
  H   H1        1.0  0.65766  0.17003  0.66207  1.0000
  H   H2        1.0  0.7118200000000002  0.34326  0.74678  1.0000
  H   H3        1.0  0.6060700000000001  0.28348000000000007  0.9262000000000002  1.0000
  H   H4        1.0  0.5499200000000002  0.10834000000000012  0.8387300000000002  1.0000
  H   H5        1.0  0.4618700000000001  0.56916  0.65931  1.0000
  H   H6        1.0  0.51117  0.49097999999999997  0.74389  1.0000
  H   H7        1.0  0.7797300000000001  0.7493100000000001  0.9026800000000003  1.0000
  H   H8        1.0  0.73145  0.82426  0.81377  1.0000
  H   H9        1.0  0.14054000000000008  0.64861  0.4318500000000001  1.0000
  H   H10       1.0  0.9712100000000002  0.5938  0.33231  1.0000
  H   H11       1.0  0.07721000000000007  0.8339100000000002  0.2815100000000001  1.0000
  H   H12       1.0  0.24385  0.89162  0.38472  1.0000
  H   H13       1.0  0.5496300000000002  0.81769  0.2896  1.0000
  H   H14       1.0  0.6317  0.7505400000000001  0.202  1.0000
  H   H15       1.0  0.7325900000000002  0.64786  0.3737300000000001  1.0000
  H   H16       1.0  0.6432  0.7093  0.45713  1.0000
  H   H17       1.0  0.62484  0.43566  0.7764  1.0000
  H   H18       1.0  0.8704900000000002  0.71816  0.35132  1.0000
  H   H19       1.0  0.8397100000000002  0.37003  0.05315  1.0000
  H   H20       1.0  0.8135799999999999  0.3572  0.9493  1.0000
  H   H21       1.0  0.9047400000000004  0.46944  0.03746  1.0000
  H   H22       1.0  0.6857400000000002  0.81479  0.04492  1.0000
  H   H23       1.0  0.6103200000000002  0.7147200000000002  0.9442200000000002  1.0000
  H   H24       1.0  0.60844  0.70224  0.03691  1.0000
  H   H25       1.0  0.48279  0.5008  0.0656  1.0000
  H   H26       1.0  0.5703000000000003  0.45259  0.06886  1.0000
  H   H27       1.0  0.56589  0.52582  0.16403  1.0000
  H   H28       1.0  0.01637000000000004  0.6737700000000001  0.05008000000000001  1.0000
  H   H29       1.0  0.9106300000000003  0.69581  0.03963  1.0000
  H   H30       1.0  0.02158000000000003  0.77599  0.13089  1.0000
  H   H31       1.0  0.3423500000000001  0.82997  0.33793  1.0000
  H   H32       1.0  0.28818000000000016  0.6567400000000001  0.25322  1.0000
  H   H33       1.0  0.39393  0.71652  0.0738  1.0000
  H   H34       1.0  0.45008  0.89167  0.16127  1.0000
  H   H35       1.0  0.5381300000000002  0.43084  0.34069  1.0000
  H   H36       1.0  0.4888300000000001  0.50902  0.25611  1.0000
  H   H37       1.0  0.22027000000000005  0.25069  0.09732  1.0000
  H   H38       1.0  0.26855  0.17574  0.18623  1.0000
  H   H39       1.0  0.8594600000000002  0.35139  0.56815  1.0000
  H   H40       1.0  0.028790000000000007  0.4062  0.66769  1.0000
  H   H41       1.0  0.9227900000000001  0.16608999999999993  0.71849  1.0000
  H   H42       1.0  0.7561500000000004  0.10839  0.61528  1.0000
  H   H43       1.0  0.4503700000000001  0.18231  0.7104  1.0000
  H   H44       1.0  0.3683000000000002  0.24946000000000004  0.798  1.0000
  H   H45       1.0  0.2674100000000001  0.35214  0.62627  1.0000
  H   H46       1.0  0.3568000000000001  0.2907  0.54287  1.0000
  H   H47       1.0  0.37516  0.56434  0.2236  1.0000
  H   H48       1.0  0.12951  0.28184  0.64868  1.0000
  H   H49       1.0  0.16029000000000007  0.62997  0.94685  1.0000
  H   H50       1.0  0.18642  0.64281  0.050700000000000016  1.0000
  H   H51       1.0  0.09526000000000001  0.53057  0.96254  1.0000
  H   H52       1.0  0.31426  0.18521000000000004  0.95508  1.0000
  H   H53       1.0  0.38968  0.28528  0.05578  1.0000
  H   H54       1.0  0.39156  0.29776  0.96309  1.0000
  H   H55       1.0  0.5172100000000002  0.4992  0.9344  1.0000
  H   H56       1.0  0.42970000000000014  0.54741  0.93114  1.0000
  H   H57       1.0  0.43411000000000005  0.47418  0.83597  1.0000
  H   H58       1.0  0.9836300000000002  0.3262300000000001  0.94992  1.0000
  H   H59       1.0  0.08937000000000005  0.30419  0.96037  1.0000
  H   H60       1.0  0.9784200000000004  0.2240100000000001  0.8691100000000003  1.0000
  C   C1        1.0  0.5620400000000002  0.023209999999999998  0.69074  1.0000
  C   C2        1.0  0.5999300000000002  0.12817  0.74485  1.0000
  C   C3        1.0  0.6464300000000002  0.19498999999999994  0.71982  1.0000
  C   C4        1.0  0.6762200000000003  0.29228  0.76728  1.0000
  C   C5        1.0  0.6614  0.32537  0.84189  1.0000
  C   C6        1.0  0.61712  0.25837  0.86826  1.0000
  C   C7        1.0  0.58629  0.16088999999999998  0.82  1.0000
  C   C8        1.0  0.5612700000000003  0.748  0.68192  1.0000
  C   C9        1.0  0.59343  0.70139  0.73183  1.0000
  C   C10       1.0  0.5318900000000002  0.60696  0.71189  1.0000
  C   C11       1.0  0.55964  0.56412  0.7598200000000003  1.0000
  C   C12       1.0  0.64849  0.61568  0.83036  1.0000
  C   C13       1.0  0.71065  0.70983  0.84906  1.0000
  C   C14       1.0  0.6838600000000002  0.75179  0.7999  1.0000
  C   C15       1.0  0.30257  0.80994  0.47745  1.0000
  C   C16       1.0  0.20218999999999995  0.7732099999999998  0.4143  1.0000
  C   C17       1.0  0.12546000000000004  0.68865  0.39881  1.0000
  C   C18       1.0  0.031469999999999984  0.65822  0.34331  1.0000
  C   C19       1.0  0.013299999999999987  0.70999  0.30027  1.0000
  C   C20       1.0  0.09107000000000001  0.79277  0.31374  1.0000
  C   C21       1.0  0.18426  0.82521  0.37141  1.0000
  C   C22       1.0  0.5468000000000002  0.81242  0.4340600000000001  1.0000
  C   C23       1.0  0.59175  0.7674799999999999  0.37858  1.0000
  C   C24       1.0  0.58764  0.77818  0.30604  1.0000
  C   C25       1.0  0.6338800000000002  0.741  0.25747  1.0000
  C   C26       1.0  0.68894  0.6954800000000002  0.2821300000000001  1.0000
  C   C27       1.0  0.6915300000000004  0.6839  0.35458  1.0000
  C   C28       1.0  0.64222  0.71809  0.40142  1.0000
  C   C29       1.0  0.66011  0.47538  0.84418  1.0000
  C   C30       1.0  0.67593  0.57109  0.88275  1.0000
  C   C31       1.0  0.71702  0.6199  0.97133  1.0000
  C   C32       1.0  0.7460700000000002  0.57503  0.01784  1.0000
  C   C33       1.0  0.7336300000000002  0.48049999999999987  0.97647  1.0000
  C   C34       1.0  0.6868300000000002  0.42795  0.88837  1.0000
  C   C35       1.0  0.7846300000000003  0.62368  0.11054  1.0000
  C   C36       1.0  0.7195600000000002  0.63164  0.14989000000000005  1.0000
  C   C37       1.0  0.7498800000000002  0.66968  0.23789  1.0000
  C   C38       1.0  0.84513  0.68896  0.28374  1.0000
  C   C39       1.0  0.9120000000000001  0.6815000000000001  0.24676  1.0000
  C   C40       1.0  0.88211  0.65192  0.16  1.0000
  C   C41       1.0  0.83456  0.40709  0.01458  1.0000
  C   C42       1.0  0.6537800000000002  0.73663  0.00923  1.0000
  C   C43       1.0  0.55676  0.51405  0.10014  1.0000
  C   C44       1.0  0.9749000000000002  0.70099  0.0837  1.0000
  C   C45       1.0  0.43796000000000024  0.97679  0.30926  1.0000
  C   C46       1.0  0.4000700000000001  0.87184  0.25515  1.0000
  C   C47       1.0  0.3535700000000001  0.80501  0.28018  1.0000
  C   C48       1.0  0.32378  0.70772  0.23272  1.0000
  C   C49       1.0  0.3386000000000001  0.67463  0.15811  1.0000
  C   C50       1.0  0.38288  0.74163  0.13174  1.0000
  C   C51       1.0  0.41371  0.83911  0.18  1.0000
  C   C52       1.0  0.4387300000000001  0.252  0.31808  1.0000
  C   C53       1.0  0.4065700000000001  0.29861  0.26817  1.0000
  C   C54       1.0  0.46811000000000014  0.39304  0.28811  1.0000
  C   C55       1.0  0.44036  0.43588  0.24018  1.0000
  C   C56       1.0  0.35151  0.38433  0.16964  1.0000
  C   C57       1.0  0.2893500000000001  0.29018  0.15094  1.0000
  C   C58       1.0  0.3161400000000001  0.24820999999999996  0.2001  1.0000
  C   C59       1.0  0.69743  0.19007000000000007  0.5225500000000002  1.0000
  C   C60       1.0  0.7978100000000004  0.22679  0.5857  1.0000
  C   C61       1.0  0.87454  0.31135  0.60119  1.0000
  C   C62       1.0  0.9685300000000002  0.34178  0.65669  1.0000
  C   C63       1.0  0.9867  0.29001  0.69973  1.0000
  C   C64       1.0  0.9089300000000002  0.20723000000000005  0.68626  1.0000
  C   C65       1.0  0.81574  0.17479  0.62859  1.0000
  C   C66       1.0  0.4532  0.18758  0.56594  1.0000
  C   C67       1.0  0.40825  0.23251999999999995  0.62142  1.0000
  C   C68       1.0  0.4123600000000001  0.22182999999999992  0.69396  1.0000
  C   C69       1.0  0.36612000000000017  0.25900000000000006  0.74253  1.0000
  C   C70       1.0  0.31106  0.30452000000000007  0.71787  1.0000
  C   C71       1.0  0.30847000000000013  0.3161  0.64542  1.0000
  C   C72       1.0  0.35778000000000004  0.28191  0.59858  1.0000
  C   C73       1.0  0.33989000000000014  0.52463  0.15582  1.0000
  C   C74       1.0  0.32407000000000014  0.42892  0.11725  1.0000
  C   C75       1.0  0.28298  0.3801  0.02867  1.0000
  C   C76       1.0  0.25393  0.4249699999999999  0.98216  1.0000
  C   C77       1.0  0.26637  0.5195  0.023530000000000006  1.0000
  C   C78       1.0  0.3131700000000001  0.57205  0.11163  1.0000
  C   C79       1.0  0.21537000000000006  0.37633  0.88946  1.0000
  C   C80       1.0  0.28044  0.36836  0.85011  1.0000
  C   C81       1.0  0.25012  0.33033  0.76211  1.0000
  C   C82       1.0  0.15488000000000005  0.31105  0.71626  1.0000
  C   C83       1.0  0.088  0.3185  0.75324  1.0000
  C   C84       1.0  0.11789000000000001  0.34808  0.84  1.0000
  C   C85       1.0  0.16544  0.59292  0.98542  1.0000
  C   C86       1.0  0.34622000000000014  0.2633699999999999  0.99077  1.0000
  C   C87       1.0  0.44324000000000013  0.48595  0.89986  1.0000
  C   C88       1.0  0.025099999999999997  0.29901  0.9163  1.0000
  O   O1        1.0  0.58025  0.9959800000000002  0.6240700000000002  1.0000
  O   O2        1.0  0.5133  0.96356  0.71098  1.0000
  O   O3        1.0  0.46927  0.71628  0.64283  1.0000
  O   O4        1.0  0.624  0.81722  0.67965  1.0000
  O   O5        1.0  0.36340000000000017  0.8953500000000001  0.5005600000000002  1.0000
  O   O6        1.0  0.32076  0.75429  0.5055200000000002  1.0000
  O   O7        1.0  0.5218  0.77354  0.47882  1.0000
  O   O8        1.0  0.53958  0.88536  0.43048  1.0000
  O   O9        1.0  0.76136  0.44019  0.02576  1.0000
  O   O10       1.0  0.73627  0.7139  0.016340000000000007  1.0000
  O   O11       1.0  0.6232100000000003  0.59851  0.09988  1.0000
  O   O12       1.0  0.94844  0.6423  0.12477  1.0000
  O   O13       1.0  0.4197500000000002  0.004030000000000008  0.37593  1.0000
  O   O14       1.0  0.4867000000000002  0.03643999999999998  0.28902  1.0000
  O   O15       1.0  0.53073  0.28372  0.35717  1.0000
  O   O16       1.0  0.3760000000000001  0.18278  0.32035  1.0000
  O   O17       1.0  0.6366000000000003  0.10465000000000003  0.49943999999999994  1.0000
  O   O18       1.0  0.67924  0.24572  0.49448  1.0000
  O   O19       1.0  0.4782000000000002  0.22646000000000005  0.52118  1.0000
  O   O20       1.0  0.4604200000000001  0.11463999999999996  0.56952  1.0000
  O   O21       1.0  0.23864000000000005  0.55981  0.97424  1.0000
  O   O22       1.0  0.26373000000000024  0.28610000000000013  0.9836600000000002  1.0000
  O   O23       1.0  0.3767900000000001  0.40149  0.90012  1.0000
  O   O24       1.0  0.05156000000000015  0.3577000000000002  0.8752300000000002  1.0000
