data_image0
_chemical_formula_structural       Cu16H24C72O48
_chemical_formula_sum              "Cu16 H24 C72 O48"
_cell_length_a       6.94189
_cell_length_b       19.36707
_cell_length_c       19.36707
_cell_angle_alpha    90.0
_cell_angle_beta     90.0
_cell_angle_gamma    90.0

_symmetry_space_group_name_H-M    'P 1'
_symmetry_Int_Tables_number       1

loop_
  _symmetry_equiv_pos_as_xyz
  'x,y,z'

loop_
  _atom_site_type_symbol
  _atom_site_label
  _atom_site_symmetry_multiplicity
  _atom_site_fract_x
  _atom_site_fract_y
  _atom_site_fract_z
  _atom_site_occupancy
  Cu  Cu1       1.0  0.5  0.67831  0.17831  1.0000
  Cu  Cu2       1.0  0.5  0.82169  0.32169  1.0000
  Cu  Cu3       1.0  0.5  0.32169  0.67831  1.0000
  Cu  Cu4       1.0  0.5  0.17831  0.82169  1.0000
  Cu  Cu5       1.0  0.5  0.32169  0.82169  1.0000
  Cu  Cu6       1.0  0.5  0.17831  0.67831  1.0000
  Cu  Cu7       1.0  0.5  0.67831  0.32169  1.0000
  Cu  Cu8       1.0  0.5  0.82169  0.17831  1.0000
  Cu  Cu9       1.0  0.36096000000000006  0.52787  0.52787  1.0000
  Cu  Cu10      1.0  0.36096000000000006  0.9721400000000001  0.9721400000000001  1.0000
  Cu  Cu11      1.0  0.36096000000000006  0.9721400000000001  0.52787  1.0000
  Cu  Cu12      1.0  0.36096000000000006  0.52787  0.9721400000000001  1.0000
  Cu  Cu13      1.0  0.6390400000000003  0.47214  0.027860000000000003  1.0000
  Cu  Cu14      1.0  0.6390400000000003  0.027860000000000003  0.47214  1.0000
  Cu  Cu15      1.0  0.6390400000000003  0.027860000000000003  0.027860000000000003  1.0000
  Cu  Cu16      1.0  0.6390400000000003  0.47214  0.47214  1.0000
  H   H1        1.0  0.00053  0.56826  0.36066  1.0000
  H   H2        1.0  0.00053  0.93175  0.13934  1.0000
  H   H3        1.0  0.00053  0.13934  0.56826  1.0000
  H   H4        1.0  0.00053  0.36066  0.93175  1.0000
  H   H5        1.0  0.9994700000000001  0.43174000000000007  0.86066  1.0000
  H   H6        1.0  0.9994700000000001  0.06826  0.63934  1.0000
  H   H7        1.0  0.9994700000000001  0.86066  0.06826  1.0000
  H   H8        1.0  0.9994700000000001  0.63934  0.43174000000000007  1.0000
  H   H9        1.0  0.9994700000000001  0.43174000000000007  0.63934  1.0000
  H   H10       1.0  0.9994700000000001  0.06826  0.86066  1.0000
  H   H11       1.0  0.9994700000000001  0.86066  0.43174000000000007  1.0000
  H   H12       1.0  0.9994700000000001  0.63934  0.06826  1.0000
  H   H13       1.0  0.00053  0.56826  0.13934  1.0000
  H   H14       1.0  0.00053  0.93175  0.36066  1.0000
  H   H15       1.0  0.00053  0.13934  0.93175  1.0000
  H   H16       1.0  0.00053  0.36066  0.56826  1.0000
  H   H17       1.0  0.4870600000000001  0.48491  0.25  1.0000
  H   H18       1.0  0.4870600000000001  0.01509  0.25  1.0000
  H   H19       1.0  0.4870600000000001  0.25  0.48491  1.0000
  H   H20       1.0  0.4870600000000001  0.25  0.01509  1.0000
  H   H21       1.0  0.51295  0.51509  0.75  1.0000
  H   H22       1.0  0.51295  0.98491  0.75  1.0000
  H   H23       1.0  0.51295  0.75  0.98491  1.0000
  H   H24       1.0  0.51295  0.75  0.51509  1.0000
  C   C1        1.0  0.07209000000000002  0.55641  0.31233  1.0000
  C   C2        1.0  0.25339  0.52447  0.3126  1.0000
  C   C3        1.0  0.3489200000000001  0.51258  0.38071  1.0000
  C   C4        1.0  0.07209000000000002  0.9435999999999999  0.18767  1.0000
  C   C5        1.0  0.25339  0.97553  0.1874  1.0000
  C   C6        1.0  0.3489200000000001  0.9874299999999999  0.11929  1.0000
  C   C7        1.0  0.07209000000000002  0.18767  0.55641  1.0000
  C   C8        1.0  0.25339  0.1874  0.52448  1.0000
  C   C9        1.0  0.3489200000000001  0.11929  0.51258  1.0000
  C   C10       1.0  0.07209000000000002  0.31233  0.9435999999999999  1.0000
  C   C11       1.0  0.25339  0.3126  0.97553  1.0000
  C   C12       1.0  0.3489200000000001  0.38071  0.9874299999999999  1.0000
  C   C13       1.0  0.92792  0.4436  0.81234  1.0000
  C   C14       1.0  0.74661  0.47553  0.8126  1.0000
  C   C15       1.0  0.6510800000000001  0.48743  0.88071  1.0000
  C   C16       1.0  0.92792  0.0564  0.68767  1.0000
  C   C17       1.0  0.74661  0.02447  0.6874  1.0000
  C   C18       1.0  0.6510800000000001  0.01257  0.61929  1.0000
  C   C19       1.0  0.92792  0.81234  0.0564  1.0000
  C   C20       1.0  0.74661  0.8126  0.02447  1.0000
  C   C21       1.0  0.6510800000000001  0.88071  0.01257  1.0000
  C   C22       1.0  0.92792  0.68767  0.4436  1.0000
  C   C23       1.0  0.74661  0.6874  0.47553  1.0000
  C   C24       1.0  0.6510800000000001  0.61929  0.48743  1.0000
  C   C25       1.0  0.92792  0.4436  0.68767  1.0000
  C   C26       1.0  0.74661  0.47553  0.6874  1.0000
  C   C27       1.0  0.6510800000000001  0.48743  0.61929  1.0000
  C   C28       1.0  0.92792  0.0564  0.81234  1.0000
  C   C29       1.0  0.74661  0.02447  0.8126  1.0000
  C   C30       1.0  0.6510800000000001  0.01257  0.88071  1.0000
  C   C31       1.0  0.92792  0.81234  0.4436  1.0000
  C   C32       1.0  0.74661  0.8126  0.47553  1.0000
  C   C33       1.0  0.6510800000000001  0.88071  0.48743  1.0000
  C   C34       1.0  0.92792  0.68767  0.0564  1.0000
  C   C35       1.0  0.74661  0.6874  0.02447  1.0000
  C   C36       1.0  0.6510800000000001  0.61929  0.01257  1.0000
  C   C37       1.0  0.07209000000000002  0.55641  0.18767  1.0000
  C   C38       1.0  0.25339  0.52447  0.1874  1.0000
  C   C39       1.0  0.3489200000000001  0.51258  0.11929  1.0000
  C   C40       1.0  0.07209000000000002  0.9435999999999999  0.31233  1.0000
  C   C41       1.0  0.25339  0.97553  0.3126  1.0000
  C   C42       1.0  0.3489200000000001  0.9874299999999999  0.38071  1.0000
  C   C43       1.0  0.07209000000000002  0.18767  0.9435999999999999  1.0000
  C   C44       1.0  0.25339  0.1874  0.97553  1.0000
  C   C45       1.0  0.3489200000000001  0.11929  0.9874299999999999  1.0000
  C   C46       1.0  0.07209000000000002  0.31233  0.55641  1.0000
  C   C47       1.0  0.25339  0.3126  0.52447  1.0000
  C   C48       1.0  0.3489200000000001  0.38071  0.51258  1.0000
  C   C49       1.0  0.8037200000000002  0.6157  0.25  1.0000
  C   C50       1.0  0.98399  0.57405  0.25  1.0000
  C   C51       1.0  0.3447200000000001  0.50837  0.25  1.0000
  C   C52       1.0  0.8037200000000002  0.8843  0.25  1.0000
  C   C53       1.0  0.98399  0.9259499999999999  0.25  1.0000
  C   C54       1.0  0.3447200000000001  0.9916300000000001  0.25  1.0000
  C   C55       1.0  0.8037200000000002  0.25  0.6157  1.0000
  C   C56       1.0  0.98399  0.25  0.57405  1.0000
  C   C57       1.0  0.3447200000000001  0.25  0.50837  1.0000
  C   C58       1.0  0.8037200000000002  0.25  0.8843  1.0000
  C   C59       1.0  0.98399  0.25  0.9259499999999999  1.0000
  C   C60       1.0  0.3447200000000001  0.25  0.9916300000000001  1.0000
  C   C61       1.0  0.19628000000000007  0.3843  0.75  1.0000
  C   C62       1.0  0.01601  0.42595  0.75  1.0000
  C   C63       1.0  0.65529  0.49163  0.75  1.0000
  C   C64       1.0  0.19628000000000007  0.1157  0.75  1.0000
  C   C65       1.0  0.01601  0.07405  0.75  1.0000
  C   C66       1.0  0.65529  0.00837  0.75  1.0000
  C   C67       1.0  0.19628000000000007  0.75  0.1157  1.0000
  C   C68       1.0  0.01601  0.75  0.07405  1.0000
  C   C69       1.0  0.65529  0.75  0.00837  1.0000
  C   C70       1.0  0.19628000000000007  0.75  0.3843  1.0000
  C   C71       1.0  0.01601  0.75  0.42595  1.0000
  C   C72       1.0  0.65529  0.75  0.49163  1.0000
  O   O1        1.0  0.7344500000000003  0.63277  0.19133  1.0000
  O   O2        1.0  0.25703000000000004  0.53466  0.43376  1.0000
  O   O3        1.0  0.5135100000000001  0.48283000000000004  0.38126  1.0000
  O   O4        1.0  0.7344500000000003  0.86723  0.30867  1.0000
  O   O5        1.0  0.25703000000000004  0.9653400000000001  0.06624  1.0000
  O   O6        1.0  0.5135100000000001  0.01717  0.11875000000000001  1.0000
  O   O7        1.0  0.7344500000000003  0.30867  0.63277  1.0000
  O   O8        1.0  0.25703000000000004  0.06624  0.53466  1.0000
  O   O9        1.0  0.5135100000000001  0.11875000000000001  0.48283000000000004  1.0000
  O   O10       1.0  0.7344500000000003  0.19133  0.86723  1.0000
  O   O11       1.0  0.25703000000000004  0.43376  0.9653400000000001  1.0000
  O   O12       1.0  0.5135100000000001  0.38126  0.01717  1.0000
  O   O13       1.0  0.26555000000000006  0.36723  0.69133  1.0000
  O   O14       1.0  0.7429700000000002  0.46534  0.93376  1.0000
  O   O15       1.0  0.48649  0.51717  0.8812600000000002  1.0000
  O   O16       1.0  0.26555000000000006  0.13277  0.80867  1.0000
  O   O17       1.0  0.7429700000000002  0.03466  0.56624  1.0000
  O   O18       1.0  0.48649  0.98284  0.61875  1.0000
  O   O19       1.0  0.26555000000000006  0.69133  0.13277  1.0000
  O   O20       1.0  0.7429700000000002  0.93376  0.03466  1.0000
  O   O21       1.0  0.48649  0.8812600000000002  0.98284  1.0000
  O   O22       1.0  0.26555000000000006  0.80868  0.36723  1.0000
  O   O23       1.0  0.7429700000000002  0.56624  0.46534  1.0000
  O   O24       1.0  0.48649  0.61875  0.51717  1.0000
  O   O25       1.0  0.26555000000000006  0.36723  0.80868  1.0000
  O   O26       1.0  0.7429700000000002  0.46534  0.56624  1.0000
  O   O27       1.0  0.48649  0.51717  0.61875  1.0000
  O   O28       1.0  0.26555000000000006  0.13277  0.69133  1.0000
  O   O29       1.0  0.7429700000000002  0.03466  0.93376  1.0000
  O   O30       1.0  0.48649  0.98284  0.8812600000000002  1.0000
  O   O31       1.0  0.26555000000000006  0.69133  0.36723  1.0000
  O   O32       1.0  0.7429700000000002  0.93376  0.46534  1.0000
  O   O33       1.0  0.48649  0.8812600000000002  0.51717  1.0000
  O   O34       1.0  0.26555000000000006  0.80867  0.13277  1.0000
  O   O35       1.0  0.7429700000000002  0.56624  0.03466  1.0000
  O   O36       1.0  0.48649  0.61875  0.98284  1.0000
  O   O37       1.0  0.7344500000000003  0.63277  0.30867  1.0000
  O   O38       1.0  0.25703000000000004  0.53466  0.06624  1.0000
  O   O39       1.0  0.5135100000000001  0.48283000000000004  0.11875000000000001  1.0000
  O   O40       1.0  0.7344500000000003  0.86723  0.19133  1.0000
  O   O41       1.0  0.25703000000000004  0.9653400000000001  0.43376  1.0000
  O   O42       1.0  0.5135100000000001  0.01717  0.38126  1.0000
  O   O43       1.0  0.7344500000000003  0.30867  0.86723  1.0000
  O   O44       1.0  0.25703000000000004  0.06624  0.9653400000000001  1.0000
  O   O45       1.0  0.5135100000000001  0.11875000000000001  0.01717  1.0000
  O   O46       1.0  0.7344500000000003  0.19133  0.63277  1.0000
  O   O47       1.0  0.25703000000000004  0.43376  0.53466  1.0000
  O   O48       1.0  0.5135100000000001  0.38126  0.48283000000000004  1.0000
