data_image0
_chemical_formula_structural       Cd8H56C96N16O32
_chemical_formula_sum              "Cd8 H56 C96 N16 O32"
_cell_length_a       7.87193
_cell_length_b       14.77639
_cell_length_c       26.32547
_cell_angle_alpha    90.0636
_cell_angle_beta     89.98495
_cell_angle_gamma    90.79452

_symmetry_space_group_name_H-M    'P 1'
_symmetry_Int_Tables_number       1

loop_
  _symmetry_equiv_pos_as_xyz
  'x,y,z'

loop_
  _atom_site_type_symbol
  _atom_site_label
  _atom_site_symmetry_multiplicity
  _atom_site_fract_x
  _atom_site_fract_y
  _atom_site_fract_z
  _atom_site_occupancy
  Cd  Cd1       1.0  0.6151800000000001  0.7359499999999998  0.8367  1.0000
  Cd  Cd2       1.0  0.3848300000000001  0.2640499999999999  0.16331  1.0000
  Cd  Cd3       1.0  0.76548  0.3307  0.90262  1.0000
  Cd  Cd4       1.0  0.23454000000000005  0.6693  0.09738  1.0000
  Cd  Cd5       1.0  0.3857800000000001  0.76405  0.33611  1.0000
  Cd  Cd6       1.0  0.61423  0.23594  0.66389  1.0000
  Cd  Cd7       1.0  0.23436000000000007  0.16885  0.40134000000000003  1.0000
  Cd  Cd8       1.0  0.7656600000000002  0.83115  0.5986600000000001  1.0000
  H   H1        1.0  0.23225000000000007  0.74372  0.85151  1.0000
  H   H2        1.0  0.55449  0.5376599999999999  0.8935700000000001  1.0000
  H   H3        1.0  0.30669  0.4419799999999999  0.9240200000000001  1.0000
  H   H4        1.0  0.6327000000000003  0.75059  0.95536  1.0000
  H   H5        1.0  0.57815  0.8523499999999998  0.02776  1.0000
  H   H6        1.0  0.4350700000000001  0.056809999999999986  0.9175400000000001  1.0000
  H   H7        1.0  0.48308  0.94181  0.8504100000000002  1.0000
  H   H8        1.0  0.7677700000000002  0.25626999999999994  0.1485  1.0000
  H   H9        1.0  0.44552000000000014  0.46234  0.10644000000000003  1.0000
  H   H10       1.0  0.6933200000000003  0.55802  0.07598  1.0000
  H   H11       1.0  0.36731  0.24940999999999994  0.044640000000000006  1.0000
  H   H12       1.0  0.4218600000000001  0.14765  0.97225  1.0000
  H   H13       1.0  0.5649400000000002  0.9431799999999999  0.08247000000000002  1.0000
  H   H14       1.0  0.5169300000000002  0.05817999999999999  0.14960000000000004  1.0000
  H   H15       1.0  0.8283700000000003  0.28018  0.7808100000000002  1.0000
  H   H16       1.0  0.0752  0.27272  0.7218600000000001  1.0000
  H   H17       1.0  0.14608999999999997  0.27911999999999987  0.9064300000000002  1.0000
  H   H18       1.0  0.74783  0.12924999999999995  0.88964  1.0000
  H   H19       1.0  0.8605900000000002  0.9847199999999998  0.9204200000000001  1.0000
  H   H20       1.0  0.05123  0.13147  0.05199000000000001  1.0000
  H   H21       1.0  0.9445300000000002  0.2702199999999999  0.013430000000000003  1.0000
  H   H22       1.0  0.17164  0.7198199999999998  0.2192  1.0000
  H   H23       1.0  0.92481  0.72728  0.27814  1.0000
  H   H24       1.0  0.85392  0.72088  0.09357  1.0000
  H   H25       1.0  0.25218  0.87075  0.11036  1.0000
  H   H26       1.0  0.13943  0.015279999999999997  0.07958  1.0000
  H   H27       1.0  0.94878  0.8685299999999999  0.9480100000000002  1.0000
  H   H28       1.0  0.05548000000000001  0.7297799999999998  0.9865700000000002  1.0000
  H   H29       1.0  0.7700800000000001  0.75703  0.34962  1.0000
  H   H30       1.0  0.4453100000000001  0.96096  0.3938900000000001  1.0000
  H   H31       1.0  0.6925000000000001  0.05726999999999999  0.42444000000000004  1.0000
  H   H32       1.0  0.36487  0.7489299999999998  0.45519000000000004  1.0000
  H   H33       1.0  0.4206  0.6478799999999998  0.52767  1.0000
  H   H34       1.0  0.5664600000000001  0.44325  0.41768  1.0000
  H   H35       1.0  0.51849  0.5577899999999999  0.3504100000000001  1.0000
  H   H36       1.0  0.22993  0.24296999999999994  0.65038  1.0000
  H   H37       1.0  0.55471  0.03904  0.60611  1.0000
  H   H38       1.0  0.3075100000000001  0.94273  0.5755600000000001  1.0000
  H   H39       1.0  0.6351400000000003  0.25106  0.54481  1.0000
  H   H40       1.0  0.5794100000000002  0.35212  0.47233  1.0000
  H   H41       1.0  0.4335500000000001  0.5567499999999997  0.58232  1.0000
  H   H42       1.0  0.4815200000000001  0.4422099999999999  0.6496000000000002  1.0000
  H   H43       1.0  0.16911  0.22172  0.28115  1.0000
  H   H44       1.0  0.9237500000000002  0.23211999999999994  0.22178000000000003  1.0000
  H   H45       1.0  0.84791  0.21541999999999994  0.40611  1.0000
  H   H46       1.0  0.24901000000000006  0.37064  0.3888500000000001  1.0000
  H   H47       1.0  0.13823  0.51537  0.42025  1.0000
  H   H48       1.0  0.94999  0.36883  0.55198  1.0000
  H   H49       1.0  0.05521  0.22967999999999994  0.51287  1.0000
  H   H50       1.0  0.8309000000000002  0.77828  0.71885  1.0000
  H   H51       1.0  0.07626  0.7678799999999998  0.7782200000000001  1.0000
  H   H52       1.0  0.15211000000000005  0.78457  0.59389  1.0000
  H   H53       1.0  0.751  0.62936  0.61115  1.0000
  H   H54       1.0  0.8617900000000002  0.4846299999999999  0.57975  1.0000
  H   H55       1.0  0.050030000000000005  0.6311699999999998  0.44802  1.0000
  H   H56       1.0  0.9448100000000003  0.7703199999999998  0.4871300000000001  1.0000
  C   C1        1.0  0.9760000000000002  0.4762299999999999  0.91483  1.0000
  C   C2        1.0  0.12078000000000003  0.54096  0.9036100000000001  1.0000
  C   C3        1.0  0.09770000000000002  0.6275199999999999  0.88273  1.0000
  C   C4        1.0  0.24254000000000006  0.67625  0.86761  1.0000
  C   C5        1.0  0.4242100000000001  0.56127  0.89147  1.0000
  C   C6        1.0  0.28696  0.5089299999999998  0.9081800000000001  1.0000
  C   C7        1.0  0.9270700000000002  0.6713799999999998  0.87817  1.0000
  C   C8        1.0  0.5860000000000002  0.8186299999999997  0.9491800000000002  1.0000
  C   C9        1.0  0.55837  0.8775099999999998  0.9894000000000001  1.0000
  C   C10       1.0  0.50833  0.9665099999999998  0.9793400000000002  1.0000
  C   C11       1.0  0.47671000000000013  0.9895599999999998  0.9283800000000002  1.0000
  C   C12       1.0  0.50571  0.9265099999999998  0.89027  1.0000
  C   C13       1.0  0.024010000000000004  0.5237699999999998  0.08517000000000002  1.0000
  C   C14       1.0  0.8792300000000002  0.45903999999999995  0.09640000000000001  1.0000
  C   C15       1.0  0.90231  0.37247999999999987  0.11728  1.0000
  C   C16       1.0  0.7574700000000002  0.32374999999999987  0.1324  1.0000
  C   C17       1.0  0.57581  0.43873  0.10853  1.0000
  C   C18       1.0  0.7130500000000002  0.4910699999999999  0.09183000000000002  1.0000
  C   C19       1.0  0.07294000000000003  0.32862  0.12184000000000003  1.0000
  C   C20       1.0  0.41401  0.18136999999999998  0.05082000000000001  1.0000
  C   C21       1.0  0.4416400000000001  0.12249  0.010600000000000002  1.0000
  C   C22       1.0  0.4916800000000001  0.03349  0.02066  1.0000
  C   C23       1.0  0.5233  0.01044  0.07162000000000002  1.0000
  C   C24       1.0  0.4943  0.07348999999999997  0.10973000000000002  1.0000
  C   C25       1.0  0.9584500000000002  0.27873  0.7950500000000003  1.0000
  C   C26       1.0  0.09743000000000003  0.27556999999999987  0.7625500000000002  1.0000
  C   C27       1.0  0.2630500000000001  0.27589  0.7823500000000002  1.0000
  C   C28       1.0  0.2818500000000001  0.27411999999999986  0.8354400000000001  1.0000
  C   C29       1.0  0.13514  0.2764899999999999  0.86524  1.0000
  C   C30       1.0  0.44765  0.28172  0.86307  1.0000
  C   C31       1.0  0.4080000000000001  0.27324  0.74512  1.0000
  C   C32       1.0  0.81782  0.12642  0.9252400000000002  1.0000
  C   C33       1.0  0.8808000000000002  0.045319999999999985  0.9431400000000001  1.0000
  C   C34       1.0  0.96652  0.042959999999999984  0.9898800000000001  1.0000
  C   C35       1.0  0.9855400000000002  0.12581  0.015820000000000004  1.0000
  C   C36       1.0  0.9234000000000002  0.20514999999999994  0.9947600000000001  1.0000
  C   C37       1.0  0.04155999999999999  0.7212699999999997  0.20495000000000002  1.0000
  C   C38       1.0  0.9025800000000003  0.72442  0.23746000000000006  1.0000
  C   C39       1.0  0.7369600000000002  0.7240999999999997  0.21765  1.0000
  C   C40       1.0  0.71816  0.72587  0.16456  1.0000
  C   C41       1.0  0.8648800000000002  0.72351  0.13477  1.0000
  C   C42       1.0  0.55236  0.71828  0.13694  1.0000
  C   C43       1.0  0.59201  0.7267599999999997  0.25488  1.0000
  C   C44       1.0  0.18219  0.87357  0.07476  1.0000
  C   C45       1.0  0.11921000000000002  0.9546799999999998  0.05686  1.0000
  C   C46       1.0  0.0335  0.9570399999999998  0.01012  1.0000
  C   C47       1.0  0.01447  0.87418  0.98418  1.0000
  C   C48       1.0  0.07661  0.79484  0.005240000000000001  1.0000
  C   C49       1.0  0.023880000000000005  0.023979999999999998  0.4149  1.0000
  C   C50       1.0  0.87916  0.9591999999999998  0.4034500000000001  1.0000
  C   C51       1.0  0.9028800000000002  0.87308  0.3819600000000001  1.0000
  C   C52       1.0  0.7589100000000002  0.8240799999999998  0.36636  1.0000
  C   C53       1.0  0.5759500000000001  0.93796  0.39126  1.0000
  C   C54       1.0  0.71262  0.9905499999999998  0.40826  1.0000
  C   C55       1.0  0.07406  0.8300599999999998  0.37757  1.0000
  C   C56       1.0  0.4125500000000001  0.6810199999999997  0.4490500000000001  1.0000
  C   C57       1.0  0.44067  0.62242  0.4893300000000001  1.0000
  C   C58       1.0  0.4915500000000001  0.53347  0.47936000000000006  1.0000
  C   C59       1.0  0.52382  0.5103999999999997  0.4284  1.0000
  C   C60       1.0  0.4948900000000001  0.5731999999999998  0.39024  1.0000
  C   C61       1.0  0.97614  0.9760199999999998  0.5851  1.0000
  C   C62       1.0  0.12085000000000003  0.04079  0.59655  1.0000
  C   C63       1.0  0.09714  0.12691  0.6180400000000001  1.0000
  C   C64       1.0  0.2411  0.17591  0.63364  1.0000
  C   C65       1.0  0.42407  0.062039999999999984  0.6087400000000001  1.0000
  C   C66       1.0  0.2873900000000001  0.00945  0.59174  1.0000
  C   C67       1.0  0.92595  0.16994  0.6224300000000003  1.0000
  C   C68       1.0  0.58746  0.31897  0.55095  1.0000
  C   C69       1.0  0.55934  0.3775699999999999  0.51067  1.0000
  C   C70       1.0  0.50846  0.4665299999999999  0.52064  1.0000
  C   C71       1.0  0.4761900000000001  0.48959999999999987  0.5716  1.0000
  C   C72       1.0  0.50512  0.42679  0.6097600000000002  1.0000
  C   C73       1.0  0.038690000000000016  0.22258  0.29517  1.0000
  C   C74       1.0  0.90074  0.22711999999999993  0.26236  1.0000
  C   C75       1.0  0.73479  0.22486999999999993  0.2818  1.0000
  C   C76       1.0  0.71421  0.22316  0.3348  1.0000
  C   C77       1.0  0.8598300000000002  0.22025999999999998  0.36502  1.0000
  C   C78       1.0  0.5459900000000002  0.21187  0.3604700000000001  1.0000
  C   C79       1.0  0.5900500000000002  0.22726  0.24459  1.0000
  C   C80       1.0  0.18022000000000005  0.3734899999999999  0.42469  1.0000
  C   C81       1.0  0.11812000000000003  0.4546999999999999  0.44285  1.0000
  C   C82       1.0  0.03327000000000001  0.4570499999999999  0.48975  1.0000
  C   C83       1.0  0.014610000000000005  0.37421  0.51563  1.0000
  C   C84       1.0  0.07594000000000002  0.29481  0.4942800000000001  1.0000
  C   C85       1.0  0.9613200000000002  0.7774199999999998  0.70483  1.0000
  C   C86       1.0  0.09927000000000002  0.7728799999999998  0.73765  1.0000
  C   C87       1.0  0.26522  0.7751299999999998  0.7182  1.0000
  C   C88       1.0  0.2858100000000001  0.77684  0.6652  1.0000
  C   C89       1.0  0.14018  0.7797399999999998  0.63498  1.0000
  C   C90       1.0  0.4540300000000001  0.78813  0.6395300000000002  1.0000
  C   C91       1.0  0.4099600000000001  0.7727399999999998  0.7554100000000002  1.0000
  C   C92       1.0  0.8197900000000002  0.62651  0.57532  1.0000
  C   C93       1.0  0.88189  0.5453  0.5571500000000001  1.0000
  C   C94       1.0  0.9667400000000003  0.5429499999999998  0.51025  1.0000
  C   C95       1.0  0.9854  0.6257899999999997  0.48437  1.0000
  C   C96       1.0  0.9240700000000002  0.7051799999999998  0.50572  1.0000
  N   N1        1.0  0.4019000000000001  0.64427  0.87143  1.0000
  N   N2        1.0  0.56437  0.8429699999999999  0.9003000000000002  1.0000
  N   N3        1.0  0.59812  0.3557199999999999  0.12857  1.0000
  N   N4        1.0  0.43564000000000014  0.15702999999999995  0.09970000000000001  1.0000
  N   N5        1.0  0.9771300000000003  0.28125  0.8459600000000003  1.0000
  N   N6        1.0  0.83888  0.20541999999999994  0.95026  1.0000
  N   N7        1.0  0.02288  0.7187499999999998  0.15404  1.0000
  N   N8        1.0  0.16113  0.7945799999999997  0.04975000000000001  1.0000
  N   N9        1.0  0.5991800000000003  0.8554799999999998  0.37053000000000014  1.0000
  N   N10       1.0  0.43513000000000013  0.6566199999999998  0.40016  1.0000
  N   N11       1.0  0.4008400000000001  0.14451999999999995  0.6294800000000003  1.0000
  N   N12       1.0  0.56488  0.34337  0.5998400000000002  1.0000
  N   N13       1.0  0.018560000000000007  0.21752999999999995  0.34598  1.0000
  N   N14       1.0  0.15926000000000007  0.29448999999999986  0.4495800000000001  1.0000
  N   N15       1.0  0.9814500000000003  0.7824699999999999  0.6540200000000003  1.0000
  N   N16       1.0  0.8407500000000002  0.7055  0.55042  1.0000
  O   O1        1.0  0.99982  0.4133499999999999  0.9468100000000003  1.0000
  O   O2        1.0  0.8434600000000002  0.48182999999999987  0.8869700000000003  1.0000
  O   O3        1.0  0.8429100000000003  0.6860999999999998  0.9175700000000001  1.0000
  O   O4        1.0  0.88411  0.6950599999999998  0.8325800000000002  1.0000
  O   O5        1.0  0.00019999999999999966  0.58664  0.053190000000000015  1.0000
  O   O6        1.0  0.15656  0.51817  0.11303000000000002  1.0000
  O   O7        1.0  0.15711  0.3139  0.08243000000000003  1.0000
  O   O8        1.0  0.11590000000000002  0.3049399999999999  0.16742  1.0000
  O   O9        1.0  0.40059  0.3270299999999999  0.7073300000000002  1.0000
  O   O10       1.0  0.5207500000000002  0.21303999999999995  0.75021  1.0000
  O   O11       1.0  0.4744200000000001  0.23171999999999995  0.90119  1.0000
  O   O12       1.0  0.54913  0.3451499999999999  0.84823  1.0000
  O   O13       1.0  0.59942  0.67297  0.29267  1.0000
  O   O14       1.0  0.47926000000000013  0.7869599999999998  0.24979  1.0000
  O   O15       1.0  0.5256000000000002  0.7682799999999999  0.09881  1.0000
  O   O16       1.0  0.4508900000000001  0.65485  0.15177000000000002  1.0000
  O   O17       1.0  0.0003499999999999996  0.08673999999999997  0.44696  1.0000
  O   O18       1.0  0.15637  0.01836  0.38686  1.0000
  O   O19       1.0  0.15911  0.81799  0.41704  1.0000
  O   O20       1.0  0.11652000000000001  0.8044699999999998  0.33221  1.0000
  O   O21       1.0  0.9996600000000001  0.9132599999999997  0.55304  1.0000
  O   O22       1.0  0.8436500000000002  0.98164  0.61315  1.0000
  O   O23       1.0  0.8409  0.18201  0.58296  1.0000
  O   O24       1.0  0.88349  0.19551999999999994  0.6678  1.0000
  O   O25       1.0  0.5991400000000002  0.17356  0.20677  1.0000
  O   O26       1.0  0.47584  0.2867099999999999  0.24989  1.0000
  O   O27       1.0  0.51777  0.25434  0.40176  1.0000
  O   O28       1.0  0.4416200000000001  0.15468  0.34099  1.0000
  O   O29       1.0  0.40087  0.8264299999999998  0.7932300000000001  1.0000
  O   O30       1.0  0.5241700000000002  0.71329  0.75012  1.0000
  O   O31       1.0  0.4822400000000001  0.7456599999999999  0.59825  1.0000
  O   O32       1.0  0.55839  0.8453199999999997  0.65901  1.0000
