data_image0
_chemical_formula_structural       Gd4H24C84N24O72
_chemical_formula_sum              "Gd4 H24 C84 N24 O72"
_cell_length_a       13.66076
_cell_length_b       19.39251
_cell_length_c       19.39986
_cell_angle_alpha    100.22209
_cell_angle_beta     93.98442999999999
_cell_angle_gamma    93.98007

_symmetry_space_group_name_H-M    'P 1'
_symmetry_Int_Tables_number       1

loop_
  _symmetry_equiv_pos_as_xyz
  'x,y,z'

loop_
  _atom_site_type_symbol
  _atom_site_label
  _atom_site_symmetry_multiplicity
  _atom_site_fract_x
  _atom_site_fract_y
  _atom_site_fract_z
  _atom_site_occupancy
  Gd  Gd1       1.0  0.37212  0.98805  0.4534  1.0000
  Gd  Gd2       1.0  0.12791  0.54662  0.011950000000000002  1.0000
  Gd  Gd3       1.0  0.62789  0.011949999999999999  0.5466  1.0000
  Gd  Gd4       1.0  0.87209  0.45337000000000005  0.98805  1.0000
  H   H1        1.0  0.26518  0.8283200000000001  0.59405  1.0000
  H   H2        1.0  0.5589  0.88805  0.69234  1.0000
  H   H3        1.0  0.3453  0.56284  0.81897  1.0000
  H   H4        1.0  0.28362  0.75136  0.95893  1.0000
  H   H5        1.0  0.3107299999999999  0.14637  0.56252  1.0000
  H   H6        1.0  0.5086799999999999  0.15687000000000004  0.74877  1.0000
  H   H7        1.0  0.2348299999999999  0.40595  0.17167  1.0000
  H   H8        1.0  0.94113  0.30762  0.11197  1.0000
  H   H9        1.0  0.15478  0.18108  0.43725  1.0000
  H   H10       1.0  0.21647  0.04104  0.24883  1.0000
  H   H11       1.0  0.18931  0.43753000000000003  0.85366  1.0000
  H   H12       1.0  0.99126  0.25122  0.84309  1.0000
  H   H13       1.0  0.73482  0.17167  0.40595  1.0000
  H   H14       1.0  0.4411  0.11195  0.30766  1.0000
  H   H15       1.0  0.6547  0.43716000000000005  0.18103  1.0000
  H   H16       1.0  0.71638  0.24863000000000005  0.04108  1.0000
  H   H17       1.0  0.68927  0.8536300000000001  0.4374799999999999  1.0000
  H   H18       1.0  0.49132000000000003  0.84313  0.25123  1.0000
  H   H19       1.0  0.76518  0.5940400000000001  0.8283400000000001  1.0000
  H   H20       1.0  0.05886999999999999  0.69237  0.88804  1.0000
  H   H21       1.0  0.84522  0.8189100000000001  0.56275  1.0000
  H   H22       1.0  0.7835300000000001  0.9589600000000001  0.75117  1.0000
  H   H23       1.0  0.81069  0.56247  0.14634  1.0000
  H   H24       1.0  0.008739999999999967  0.74877  0.15691  1.0000
  C   C1        1.0  0.4346  0.91063  0.58554  1.0000
  C   C2        1.0  0.41494  0.8628399999999999  0.63596  1.0000
  C   C3        1.0  0.32392  0.8248500000000002  0.6337  1.0000
  C   C4        1.0  0.30712999999999996  0.7828  0.68335  1.0000
  C   C5        1.0  0.3796299999999999  0.77548  0.73676  1.0000
  C   C6        1.0  0.47016999999999987  0.81534  0.73731  1.0000
  C   C7        1.0  0.48808  0.85803  0.68859  1.0000
  C   C8        1.0  0.35980999999999985  0.73307  0.7923200000000001  1.0000
  C   C9        1.0  0.3689799999999999  0.6600499999999999  0.78262  1.0000
  C   C10       1.0  0.34058  0.61937  0.83106  1.0000
  C   C11       1.0  0.30639  0.6516  0.8943  1.0000
  C   C12       1.0  0.30583000000000005  0.7248200000000001  0.9089600000000001  1.0000
  C   C13       1.0  0.3308899999999999  0.76404  0.8582500000000001  1.0000
  C   C14       1.0  0.26601  0.6088  0.94432  1.0000
  C   C15       1.0  0.4876999999999999  0.10342  0.60887  1.0000
  C   C16       1.0  0.41769  0.14529000000000003  0.65063  1.0000
  C   C17       1.0  0.33042  0.16264000000000006  0.6187  1.0000
  C   C18       1.0  0.2671  0.20302  0.65894  1.0000
  C   C19       1.0  0.28435  0.22462999999999997  0.73237  1.0000
  C   C20       1.0  0.37296  0.20497000000000004  0.76235  1.0000
  C   C21       1.0  0.43988999999999995  0.16812  0.72299  1.0000
  C   C22       1.0  0.06539999999999999  0.41446000000000005  0.08936  1.0000
  C   C23       1.0  0.08506  0.36404  0.13718  1.0000
  C   C24       1.0  0.17606999999999995  0.36632  0.17517  1.0000
  C   C25       1.0  0.19284  0.31668  0.21726  1.0000
  C   C26       1.0  0.12034999999999996  0.26327  0.22461000000000003  1.0000
  C   C27       1.0  0.029829999999999995  0.26271  0.18473000000000003  1.0000
  C   C28       1.0  0.011939999999999992  0.31141  0.142  1.0000
  C   C29       1.0  0.14017  0.20768  0.26702  1.0000
  C   C30       1.0  0.13106  0.21741000000000002  0.34003  1.0000
  C   C31       1.0  0.1595  0.16899  0.38073  1.0000
  C   C32       1.0  0.19367999999999994  0.10573  0.34852  1.0000
  C   C33       1.0  0.19422  0.09103  0.27532  1.0000
  C   C34       1.0  0.16908  0.1417  0.23607000000000003  1.0000
  C   C35       1.0  0.23394000000000004  0.05565  0.3913  1.0000
  C   C36       1.0  0.012299999999999997  0.39115  0.89658  1.0000
  C   C37       1.0  0.08229000000000002  0.34939  0.85469  1.0000
  C   C38       1.0  0.16956000000000002  0.38133  0.8373600000000001  1.0000
  C   C39       1.0  0.23287000000000002  0.34108000000000005  0.79698  1.0000
  C   C40       1.0  0.21561999999999998  0.26763  0.77536  1.0000
  C   C41       1.0  0.12701  0.23764  0.7950000000000002  1.0000
  C   C42       1.0  0.06007  0.277  0.83185  1.0000
  C   C43       1.0  0.56541  0.08936  0.41446  1.0000
  C   C44       1.0  0.58506  0.13716000000000003  0.36404000000000003  1.0000
  C   C45       1.0  0.67609  0.17515000000000003  0.36631  1.0000
  C   C46       1.0  0.6928699999999998  0.21719  0.31665  1.0000
  C   C47       1.0  0.6203699999999999  0.22451  0.26324  1.0000
  C   C48       1.0  0.52984  0.18465  0.26269  1.0000
  C   C49       1.0  0.51193  0.14197  0.31142  1.0000
  C   C50       1.0  0.6401899999999998  0.26692  0.20768  1.0000
  C   C51       1.0  0.63102  0.33994  0.21738  1.0000
  C   C52       1.0  0.65942  0.38063  0.16894  1.0000
  C   C53       1.0  0.69361  0.3484  0.1057  1.0000
  C   C54       1.0  0.69417  0.27517  0.09104  1.0000
  C   C55       1.0  0.66911  0.23595000000000002  0.14175  1.0000
  C   C56       1.0  0.73399  0.39119  0.05568000000000001  1.0000
  C   C57       1.0  0.5123  0.8965700000000001  0.39113000000000003  1.0000
  C   C58       1.0  0.58231  0.8547000000000001  0.34937  1.0000
  C   C59       1.0  0.6695799999999997  0.83735  0.3813  1.0000
  C   C60       1.0  0.7328999999999998  0.79698  0.34106  1.0000
  C   C61       1.0  0.71565  0.7753700000000001  0.26763  1.0000
  C   C62       1.0  0.62704  0.79503  0.23765000000000003  1.0000
  C   C63       1.0  0.56011  0.83188  0.27701  1.0000
  C   C64       1.0  0.9346  0.5855399999999998  0.91064  1.0000
  C   C65       1.0  0.9149399999999999  0.6359500000000001  0.8628300000000001  1.0000
  C   C66       1.0  0.8239299999999998  0.6336699999999998  0.82483  1.0000
  C   C67       1.0  0.80716  0.68331  0.78274  1.0000
  C   C68       1.0  0.8796599999999999  0.73673  0.7753900000000001  1.0000
  C   C69       1.0  0.97017  0.73729  0.81527  1.0000
  C   C70       1.0  0.98806  0.68859  0.858  1.0000
  C   C71       1.0  0.85983  0.79232  0.7329800000000001  1.0000
  C   C72       1.0  0.8689399999999999  0.78258  0.65997  1.0000
  C   C73       1.0  0.84051  0.83101  0.61927  1.0000
  C   C74       1.0  0.80632  0.89427  0.6514800000000001  1.0000
  C   C75       1.0  0.8057799999999999  0.9089700000000001  0.72468  1.0000
  C   C76       1.0  0.83093  0.8582900000000001  0.76393  1.0000
  C   C77       1.0  0.7660699999999998  0.94434  0.60871  1.0000
  C   C78       1.0  0.9877  0.6088500000000001  0.10343  1.0000
  C   C79       1.0  0.91772  0.65061  0.14531  1.0000
  C   C80       1.0  0.83044  0.61866  0.16264  1.0000
  C   C81       1.0  0.76713  0.65892  0.20303  1.0000
  C   C82       1.0  0.78438  0.73237  0.22464  1.0000
  C   C83       1.0  0.87299  0.76236  0.205  1.0000
  C   C84       1.0  0.93993  0.723  0.16815  1.0000
  N   N1        1.0  0.20706  0.74762  0.6791  1.0000
  N   N2        1.0  0.5499299999999998  0.81566  0.79265  1.0000
  N   N3        1.0  0.40777  0.62342  0.71793  1.0000
  N   N4        1.0  0.32707  0.84133  0.87655  1.0000
  N   N5        1.0  0.17924  0.22235  0.61962  1.0000
  N   N6        1.0  0.40091  0.22708  0.8385300000000001  1.0000
  N   N7        1.0  0.29292999999999986  0.32094  0.2524  1.0000
  N   N8        1.0  0.95008  0.20735000000000003  0.18439  1.0000
  N   N9        1.0  0.0922  0.2821  0.37663  1.0000
  N   N10       1.0  0.1729  0.12338  0.15879  1.0000
  N   N11       1.0  0.32074999999999987  0.3804  0.77766  1.0000
  N   N12       1.0  0.09908999999999998  0.16143  0.77289  1.0000
  N   N13       1.0  0.7929399999999999  0.25237  0.3209  1.0000
  N   N14       1.0  0.45007  0.18434  0.20735  1.0000
  N   N15       1.0  0.59223  0.37657  0.28207  1.0000
  N   N16       1.0  0.67293  0.15867  0.12345  1.0000
  N   N17       1.0  0.82076  0.77764  0.38038  1.0000
  N   N18       1.0  0.5991  0.77291  0.16147  1.0000
  N   N19       1.0  0.7070699999999998  0.67906  0.74761  1.0000
  N   N20       1.0  0.04993  0.79265  0.81562  1.0000
  N   N21       1.0  0.9078  0.71789  0.6233700000000001  1.0000
  N   N22       1.0  0.8271  0.87662  0.84121  1.0000
  N   N23       1.0  0.67926  0.6196  0.22234  1.0000
  N   N24       1.0  0.9009099999999999  0.83856  0.22711  1.0000
  O   O1        1.0  0.3671  0.9166100000000001  0.53827  1.0000
  O   O2        1.0  0.5197  0.94402  0.59419  1.0000
  O   O3        1.0  0.24275  0.54245  0.9239  1.0000
  O   O4        1.0  0.24746000000000004  0.63934  0.00571  1.0000
  O   O5        1.0  0.14627  0.7594  0.63314  1.0000
  O   O6        1.0  0.18977  0.70879  0.7222  1.0000
  O   O7        1.0  0.61496  0.86502  0.80196  1.0000
  O   O8        1.0  0.54732  0.76696  0.82638  1.0000
  O   O9        1.0  0.43194000000000005  0.65966  0.6739500000000002  1.0000
  O   O10       1.0  0.41425  0.5594400000000002  0.71177  1.0000
  O   O11       1.0  0.31923  0.87444  0.82734  1.0000
  O   O12       1.0  0.3327799999999999  0.86767  0.93968  1.0000
  O   O13       1.0  0.4563  0.06586  0.54847  1.0000
  O   O14       1.0  0.57648  0.10404  0.63275  1.0000
  O   O15       1.0  0.11974  0.25769  0.65296  1.0000
  O   O16       1.0  0.17073  0.20145  0.55534  1.0000
  O   O17       1.0  0.3335  0.2398  0.87762  1.0000
  O   O18       1.0  0.48973  0.23177  0.85791  1.0000
  O   O19       1.0  0.1329  0.46173  0.08338  1.0000
  O   O20       1.0  0.9803  0.40579  0.05598  1.0000
  O   O21       1.0  0.25708  0.07604000000000001  0.45766000000000007  1.0000
  O   O22       1.0  0.2525499999999999  0.99426  0.36074  1.0000
  O   O23       1.0  0.3537199999999999  0.36689  0.24056999999999998  1.0000
  O   O24       1.0  0.31023  0.27783000000000013  0.29122  1.0000
  O   O25       1.0  0.88507  0.19803  0.13502  1.0000
  O   O26       1.0  0.95268  0.1736  0.23307  1.0000
  O   O27       1.0  0.06796  0.32607  0.34038  1.0000
  O   O28       1.0  0.08570999999999998  0.28826  0.4405899999999999  1.0000
  O   O29       1.0  0.18079  0.17265  0.12575  1.0000
  O   O30       1.0  0.16716  0.06024  0.13237  1.0000
  O   O31       1.0  0.04372999999999997  0.45154000000000005  0.93416  1.0000
  O   O32       1.0  0.9235199999999999  0.36728  0.8959600000000001  1.0000
  O   O33       1.0  0.38024999999999987  0.34704000000000007  0.74236  1.0000
  O   O34       1.0  0.32926  0.44469  0.79856  1.0000
  O   O35       1.0  0.16648  0.12231000000000002  0.76021  1.0000
  O   O36       1.0  0.010259999999999997  0.14207  0.76815  1.0000
  O   O37       1.0  0.63291  0.08338999999999999  0.4617299999999999  1.0000
  O   O38       1.0  0.4803  0.05598000000000001  0.40581  1.0000
  O   O39       1.0  0.7572499999999998  0.45754000000000006  0.0761  1.0000
  O   O40       1.0  0.75254  0.36065  0.99429  1.0000
  O   O41       1.0  0.85373  0.24059  0.36686  1.0000
  O   O42       1.0  0.81023  0.2912  0.2778  1.0000
  O   O43       1.0  0.38505  0.13498  0.19804  1.0000
  O   O44       1.0  0.45268  0.23304000000000002  0.17362000000000002  1.0000
  O   O45       1.0  0.56806  0.34033  0.32605  1.0000
  O   O46       1.0  0.58576  0.44056  0.28823  1.0000
  O   O47       1.0  0.68077  0.12555  0.17266  1.0000
  O   O48       1.0  0.66722  0.13233  0.06032  1.0000
  O   O49       1.0  0.54371  0.93414  0.45153  1.0000
  O   O50       1.0  0.42352  0.8959600000000001  0.36725  1.0000
  O   O51       1.0  0.88025  0.7423000000000001  0.34704  1.0000
  O   O52       1.0  0.82928  0.79854  0.44466000000000006  1.0000
  O   O53       1.0  0.6664999999999999  0.7602  0.12238  1.0000
  O   O54       1.0  0.51027  0.76822  0.14209  1.0000
  O   O55       1.0  0.8671  0.53826  0.91662  1.0000
  O   O56       1.0  0.01969999999999999  0.5942  0.94402  1.0000
  O   O57       1.0  0.74292  0.92395  0.54235  1.0000
  O   O58       1.0  0.74745  0.005730000000000001  0.63926  1.0000
  O   O59       1.0  0.64628  0.6331100000000002  0.75943  1.0000
  O   O60       1.0  0.68977  0.72216  0.70878  1.0000
  O   O61       1.0  0.11493000000000002  0.8019700000000001  0.8649800000000001  1.0000
  O   O62       1.0  0.04732  0.82639  0.76693  1.0000
  O   O63       1.0  0.93204  0.6739200000000001  0.65962  1.0000
  O   O64       1.0  0.9142900000000002  0.71174  0.55941  1.0000
  O   O65       1.0  0.8192099999999998  0.82735  0.87425  1.0000
  O   O66       1.0  0.83284  0.93975  0.86763  1.0000
  O   O67       1.0  0.95627  0.54845  0.06584  1.0000
  O   O68       1.0  0.07647999999999998  0.63272  0.10405  1.0000
  O   O69       1.0  0.61975  0.65296  0.25764  1.0000
  O   O70       1.0  0.67074  0.5553  0.20145  1.0000
  O   O71       1.0  0.83352  0.87769  0.23979000000000003  1.0000
  O   O72       1.0  0.9897399999999998  0.85792  0.23185000000000003  1.0000
