data_image0
_chemical_formula_structural       Er4Mn6H36C84N12O48
_chemical_formula_sum              "Er4 Mn6 H36 C84 N12 O48"
_cell_length_a       15.37424
_cell_length_b       15.374330000000002
_cell_length_c       15.47961
_cell_angle_alpha    90.0
_cell_angle_beta     90.0
_cell_angle_gamma    120.0469

_space_group_name_H-M_alt    "P 1"
_space_group_IT_number       1

loop_
  _space_group_symop_operation_xyz
  'x, y, z'

loop_
  _atom_site_type_symbol
  _atom_site_label
  _atom_site_symmetry_multiplicity
  _atom_site_fract_x
  _atom_site_fract_y
  _atom_site_fract_z
  _atom_site_occupancy
  Er  Er1       1.0  0.66668  0.33333  0.24472000000000005  1.0000
  Er  Er2       1.0  0.33332  0.66667  0.24474000000000007  1.0000
  Er  Er3       1.0  0.33332  0.66667  0.75532  1.0000
  Er  Er4       1.0  0.66668  0.33334  0.7553100000000003  1.0000
  Mn  Mn1       1.0  0.5  0.5  0.0  1.0000
  Mn  Mn2       1.0  0.5  0.0  0.0  1.0000
  Mn  Mn3       1.0  0.0  0.5  0.0  1.0000
  Mn  Mn4       1.0  0.5  0.5  0.5  1.0000
  Mn  Mn5       1.0  0.0  0.5  0.5  1.0000
  Mn  Mn6       1.0  0.5  0.0  0.5  1.0000
  H   H1        1.0  0.28737  0.24225  0.14932  1.0000
  H   H2        1.0  0.7576  0.04517  0.14921  1.0000
  H   H3        1.0  0.95502  0.71273  0.14916  1.0000
  H   H4        1.0  0.71262  0.75775  0.14932  1.0000
  H   H5        1.0  0.24239999999999995  0.95484  0.14921  1.0000
  H   H6        1.0  0.04497999999999997  0.28727  0.14916  1.0000
  H   H7        1.0  0.2435  0.29099  0.3513000000000001  1.0000
  H   H8        1.0  0.04753999999999995  0.75631  0.35143000000000013  1.0000
  H   H9        1.0  0.7091  0.95264  0.35145  1.0000
  H   H10       1.0  0.7565  0.70901  0.3513000000000001  1.0000
  H   H11       1.0  0.95246  0.2437  0.35143000000000013  1.0000
  H   H12       1.0  0.2909  0.04737  0.35146  1.0000
  H   H13       1.0  0.71263  0.75775  0.85068  1.0000
  H   H14       1.0  0.24239999999999995  0.95484  0.85079  1.0000
  H   H15       1.0  0.04497999999999997  0.28727  0.85084  1.0000
  H   H16       1.0  0.28738  0.24226  0.8506900000000002  1.0000
  H   H17       1.0  0.7576  0.04517  0.85079  1.0000
  H   H18       1.0  0.95502  0.71273  0.85084  1.0000
  H   H19       1.0  0.7565  0.70901  0.6487  1.0000
  H   H20       1.0  0.95246  0.2437  0.64857  1.0000
  H   H21       1.0  0.2909  0.04737  0.64855  1.0000
  H   H22       1.0  0.2435  0.29099  0.6487  1.0000
  H   H23       1.0  0.047540000000000006  0.7563  0.64857  1.0000
  H   H24       1.0  0.7091  0.95264  0.64855  1.0000
  H   H25       1.0  0.19136  0.09542  0.2512900000000001  1.0000
  H   H26       1.0  0.90449  0.09603  0.2512000000000001  1.0000
  H   H27       1.0  0.90414  0.80867  0.2510600000000001  1.0000
  H   H28       1.0  0.80864  0.90458  0.2512900000000001  1.0000
  H   H29       1.0  0.09550999999999997  0.90397  0.2512000000000001  1.0000
  H   H30       1.0  0.09586  0.19134  0.25105  1.0000
  H   H31       1.0  0.80864  0.90458  0.7487100000000002  1.0000
  H   H32       1.0  0.09550999999999997  0.9039799999999999  0.7488  1.0000
  H   H33       1.0  0.09586  0.19133  0.7489400000000003  1.0000
  H   H34       1.0  0.19136  0.09543  0.74872  1.0000
  H   H35       1.0  0.90449  0.09603  0.7488  1.0000
  H   H36       1.0  0.90414  0.80867  0.74895  1.0000
  C   C1        1.0  0.49457  0.3565  0.13848000000000005  1.0000
  C   C2        1.0  0.42988000000000004  0.2673  0.19478  1.0000
  C   C3        1.0  0.32493  0.21678  0.19355  1.0000
  C   C4        1.0  0.64333  0.13783  0.13844000000000006  1.0000
  C   C5        1.0  0.7325000000000002  0.1625  0.19476  1.0000
  C   C6        1.0  0.78305  0.10815  0.19351000000000004  1.0000
  C   C7        1.0  0.86224  0.50562  0.13842  1.0000
  C   C8        1.0  0.83769  0.57017  0.19475000000000006  1.0000
  C   C9        1.0  0.8920499999999999  0.6751299999999999  0.19346000000000005  1.0000
  C   C10       1.0  0.5054399999999999  0.6435099999999999  0.13847  1.0000
  C   C11       1.0  0.57012  0.7327  0.19477000000000005  1.0000
  C   C12       1.0  0.67507  0.7832199999999999  0.19355  1.0000
  C   C13       1.0  0.35667  0.86218  0.13843  1.0000
  C   C14       1.0  0.26749999999999996  0.8375  0.19476  1.0000
  C   C15       1.0  0.21695  0.89186  0.19351000000000004  1.0000
  C   C16       1.0  0.13775999999999997  0.49438  0.13841  1.0000
  C   C17       1.0  0.1623  0.42983  0.19475000000000006  1.0000
  C   C18       1.0  0.10794000000000001  0.32488  0.19346000000000005  1.0000
  C   C19       1.0  0.3579  0.49893  0.35776000000000013  1.0000
  C   C20       1.0  0.26832999999999996  0.43190999999999996  0.3022900000000001  1.0000
  C   C21       1.0  0.21751999999999996  0.3270199999999999  0.30597  1.0000
  C   C22       1.0  0.14093  0.64195  0.35778  1.0000
  C   C23       1.0  0.16353  0.73147  0.3023000000000001  1.0000
  C   C24       1.0  0.10950999999999997  0.78227  0.30604  1.0000
  C   C25       1.0  0.50112  0.85918  0.35779  1.0000
  C   C26       1.0  0.56809  0.83667  0.30232  1.0000
  C   C27       1.0  0.67298  0.89068  0.30608  1.0000
  C   C28       1.0  0.6421  0.50108  0.35776000000000013  1.0000
  C   C29       1.0  0.73167  0.5681  0.3023000000000001  1.0000
  C   C30       1.0  0.78248  0.6729899999999999  0.30597  1.0000
  C   C31       1.0  0.85907  0.35805  0.35779  1.0000
  C   C32       1.0  0.83647  0.26853  0.3023000000000001  1.0000
  C   C33       1.0  0.8905  0.21773  0.30603  1.0000
  C   C34       1.0  0.4988800000000001  0.14082  0.3578000000000001  1.0000
  C   C35       1.0  0.4319  0.16333  0.30233  1.0000
  C   C36       1.0  0.32701  0.10932  0.30608  1.0000
  C   C37       1.0  0.5054399999999999  0.6435099999999999  0.86153  1.0000
  C   C38       1.0  0.57012  0.7327  0.80522  1.0000
  C   C39       1.0  0.67507  0.7832199999999999  0.80645  1.0000
  C   C40       1.0  0.35667  0.86218  0.8615700000000002  1.0000
  C   C41       1.0  0.26749999999999996  0.8375  0.80524  1.0000
  C   C42       1.0  0.21694999999999995  0.8918499999999999  0.8065  1.0000
  C   C43       1.0  0.13775999999999997  0.49438  0.86158  1.0000
  C   C44       1.0  0.16231  0.42983  0.8052500000000002  1.0000
  C   C45       1.0  0.10795000000000002  0.32488  0.8065400000000003  1.0000
  C   C46       1.0  0.49456  0.35649  0.86153  1.0000
  C   C47       1.0  0.4298800000000001  0.26731  0.8052300000000002  1.0000
  C   C48       1.0  0.32493  0.21678999999999998  0.80645  1.0000
  C   C49       1.0  0.64333  0.13783  0.8615700000000002  1.0000
  C   C50       1.0  0.7325000000000002  0.1625  0.8052500000000002  1.0000
  C   C51       1.0  0.78305  0.10815  0.8065  1.0000
  C   C52       1.0  0.86224  0.50563  0.8615900000000001  1.0000
  C   C53       1.0  0.8377  0.57017  0.8052600000000002  1.0000
  C   C54       1.0  0.8920599999999999  0.6751299999999999  0.8065400000000003  1.0000
  C   C55       1.0  0.64209  0.50107  0.64225  1.0000
  C   C56       1.0  0.73167  0.56809  0.6977100000000003  1.0000
  C   C57       1.0  0.78248  0.67298  0.6940300000000003  1.0000
  C   C58       1.0  0.8590600000000002  0.35806  0.6422200000000002  1.0000
  C   C59       1.0  0.83647  0.26853  0.6977  1.0000
  C   C60       1.0  0.89049  0.21773  0.69397  1.0000
  C   C61       1.0  0.49889  0.14083  0.6422100000000001  1.0000
  C   C62       1.0  0.43191  0.16333  0.69768  1.0000
  C   C63       1.0  0.32702  0.10933  0.6939300000000003  1.0000
  C   C64       1.0  0.3579  0.49893  0.6422400000000003  1.0000
  C   C65       1.0  0.26832999999999996  0.43190999999999996  0.6977  1.0000
  C   C66       1.0  0.21751999999999996  0.3270199999999999  0.6940300000000003  1.0000
  C   C67       1.0  0.14093  0.64195  0.6422200000000002  1.0000
  C   C68       1.0  0.16353  0.73147  0.6977  1.0000
  C   C69       1.0  0.10949999999999996  0.78227  0.69397  1.0000
  C   C70       1.0  0.50112  0.85918  0.6422100000000001  1.0000
  C   C71       1.0  0.5681  0.83668  0.69767  1.0000
  C   C72       1.0  0.67299  0.89068  0.6939300000000003  1.0000
  C   C73       1.0  0.27320000000000005  0.13653  0.25041  1.0000
  C   C74       1.0  0.86333  0.13669  0.2503300000000001  1.0000
  C   C75       1.0  0.86351  0.72683  0.25025  1.0000
  C   C76       1.0  0.7268  0.86346  0.25041  1.0000
  C   C77       1.0  0.13668000000000002  0.86332  0.25034  1.0000
  C   C78       1.0  0.13649  0.27318  0.25025  1.0000
  C   C79       1.0  0.7268  0.86347  0.7496000000000003  1.0000
  C   C80       1.0  0.13667  0.86332  0.74967  1.0000
  C   C81       1.0  0.13649  0.27317  0.74975  1.0000
  C   C82       1.0  0.27320000000000005  0.13654  0.74959  1.0000
  C   C83       1.0  0.86332  0.13669  0.74967  1.0000
  C   C84       1.0  0.86351  0.72683  0.74975  1.0000
  N   N1        1.0  0.48114999999999997  0.24023999999999998  0.24762000000000006  1.0000
  N   N2        1.0  0.75954  0.24083999999999997  0.24762000000000006  1.0000
  N   N3        1.0  0.75937  0.51887  0.24765000000000006  1.0000
  N   N4        1.0  0.51885  0.75976  0.24761  1.0000
  N   N5        1.0  0.24046000000000006  0.75916  0.24761  1.0000
  N   N6        1.0  0.24063  0.48114  0.24764000000000005  1.0000
  N   N7        1.0  0.51885  0.75976  0.75238  1.0000
  N   N8        1.0  0.24045000000000008  0.75916  0.75238  1.0000
  N   N9        1.0  0.24063  0.48114  0.75236  1.0000
  N   N10       1.0  0.48114999999999997  0.24023999999999998  0.7523900000000002  1.0000
  N   N11       1.0  0.75954  0.24083999999999997  0.7523900000000002  1.0000
  N   N12       1.0  0.75937  0.51886  0.75236  1.0000
  O   O1        1.0  0.44770999999999994  0.38767999999999997  0.09139  1.0000
  O   O2        1.0  0.58873  0.39296  0.14290000000000005  1.0000
  O   O3        1.0  0.6124  0.0598  0.09135000000000003  1.0000
  O   O4        1.0  0.60672  0.19536  0.14286000000000004  1.0000
  O   O5        1.0  0.94031  0.55268  0.09135000000000003  1.0000
  O   O6        1.0  0.80451  0.41142999999999996  0.14284  1.0000
  O   O7        1.0  0.5523  0.61232  0.09139  1.0000
  O   O8        1.0  0.41128  0.60705  0.14288000000000006  1.0000
  O   O9        1.0  0.38761  0.94021  0.09135000000000003  1.0000
  O   O10       1.0  0.39327  0.80464  0.14285  1.0000
  O   O11       1.0  0.05966999999999997  0.44731999999999994  0.09135000000000003  1.0000
  O   O12       1.0  0.19549  0.58857  0.14282  1.0000
  O   O13       1.0  0.38953  0.45415  0.40705  1.0000
  O   O14       1.0  0.39364  0.59266  0.35055  1.0000
  O   O15       1.0  0.06450999999999994  0.6104  0.4070700000000001  1.0000
  O   O16       1.0  0.19890000000000005  0.60624  0.35060000000000013  1.0000
  O   O17       1.0  0.5459999999999999  0.9355999999999999  0.4070900000000001  1.0000
  O   O18       1.0  0.40739  0.80113  0.35058  1.0000
  O   O19       1.0  0.61046  0.54587  0.40705  1.0000
  O   O20       1.0  0.60636  0.40736  0.3505600000000001  1.0000
  O   O21       1.0  0.9354999999999999  0.38960999999999996  0.4070700000000001  1.0000
  O   O22       1.0  0.80111  0.39376  0.3506100000000001  1.0000
  O   O23       1.0  0.45399  0.0644  0.4071  1.0000
  O   O24       1.0  0.5926  0.19886999999999996  0.35059  1.0000
  O   O25       1.0  0.55229  0.61232  0.90861  1.0000
  O   O26       1.0  0.41127  0.60704  0.85711  1.0000
  O   O27       1.0  0.3876  0.9402  0.9086500000000002  1.0000
  O   O28       1.0  0.39328  0.80464  0.8571500000000002  1.0000
  O   O29       1.0  0.05969  0.44733  0.9086500000000002  1.0000
  O   O30       1.0  0.19549  0.58858  0.8571700000000002  1.0000
  O   O31       1.0  0.44769999999999993  0.38767999999999997  0.90861  1.0000
  O   O32       1.0  0.58872  0.39294999999999997  0.8571200000000002  1.0000
  O   O33       1.0  0.61239  0.05979  0.9086500000000002  1.0000
  O   O34       1.0  0.60673  0.19536999999999996  0.85716  1.0000
  O   O35       1.0  0.94032  0.55269  0.9086500000000002  1.0000
  O   O36       1.0  0.80451  0.41142999999999996  0.85718  1.0000
  O   O37       1.0  0.61046  0.54586  0.59295  1.0000
  O   O38       1.0  0.6063599999999999  0.40734999999999993  0.64945  1.0000
  O   O39       1.0  0.9354899999999999  0.38960999999999996  0.59293  1.0000
  O   O40       1.0  0.8011  0.39376  0.6494000000000001  1.0000
  O   O41       1.0  0.454  0.06441  0.5929100000000003  1.0000
  O   O42       1.0  0.59261  0.19888  0.6494300000000002  1.0000
  O   O43       1.0  0.38954  0.45414  0.59295  1.0000
  O   O44       1.0  0.39364  0.59265  0.64944  1.0000
  O   O45       1.0  0.06449999999999996  0.6104  0.59293  1.0000
  O   O46       1.0  0.19888999999999998  0.60625  0.64939  1.0000
  O   O47       1.0  0.5460099999999999  0.9356099999999999  0.5929100000000003  1.0000
  O   O48       1.0  0.4074  0.80113  0.64942  1.0000
