data_image0
_chemical_formula_structural       Ba6Li12H24C60N24O48
_chemical_formula_sum              "Ba6 Li12 H24 C60 N24 O48"
_cell_length_a       9.31061
_cell_length_b       10.96754
_cell_length_c       28.668159999999997
_cell_angle_alpha    90.02467
_cell_angle_beta     90.0
_cell_angle_gamma    90.0

_space_group_name_H-M_alt    "P 1"
_space_group_IT_number       1

loop_
  _space_group_symop_operation_xyz
  'x, y, z'

loop_
  _atom_site_type_symbol
  _atom_site_label
  _atom_site_symmetry_multiplicity
  _atom_site_fract_x
  _atom_site_fract_y
  _atom_site_fract_z
  _atom_site_occupancy
  Ba  Ba1       1.0  0.029510000000000005  0.14165  0.44571  1.0000
  Ba  Ba2       1.0  0.029510000000000005  0.8583500000000001  0.55429  1.0000
  Ba  Ba3       1.0  0.9715800000000001  0.35874  0.94563  1.0000
  Ba  Ba4       1.0  0.9715800000000001  0.64126  0.05437  1.0000
  Ba  Ba5       1.0  0.8178300000000002  0.5  0.5  1.0000
  Ba  Ba6       1.0  0.18248  0.0  0.0  1.0000
  Li  Li1       1.0  0.88952  0.40995999999999994  0.15647  1.0000
  Li  Li2       1.0  0.9431600000000001  0.41976  0.3882  1.0000
  Li  Li3       1.0  0.08876  0.72259  0.44123000000000007  1.0000
  Li  Li4       1.0  0.88952  0.59004  0.84353  1.0000
  Li  Li5       1.0  0.9431600000000001  0.58025  0.61179  1.0000
  Li  Li6       1.0  0.08876  0.27741  0.55877  1.0000
  Li  Li7       1.0  0.11203000000000002  0.08785  0.657  1.0000
  Li  Li8       1.0  0.055680000000000014  0.08223  0.88838  1.0000
  Li  Li9       1.0  0.9115500000000001  0.77863  0.94135  1.0000
  Li  Li10      1.0  0.11203000000000002  0.91215  0.343  1.0000
  Li  Li11      1.0  0.055680000000000014  0.9177699999999999  0.11162000000000001  1.0000
  Li  Li12      1.0  0.9115500000000001  0.22136999999999998  0.05865  1.0000
  H   H1        1.0  0.8957000000000002  0.36978  0.28544  1.0000
  H   H2        1.0  0.42537  0.12898  0.41946  1.0000
  H   H3        1.0  0.3846800000000001  0.66457  0.46526  1.0000
  H   H4        1.0  0.10668  0.052579999999999995  0.24025  1.0000
  H   H5        1.0  0.5119  0.50901  0.42804  1.0000
  H   H6        1.0  0.60724  0.9974199999999999  0.44192  1.0000
  H   H7        1.0  0.8957000000000002  0.63022  0.71456  1.0000
  H   H8        1.0  0.42537  0.87103  0.58053  1.0000
  H   H9        1.0  0.3846800000000001  0.33544  0.53474  1.0000
  H   H10       1.0  0.10668  0.94742  0.75974  1.0000
  H   H11       1.0  0.5119  0.49099  0.5719600000000001  1.0000
  H   H12       1.0  0.60724  0.00259  0.55808  1.0000
  H   H13       1.0  0.10314000000000002  0.13024  0.78608  1.0000
  H   H14       1.0  0.57407  0.37167  0.91931  1.0000
  H   H15       1.0  0.61565  0.8364299999999999  0.9653  1.0000
  H   H16       1.0  0.89465  0.44731  0.73967  1.0000
  H   H17       1.0  0.4875300000000001  0.99181  0.92796  1.0000
  H   H18       1.0  0.3933700000000001  0.50343  0.94213  1.0000
  H   H19       1.0  0.10314000000000002  0.86977  0.21392  1.0000
  H   H20       1.0  0.57407  0.62833  0.08069  1.0000
  H   H21       1.0  0.61565  0.16357  0.0347  1.0000
  H   H22       1.0  0.89465  0.55269  0.26033  1.0000
  H   H23       1.0  0.4875300000000001  0.0082  0.07204  1.0000
  H   H24       1.0  0.3933700000000001  0.49658  0.057870000000000005  1.0000
  C   C1        1.0  0.03079000000000001  0.18302  0.33123  1.0000
  C   C2        1.0  0.0087  0.20263  0.28051  1.0000
  C   C3        1.0  0.044860000000000004  0.13575  0.24108  1.0000
  C   C4        1.0  0.9890800000000001  0.20212  0.20319  1.0000
  C   C5        1.0  0.9906000000000001  0.17331  0.15229  1.0000
  C   C6        1.0  0.18972  0.4733  0.44359  1.0000
  C   C7        1.0  0.31324  0.39283  0.43266  1.0000
  C   C8        1.0  0.46005  0.42078  0.42737  1.0000
  C   C9        1.0  0.52839  0.30897  0.42105  1.0000
  C   C10       1.0  0.6844800000000002  0.28199  0.41879  1.0000
  C   C11       1.0  0.83201  0.82035  0.46168  1.0000
  C   C12       1.0  0.67485  0.80793  0.45836  1.0000
  C   C13       1.0  0.57842  0.9034799999999998  0.44917  1.0000
  C   C14       1.0  0.44339000000000006  0.85085  0.45322  1.0000
  C   C15       1.0  0.29886  0.9070199999999999  0.45055  1.0000
  C   C16       1.0  0.03079000000000001  0.8169800000000002  0.6687700000000001  1.0000
  C   C17       1.0  0.0087  0.79738  0.71949  1.0000
  C   C18       1.0  0.044860000000000004  0.8642499999999999  0.75892  1.0000
  C   C19       1.0  0.9890800000000001  0.79789  0.7968  1.0000
  C   C20       1.0  0.9906000000000001  0.82669  0.84771  1.0000
  C   C21       1.0  0.18972  0.5267  0.55641  1.0000
  C   C22       1.0  0.31324  0.60717  0.56734  1.0000
  C   C23       1.0  0.46005  0.57922  0.57263  1.0000
  C   C24       1.0  0.52839  0.69103  0.57894  1.0000
  C   C25       1.0  0.6844800000000002  0.71801  0.58121  1.0000
  C   C26       1.0  0.83201  0.17965  0.53832  1.0000
  C   C27       1.0  0.67485  0.19208  0.54164  1.0000
  C   C28       1.0  0.57842  0.09651999999999998  0.55083  1.0000
  C   C29       1.0  0.44339000000000006  0.14915  0.54678  1.0000
  C   C30       1.0  0.29886  0.09299  0.54945  1.0000
  C   C31       1.0  0.97143  0.31925  0.83128  1.0000
  C   C32       1.0  0.9917100000000002  0.29787  0.78056  1.0000
  C   C33       1.0  0.9559300000000002  0.3639  0.74091  1.0000
  C   C34       1.0  0.011500000000000002  0.29652  0.70322  1.0000
  C   C35       1.0  0.00962  0.32422  0.6522100000000001  1.0000
  C   C36       1.0  0.8101300000000002  0.02772  0.94367  1.0000
  C   C37       1.0  0.6864900000000002  0.10793999999999998  0.93264  1.0000
  C   C38       1.0  0.53955  0.08002  0.92731  1.0000
  C   C39       1.0  0.47146000000000005  0.1919  0.92099  1.0000
  C   C40       1.0  0.3160000000000001  0.22126  0.91885  1.0000
  C   C41       1.0  0.16820000000000004  0.6804  0.96167  1.0000
  C   C42       1.0  0.32546  0.69289  0.9584700000000002  1.0000
  C   C43       1.0  0.42207  0.59739  0.9494  1.0000
  C   C44       1.0  0.55697  0.65022  0.95343  1.0000
  C   C45       1.0  0.7018  0.59482  0.95036  1.0000
  C   C46       1.0  0.97143  0.68075  0.16872  1.0000
  C   C47       1.0  0.9917100000000002  0.70213  0.21944  1.0000
  C   C48       1.0  0.9559300000000002  0.6361  0.25909  1.0000
  C   C49       1.0  0.011500000000000002  0.70348  0.29678  1.0000
  C   C50       1.0  0.00962  0.67579  0.34779  1.0000
  C   C51       1.0  0.8101300000000002  0.97229  0.05633  1.0000
  C   C52       1.0  0.6864900000000002  0.89206  0.06736  1.0000
  C   C53       1.0  0.53955  0.9199899999999999  0.07269000000000002  1.0000
  C   C54       1.0  0.47146000000000005  0.8081  0.07901  1.0000
  C   C55       1.0  0.3160000000000001  0.77874  0.08115  1.0000
  C   C56       1.0  0.16820000000000004  0.3196  0.03833  1.0000
  C   C57       1.0  0.32546  0.30712  0.04152  1.0000
  C   C58       1.0  0.42207  0.40262  0.0506  1.0000
  C   C59       1.0  0.55697  0.34978  0.04656  1.0000
  C   C60       1.0  0.7018  0.40518  0.04964  1.0000
  N   N1        1.0  0.93656  0.3029  0.26471  1.0000
  N   N2        1.0  0.92239  0.30501  0.21808  1.0000
  N   N3        1.0  0.29201  0.27133  0.42848  1.0000
  N   N4        1.0  0.42219000000000007  0.22283  0.42175  1.0000
  N   N5        1.0  0.60503  0.70138  0.46673000000000003  1.0000
  N   N6        1.0  0.46485000000000004  0.73045  0.46395  1.0000
  N   N7        1.0  0.93656  0.6971  0.73529  1.0000
  N   N8        1.0  0.92239  0.69499  0.78192  1.0000
  N   N9        1.0  0.29201  0.72867  0.57152  1.0000
  N   N10       1.0  0.42219000000000007  0.7771799999999999  0.57825  1.0000
  N   N11       1.0  0.60503  0.29862  0.53327  1.0000
  N   N12       1.0  0.46485000000000004  0.26955  0.53604  1.0000
  N   N13       1.0  0.06295  0.19678  0.76506  1.0000
  N   N14       1.0  0.07745000000000002  0.19363  0.71844  1.0000
  N   N15       1.0  0.70793  0.22943  0.92843  1.0000
  N   N16       1.0  0.57784  0.27794  0.92168  1.0000
  N   N17       1.0  0.39511  0.79962  0.9668  1.0000
  N   N18       1.0  0.53536  0.7706  0.96416  1.0000
  N   N19       1.0  0.06295  0.8032199999999999  0.23493000000000003  1.0000
  N   N20       1.0  0.07745000000000002  0.8063699999999999  0.28156  1.0000
  N   N21       1.0  0.70793  0.77057  0.07157  1.0000
  N   N22       1.0  0.57784  0.72206  0.07832  1.0000
  N   N23       1.0  0.39511  0.20038999999999998  0.0332  1.0000
  N   N24       1.0  0.53536  0.22939999999999997  0.035840000000000004  1.0000
  O   O1        1.0  0.07620000000000003  0.07951  0.34503  1.0000
  O   O2        1.0  0.00019  0.27142  0.35799  1.0000
  O   O3        1.0  0.04287000000000001  0.07268  0.1398  1.0000
  O   O4        1.0  0.9363200000000002  0.25531  0.12539  1.0000
  O   O5        1.0  0.0641  0.42463000000000006  0.44488  1.0000
  O   O6        1.0  0.21509  0.58531  0.45128  1.0000
  O   O7        1.0  0.7279  0.17347  0.41883  1.0000
  O   O8        1.0  0.7655100000000001  0.3778  0.4189  1.0000
  O   O9        1.0  0.90659  0.72628  0.4748200000000001  1.0000
  O   O10       1.0  0.8861800000000002  0.92342  0.45381  1.0000
  O   O11       1.0  0.19603  0.85435  0.47211  1.0000
  O   O12       1.0  0.2859100000000001  0.00488  0.42721  1.0000
  O   O13       1.0  0.07620000000000003  0.92049  0.6549699999999999  1.0000
  O   O14       1.0  0.00019  0.72858  0.64201  1.0000
  O   O15       1.0  0.04287000000000001  0.92732  0.8602000000000001  1.0000
  O   O16       1.0  0.9363200000000002  0.7446900000000001  0.87461  1.0000
  O   O17       1.0  0.0641  0.57537  0.55511  1.0000
  O   O18       1.0  0.21509  0.41468999999999995  0.54872  1.0000
  O   O19       1.0  0.7279  0.82653  0.5811700000000001  1.0000
  O   O20       1.0  0.7655100000000001  0.6222  0.5811  1.0000
  O   O21       1.0  0.90659  0.27372  0.52518  1.0000
  O   O22       1.0  0.8861800000000002  0.07658  0.54619  1.0000
  O   O23       1.0  0.19603  0.14565  0.52789  1.0000
  O   O24       1.0  0.2859100000000001  0.99512  0.57279  1.0000
  O   O25       1.0  0.9295600000000002  0.42392  0.84494  1.0000
  O   O26       1.0  0.99985  0.23085  0.85829  1.0000
  O   O27       1.0  0.9574600000000001  0.4245999999999999  0.63944  1.0000
  O   O28       1.0  0.06345  0.24159  0.62542  1.0000
  O   O29       1.0  0.93559  0.07679  0.94506  1.0000
  O   O30       1.0  0.78507  0.9156999999999998  0.95134  1.0000
  O   O31       1.0  0.2770000000000001  0.33103  0.9188  1.0000
  O   O32       1.0  0.23145000000000002  0.12754  0.91919  1.0000
  O   O33       1.0  0.09371000000000002  0.77482  0.97465  1.0000
  O   O34       1.0  0.11411  0.57709  0.95391  1.0000
  O   O35       1.0  0.8042900000000002  0.64798  0.97198  1.0000
  O   O36       1.0  0.71497  0.49762999999999996  0.92657  1.0000
  O   O37       1.0  0.9295600000000002  0.57608  0.15506  1.0000
  O   O38       1.0  0.99985  0.7691599999999998  0.14171  1.0000
  O   O39       1.0  0.9574600000000001  0.5754  0.36056  1.0000
  O   O40       1.0  0.06345  0.7584199999999999  0.37458  1.0000
  O   O41       1.0  0.93559  0.92321  0.05494  1.0000
  O   O42       1.0  0.78507  0.08431  0.04866  1.0000
  O   O43       1.0  0.2770000000000001  0.6689799999999999  0.0812  1.0000
  O   O44       1.0  0.23145000000000002  0.8724599999999999  0.08081  1.0000
  O   O45       1.0  0.09371000000000002  0.22518  0.02535  1.0000
  O   O46       1.0  0.11411  0.42291  0.046090000000000006  1.0000
  O   O47       1.0  0.8042900000000002  0.35203  0.028020000000000003  1.0000
  O   O48       1.0  0.71497  0.50237  0.07342  1.0000
