data_image0
_chemical_formula_structural       Zn4H56C64N8O24
_chemical_formula_sum              "Zn4 H56 C64 N8 O24"
_cell_length_a       9.692
_cell_length_b       11.21273
_cell_length_c       19.11818
_cell_angle_alpha    90.33261
_cell_angle_beta     98.1972
_cell_angle_gamma    90.06336

_space_group_name_H-M_alt    "P 1"
_space_group_IT_number       1

loop_
  _space_group_symop_operation_xyz
  'x, y, z'

loop_
  _atom_site_type_symbol
  _atom_site_label
  _atom_site_symmetry_multiplicity
  _atom_site_fract_x
  _atom_site_fract_y
  _atom_site_fract_z
  _atom_site_occupancy
  Zn  Zn1       1.0  0.86387  0.8990699999999998  0.66169  1.0000
  Zn  Zn2       1.0  0.64339  0.39696999999999993  0.83877  1.0000
  Zn  Zn3       1.0  0.13632  0.10109999999999998  0.33836  1.0000
  Zn  Zn4       1.0  0.35685  0.60308  0.16127  1.0000
  H   H1        1.0  0.30321  0.19374999999999995  0.75075  1.0000
  H   H2        1.0  0.05403000000000002  0.12454999999999998  0.54997  1.0000
  H   H3        1.0  0.44255  0.3168  0.55961  1.0000
  H   H4        1.0  0.65137  0.98372  0.91327  1.0000
  H   H5        1.0  0.52214  0.8715399999999999  0.9016299999999999  1.0000
  H   H6        1.0  0.55674  0.7789999999999999  0.643  1.0000
  H   H7        1.0  0.47968000000000005  0.12143  0.96286  1.0000
  H   H8        1.0  0.35625  0.005259999999999997  0.9541999999999999  1.0000
  H   H9        1.0  0.36430999999999997  0.00933  0.82139  1.0000
  H   H10       1.0  0.4978699999999999  0.11868999999999998  0.8310499999999997  1.0000
  H   H11       1.0  0.37499999999999994  0.83942  0.7394299999999999  1.0000
  H   H12       1.0  0.8657500000000001  0.06083  0.78172  1.0000
  H   H13       1.0  0.73874  0.12013999999999998  0.8315399999999998  1.0000
  H   H14       1.0  0.74429  0.16735  0.7427099999999999  1.0000
  H   H15       1.0  0.20771999999999996  0.6918699999999999  0.74876  1.0000
  H   H16       1.0  0.44754  0.6229199999999999  0.9513399999999999  1.0000
  H   H17       1.0  0.06053999999999997  0.81756  0.9381399999999999  1.0000
  H   H18       1.0  0.8502699999999999  0.48513  0.58738  1.0000
  H   H19       1.0  0.9780300000000001  0.37204  0.59771  1.0000
  H   H20       1.0  0.95158  0.2807299999999999  0.85664  1.0000
  H   H21       1.0  0.022229999999999996  0.62138  0.5376  1.0000
  H   H22       1.0  0.14444  0.5046499999999999  0.54509  1.0000
  H   H23       1.0  0.13945  0.5098699999999999  0.67753  1.0000
  H   H24       1.0  0.0065999999999999705  0.61941  0.6696299999999998  1.0000
  H   H25       1.0  0.13148000000000007  0.34164  0.75964  1.0000
  H   H26       1.0  0.63998  0.56139  0.7207699999999999  1.0000
  H   H27       1.0  0.76602  0.6201  0.6703  1.0000
  H   H28       1.0  0.7629899999999998  0.66778  0.7596299999999999  1.0000
  H   H29       1.0  0.69673  0.8066299999999998  0.24939  1.0000
  H   H30       1.0  0.9473199999999999  0.87508  0.4497999999999999  1.0000
  H   H31       1.0  0.55898  0.6830699999999997  0.44090999999999997  1.0000
  H   H32       1.0  0.34878  0.01617  0.08663  1.0000
  H   H33       1.0  0.47793  0.12842  0.09824  1.0000
  H   H34       1.0  0.4439100000000001  0.22058  0.35702  1.0000
  H   H35       1.0  0.52039  0.8785799999999999  0.03693  1.0000
  H   H36       1.0  0.64382  0.9947599999999999  0.04558999999999999  1.0000
  H   H37       1.0  0.636  0.99052  0.17835  1.0000
  H   H38       1.0  0.50246  0.8811799999999997  0.16871  1.0000
  H   H39       1.0  0.62572  0.16000999999999999  0.26061  1.0000
  H   H40       1.0  0.13455  0.9392899999999998  0.21801  1.0000
  H   H41       1.0  0.2616  0.8795699999999999  0.16837  1.0000
  H   H42       1.0  0.25576  0.83276  0.25725  1.0000
  H   H43       1.0  0.79261  0.30921999999999994  0.25065  1.0000
  H   H44       1.0  0.55398  0.37707  0.047619999999999996  1.0000
  H   H45       1.0  0.94041  0.18151999999999996  0.061889999999999994  1.0000
  H   H46       1.0  0.14977  0.51476  0.41262  1.0000
  H   H47       1.0  0.021939999999999998  0.6277699999999999  0.4023  1.0000
  H   H48       1.0  0.04856000000000001  0.71929  0.14333  1.0000
  H   H49       1.0  0.9779099999999998  0.37835  0.46232  1.0000
  H   H50       1.0  0.85559  0.4950099999999999  0.45486  1.0000
  H   H51       1.0  0.8607  0.4901099999999999  0.32229  1.0000
  H   H52       1.0  0.99352  0.3805  0.33025  1.0000
  H   H53       1.0  0.86839  0.65792  0.24013999999999996  1.0000
  H   H54       1.0  0.36055  0.43928  0.2793  1.0000
  H   H55       1.0  0.23493  0.3807199999999999  0.3300199999999999  1.0000
  H   H56       1.0  0.23743000000000003  0.33238999999999996  0.2408  1.0000
  C   C1        1.0  0.06465999999999998  0.08691  0.69219  1.0000
  C   C2        1.0  0.51517  0.30855  0.70395  1.0000
  C   C3        1.0  0.28651  0.20310999999999998  0.69366  1.0000
  C   C4        1.0  0.14553999999999997  0.16470999999999997  0.5806399999999999  1.0000
  C   C5        1.0  0.24498  0.2233  0.54653  1.0000
  C   C6        1.0  0.16688999999999998  0.15498999999999996  0.6543799999999999  1.0000
  C   C7        1.0  0.38567  0.26157  0.65982  1.0000
  C   C8        1.0  0.6619300000000001  0.9937899999999998  0.75114  1.0000
  C   C9        1.0  0.36489  0.2723499999999999  0.58615  1.0000
  C   C10       1.0  0.53812  0.9686599999999997  0.90363  1.0000
  C   C11       1.0  0.7308099999999998  0.27359999999999995  0.96729  1.0000
  C   C12       1.0  0.5657  0.8470799999999998  0.68394  1.0000
  C   C13       1.0  0.46893000000000007  0.02375  0.9635099999999999  1.0000
  C   C14       1.0  0.4776599999999999  0.02247  0.8324099999999998  1.0000
  C   C15       1.0  0.47494000000000003  0.87629  0.73171  1.0000
  C   C16       1.0  0.7568  0.09032  0.77895  1.0000
  C   C17       1.0  0.44387000000000004  0.58458  0.80976  1.0000
  C   C18       1.0  0.9953  0.8102799999999998  0.79356  1.0000
  C   C19       1.0  0.22209000000000004  0.7018499999999999  0.80588  1.0000
  C   C20       1.0  0.3573  0.6631699999999998  0.9200699999999999  1.0000
  C   C21       1.0  0.25653  0.7224499999999998  0.95323  1.0000
  C   C22       1.0  0.33955  0.65309  0.84626  1.0000
  C   C23       1.0  0.12195999999999994  0.76156  0.83868  1.0000
  C   C24       1.0  0.84394  0.49411  0.74969  1.0000
  C   C25       1.0  0.13905999999999996  0.7722  0.91245  1.0000
  C   C26       1.0  0.9633200000000001  0.4692599999999999  0.59632  1.0000
  C   C27       1.0  0.77208  0.7734399999999998  0.53264  1.0000
  C   C28       1.0  0.9416999999999999  0.34837999999999997  0.81593  1.0000
  C   C29       1.0  0.031950000000000006  0.52363  0.53639  1.0000
  C   C30       1.0  0.026109999999999953  0.52316  0.6675299999999998  1.0000
  C   C31       1.0  0.031520000000000034  0.37785  0.76786  1.0000
  C   C32       1.0  0.74911  0.5905699999999999  0.72295  1.0000
  C   C33       1.0  0.93561  0.9130899999999998  0.30772  1.0000
  C   C34       1.0  0.48531  0.6915499999999999  0.29619999999999996  1.0000
  C   C35       1.0  0.7138000000000001  0.79702  0.30645  1.0000
  C   C36       1.0  0.85553  0.8349799999999999  0.41934  1.0000
  C   C37       1.0  0.7561  0.7764  0.45347999999999994  1.0000
  C   C38       1.0  0.8337300000000001  0.8447999999999998  0.34561  1.0000
  C   C39       1.0  0.61481  0.7384399999999999  0.34031999999999996  1.0000
  C   C40       1.0  0.33839  0.006139999999999998  0.24869999999999998  1.0000
  C   C41       1.0  0.6360500000000001  0.72752  0.41398  1.0000
  C   C42       1.0  0.46202  0.03129  0.09622  1.0000
  C   C43       1.0  0.26938  0.7260599999999999  0.03243  1.0000
  C   C44       1.0  0.43485  0.15262999999999996  0.316  1.0000
  C   C45       1.0  0.53115  0.97627  0.03629999999999999  1.0000
  C   C46       1.0  0.52263  0.9774  0.16739999999999997  1.0000
  C   C47       1.0  0.52562  0.12336999999999998  0.26826  1.0000
  C   C48       1.0  0.24344  0.90963  0.22090000000000004  1.0000
  C   C49       1.0  0.55862  0.4179999999999999  0.18934  1.0000
  C   C50       1.0  0.004920000000000004  0.18956000000000003  0.20636  1.0000
  C   C51       1.0  0.77858  0.29869  0.19358  1.0000
  C   C52       1.0  0.64366  0.33681  0.07932  1.0000
  C   C53       1.0  0.74424  0.27689  0.04643  1.0000
  C   C54       1.0  0.66154  0.34773999999999994  0.15301999999999996  1.0000
  C   C55       1.0  0.87846  0.23819  0.16105  1.0000
  C   C56       1.0  0.15647  0.5061699999999999  0.2504  1.0000
  C   C57       1.0  0.8615600000000001  0.22701999999999997  0.08729999999999999  1.0000
  C   C58       1.0  0.03671  0.53056  0.40363  1.0000
  C   C59       1.0  0.22822  0.22644999999999996  0.4673399999999999  1.0000
  C   C60       1.0  0.05845  0.6516799999999999  0.18407  1.0000
  C   C61       1.0  0.9681  0.47607999999999995  0.46353999999999995  1.0000
  C   C62       1.0  0.97402  0.47675  0.33238  1.0000
  C   C63       1.0  0.96853  0.6219899999999999  0.23203  1.0000
  C   C64       1.0  0.25161  0.40987  0.27726  1.0000
  N   N1        1.0  0.67964  0.9196399999999998  0.69649  1.0000
  N   N2        1.0  0.5361999999999999  0.96739  0.7730299999999999  1.0000
  N   N3        1.0  0.82744  0.4201999999999999  0.80418  1.0000
  N   N4        1.0  0.96924  0.46819  0.72713  1.0000
  N   N5        1.0  0.3206800000000001  0.08027999999999999  0.30337  1.0000
  N   N6        1.0  0.46419  0.03239  0.22685  1.0000
  N   N7        1.0  0.17293  0.5800799999999999  0.19594  1.0000
  N   N8        1.0  0.03098000000000001  0.53176  0.27283  1.0000
  O   O1        1.0  0.9518400000000001  0.05512999999999999  0.65244  1.0000
  O   O2        1.0  0.51412  0.30294  0.77159  1.0000
  O   O3        1.0  0.63238  0.3390799999999999  0.9342399999999998  1.0000
  O   O4        1.0  0.09685000000000002  0.06706  0.7569699999999999  1.0000
  O   O5        1.0  0.81356  0.21208  0.93744  1.0000
  O   O6        1.0  0.10484  0.15223  0.17746  1.0000
  O   O7        1.0  0.55449  0.55209  0.8508  1.0000
  O   O8        1.0  0.9991099999999999  0.8058599999999998  0.72601  1.0000
  O   O9        1.0  0.8678699999999999  0.8427799999999999  0.56515  1.0000
  O   O10       1.0  0.41598  0.56473  0.7446  1.0000
  O   O11       1.0  0.69345  0.7085699999999999  0.5627899999999999  1.0000
  O   O12       1.0  0.38662  0.6549199999999998  0.32611  1.0000
  O   O13       1.0  0.04839  0.94506  0.34749  1.0000
  O   O14       1.0  0.48585  0.6973099999999999  0.22855  1.0000
  O   O15       1.0  0.36765  0.66073  0.0657  1.0000
  O   O16       1.0  0.90318  0.9329899999999998  0.24298999999999998  1.0000
  O   O17       1.0  0.18648  0.78768  0.06217  1.0000
  O   O18       1.0  0.89541  0.8475899999999998  0.82253  1.0000
  O   O19       1.0  0.44607  0.44803999999999994  0.14905999999999997  1.0000
  O   O20       1.0  0.0009299999999999812  0.19410999999999998  0.27390999999999993  1.0000
  O   O21       1.0  0.13176  0.15773  0.43486  1.0000
  O   O22       1.0  0.59008  0.44169  0.25387  1.0000
  O   O23       1.0  0.30694  0.29114  0.4371  1.0000
  O   O24       1.0  0.6141  0.3450499999999999  0.67417  1.0000
