data_image0
_chemical_formula_structural       H32Pb8C80N24O32
_chemical_formula_sum              "H32 Pb8 C80 N24 O32"
_cell_length_a       16.35744
_cell_length_b       16.21531
_cell_length_c       16.37785
_cell_angle_alpha    62.526889999999995
_cell_angle_beta     85.44245999999998
_cell_angle_gamma    117.82086

_symmetry_space_group_name_H-M    'P 1'
_symmetry_Int_Tables_number       1

loop_
  _symmetry_equiv_pos_as_xyz
  'x,y,z'

loop_
  _atom_site_type_symbol
  _atom_site_label
  _atom_site_symmetry_multiplicity
  _atom_site_fract_x
  _atom_site_fract_y
  _atom_site_fract_z
  _atom_site_occupancy
  H   H1        1.0  0.18526000000000012  0.7416600000000002  0.29477  1.0000
  H   H2        1.0  0.28704  0.83494  0.12126  1.0000
  H   H3        1.0  0.42766000000000004  0.8128500000000001  0.08708999999999997  1.0000
  H   H4        1.0  0.45321000000000006  0.6926400000000001  0.23188999999999996  1.0000
  H   H5        1.0  0.9638100000000001  0.7583600000000003  0.05627  1.0000
  H   H6        1.0  0.044179999999999955  0.66491  0.047779999999999996  1.0000
  H   H7        1.0  0.10027000000000001  0.6866800000000001  0.8854099999999999  1.0000
  H   H8        1.0  0.07502000000000024  0.8064800000000004  0.74004  1.0000
  H   H9        1.0  0.20589000000000002  0.02159999999999999  0.53681  1.0000
  H   H10       1.0  0.3800600000000001  0.09476000000000008  0.4563299999999999  1.0000
  H   H11       1.0  0.41369000000000006  0.9881300000000001  0.39885  1.0000
  H   H12       1.0  0.2678500000000001  0.81618  0.4229  1.0000
  H   H13       1.0  0.44194  0.47863000000000006  0.31567  1.0000
  H   H14       1.0  0.44918  0.40563  0.21446  1.0000
  H   H15       1.0  0.61315  0.5122200000000002  0.07434999999999997  1.0000
  H   H16       1.0  0.7610100000000001  0.6839700000000002  0.04852999999999998  1.0000
  H   H17       1.0  0.8146800000000003  0.25827000000000017  0.7052299999999998  1.0000
  H   H18       1.0  0.7129400000000004  0.16502000000000017  0.8787499999999998  1.0000
  H   H19       1.0  0.57236  0.18718  0.91293  1.0000
  H   H20       1.0  0.54674  0.30733000000000005  0.7681499999999999  1.0000
  H   H21       1.0  0.03624000000000002  0.24171000000000004  0.94373  1.0000
  H   H22       1.0  0.95583  0.3351400000000002  0.9522099999999998  1.0000
  H   H23       1.0  0.8996700000000001  0.31329  0.1146  1.0000
  H   H24       1.0  0.92491  0.19349  0.25999  1.0000
  H   H25       1.0  0.7941100000000002  0.9783300000000004  0.46322999999999986  1.0000
  H   H26       1.0  0.6199700000000001  0.9052500000000001  0.54367  1.0000
  H   H27       1.0  0.58637  0.011930000000000067  0.6010899999999999  1.0000
  H   H28       1.0  0.73224  0.18384  0.57706  1.0000
  H   H29       1.0  0.5580399999999999  0.5214199999999999  0.68427  1.0000
  H   H30       1.0  0.5508000000000001  0.5943700000000001  0.7855099999999998  1.0000
  H   H31       1.0  0.38685  0.48773000000000005  0.92567  1.0000
  H   H32       1.0  0.23901  0.316  0.95146  1.0000
  Pb  Pb1       1.0  0.3318600000000001  0.49045  0.4892699999999999  1.0000
  Pb  Pb2       1.0  0.020250000000000105  0.00896000000000019  0.6590999999999998  1.0000
  Pb  Pb3       1.0  0.01104000000000004  0.6769300000000001  0.4791499999999999  1.0000
  Pb  Pb4       1.0  0.8439100000000002  0.8234800000000001  0.16581  1.0000
  Pb  Pb5       1.0  0.66811  0.5095700000000001  0.5107599999999999  1.0000
  Pb  Pb6       1.0  0.9797099999999999  0.99099  0.3409199999999999  1.0000
  Pb  Pb7       1.0  0.98891  0.32297999999999993  0.52083  1.0000
  Pb  Pb8       1.0  0.15606000000000014  0.17644000000000018  0.8341899999999998  1.0000
  C   C1        1.0  0.9997400000000001  0.47819  0.67732  1.0000
  C   C2        1.0  0.08808000000000019  0.5125700000000003  0.6040699999999999  1.0000
  C   C3        1.0  0.1496000000000001  0.4725300000000001  0.6187999999999999  1.0000
  C   C4        1.0  0.20399000000000006  0.6025200000000002  0.46114  1.0000
  C   C5        1.0  0.14545  0.37732  0.70194  1.0000
  C   C6        1.0  0.26396000000000014  0.6664300000000001  0.35614999999999997  1.0000
  C   C7        1.0  0.24525000000000002  0.73259  0.27913  1.0000
  C   C8        1.0  0.30345  0.78565  0.18102  1.0000
  C   C9        1.0  0.38018  0.77288  0.16236  1.0000
  C   C10       1.0  0.39463  0.70546  0.24292  1.0000
  C   C11       1.0  0.8441200000000002  0.02206000000000009  0.97805  1.0000
  C   C12       1.0  0.8827900000000001  0.9872200000000001  0.92442  1.0000
  C   C13       1.0  0.90808  0.02712000000000012  0.8230299999999998  1.0000
  C   C14       1.0  0.9360700000000001  0.8972600000000001  0.8985999999999997  1.0000
  C   C15       1.0  0.9203500000000002  0.12250000000000001  0.7320399999999999  1.0000
  C   C16       1.0  0.9773600000000001  0.8333700000000002  0.90259  1.0000
  C   C17       1.0  0.9884400000000001  0.76734  0.9873099999999999  1.0000
  C   C18       1.0  0.03359000000000015  0.7141900000000001  0.98222  1.0000
  C   C19       1.0  0.06489999999999999  0.7267  0.89295  1.0000
  C   C20       1.0  0.05146999999999996  0.7939399999999999  0.81125  1.0000
  C   C21       1.0  0.8235100000000001  0.8243500000000001  0.65513  1.0000
  C   C22       1.0  0.8960700000000005  0.8091000000000002  0.6157499999999998  1.0000
  C   C23       1.0  0.8808300000000001  0.7328600000000001  0.5894299999999999  1.0000
  C   C24       1.0  0.03848000000000005  0.8351400000000001  0.56301  1.0000
  C   C25       1.0  0.79735  0.6544000000000001  0.57671  1.0000
  C   C26       1.0  0.14375000000000007  0.8805800000000001  0.5220999999999999  1.0000
  C   C27       1.0  0.22130000000000008  0.9771100000000001  0.5116999999999999  1.0000
  C   C28       1.0  0.3198000000000001  0.01789000000000006  0.46644999999999986  1.0000
  C   C29       1.0  0.3381799999999999  0.95978  0.43434  1.0000
  C   C30       1.0  0.25702  0.86387  0.4471499999999999  1.0000
  C   C31       1.0  0.52069  0.6757500000000002  0.50068  1.0000
  C   C32       1.0  0.5751700000000001  0.69099  0.41290999999999994  1.0000
  C   C33       1.0  0.67765  0.76752  0.35176  1.0000
  C   C34       1.0  0.60194  0.66501  0.29664  1.0000
  C   C35       1.0  0.7689200000000002  0.8462800000000001  0.35641  1.0000
  C   C36       1.0  0.5975400000000001  0.6195800000000001  0.23686999999999994  1.0000
  C   C37       1.0  0.51147  0.52308  0.25579  1.0000
  C   C38       1.0  0.5159000000000005  0.48238000000000014  0.19801999999999995  1.0000
  C   C39       1.0  0.60604  0.54046  0.12158999999999998  1.0000
  C   C40       1.0  0.68912  0.6362700000000002  0.10697  1.0000
  C   C41       1.0  0.0002000000000000672  0.5217300000000001  0.32268999999999987  1.0000
  C   C42       1.0  0.9118400000000001  0.4873400000000001  0.3959199999999999  1.0000
  C   C43       1.0  0.85036  0.52744  0.3811999999999999  1.0000
  C   C44       1.0  0.79594  0.39743  0.5388599999999999  1.0000
  C   C45       1.0  0.8545300000000002  0.6227000000000001  0.29805999999999994  1.0000
  C   C46       1.0  0.7359900000000003  0.33352000000000015  0.6438499999999998  1.0000
  C   C47       1.0  0.75472  0.26739999999999997  0.72088  1.0000
  C   C48       1.0  0.6965300000000002  0.21433000000000013  0.8189899999999998  1.0000
  C   C49       1.0  0.6198200000000003  0.22714000000000006  0.83766  1.0000
  C   C50       1.0  0.60536  0.29456999999999994  0.75708  1.0000
  C   C51       1.0  0.15596  0.978  0.021989999999999996  1.0000
  C   C52       1.0  0.11730000000000004  0.012870000000000013  0.07559999999999997  1.0000
  C   C53       1.0  0.09198000000000012  0.9729700000000002  0.17698999999999998  1.0000
  C   C54       1.0  0.06397  0.10281000000000001  0.1014  1.0000
  C   C55       1.0  0.07970000000000001  0.87761  0.26797  1.0000
  C   C56       1.0  0.022640000000000014  0.16667  0.09741  1.0000
  C   C57       1.0  0.011520000000000013  0.23266000000000003  0.0127  1.0000
  C   C58       1.0  0.9664  0.28584  0.017789999999999997  1.0000
  C   C59       1.0  0.93505  0.27328  0.10707999999999998  1.0000
  C   C60       1.0  0.94845  0.20601  0.18879  1.0000
  C   C61       1.0  0.17644  0.17538000000000004  0.3451299999999999  1.0000
  C   C62       1.0  0.10390000000000005  0.19069000000000003  0.3844199999999999  1.0000
  C   C63       1.0  0.11918000000000009  0.2670000000000002  0.4106499999999999  1.0000
  C   C64       1.0  0.96153  0.16477000000000008  0.4370399999999999  1.0000
  C   C65       1.0  0.20267  0.34549  0.4233599999999999  1.0000
  C   C66       1.0  0.8562800000000003  0.11936999999999999  0.47790999999999995  1.0000
  C   C67       1.0  0.7787299999999999  0.022870000000000012  0.48827  1.0000
  C   C68       1.0  0.68024  0.98211  0.53354  1.0000
  C   C69       1.0  0.66187  0.04023999999999994  0.56561  1.0000
  C   C70       1.0  0.7430200000000001  0.1361400000000001  0.5527899999999999  1.0000
  C   C71       1.0  0.47929000000000005  0.32433000000000006  0.49924  1.0000
  C   C72       1.0  0.42483000000000026  0.3091200000000001  0.5869999999999999  1.0000
  C   C73       1.0  0.3223599999999999  0.23252999999999993  0.64818  1.0000
  C   C74       1.0  0.3980400000000002  0.33501000000000025  0.7033299999999998  1.0000
  C   C75       1.0  0.23111000000000004  0.15374000000000004  0.6435299999999999  1.0000
  C   C76       1.0  0.4024400000000002  0.38043000000000005  0.7631  1.0000
  C   C77       1.0  0.4885399999999999  0.47690999999999995  0.74418  1.0000
  C   C78       1.0  0.48410000000000003  0.5176100000000001  0.8019499999999998  1.0000
  C   C79       1.0  0.3939800000000001  0.4595200000000002  0.8783999999999997  1.0000
  C   C80       1.0  0.3109100000000002  0.3637000000000002  0.8930299999999998  1.0000
  N   N1        1.0  0.1232500000000001  0.594  0.5040099999999998  1.0000
  N   N2        1.0  0.22181000000000012  0.5321700000000001  0.52871  1.0000
  N   N3        1.0  0.33783000000000013  0.65246  0.33757  1.0000
  N   N4        1.0  0.9016100000000001  0.9058200000000001  0.9706999999999999  1.0000
  N   N5        1.0  0.93871  0.9674800000000001  0.81053  1.0000
  N   N6        1.0  0.009779999999999909  0.8470799999999999  0.81498  1.0000
  N   N7        1.0  0.9961099999999999  0.8731100000000002  0.59824  1.0000
  N   N8        1.0  0.9705200000000002  0.75026  0.55885  1.0000
  N   N9        1.0  0.16205999999999995  0.8252  0.4890299999999999  1.0000
  N   N10       1.0  0.52877  0.6267399999999999  0.37708  1.0000
  N   N11       1.0  0.69085  0.75022  0.27949999999999997  1.0000
  N   N12       1.0  0.68594  0.67493  0.16327  1.0000
  N   N13       1.0  0.8766700000000001  0.40590999999999994  0.49598  1.0000
  N   N14       1.0  0.77819  0.46785  0.47129999999999994  1.0000
  N   N15       1.0  0.6621300000000001  0.34750999999999993  0.66244  1.0000
  N   N16       1.0  0.09844  0.09423  0.02931  1.0000
  N   N17       1.0  0.06129  0.032569999999999995  0.18948  1.0000
  N   N18       1.0  0.99019  0.15292000000000003  0.18503999999999998  1.0000
  N   N19       1.0  0.003850000000000018  0.12671000000000002  0.40191  1.0000
  N   N20       1.0  0.029520000000000008  0.24971  0.44113  1.0000
  N   N21       1.0  0.83798  0.17476999999999998  0.51095  1.0000
  N   N22       1.0  0.4712200000000001  0.37335000000000007  0.62285  1.0000
  N   N23       1.0  0.30915  0.24972999999999998  0.72051  1.0000
  N   N24       1.0  0.31406000000000006  0.3250600000000002  0.8367199999999998  1.0000
  O   O1        1.0  0.9520200000000001  0.5246500000000002  0.6469399999999998  1.0000
  O   O2        1.0  0.9711400000000002  0.4056000000000002  0.7679099999999998  1.0000
  O   O3        1.0  0.08396000000000008  0.31791000000000014  0.78906  1.0000
  O   O4        1.0  0.20877  0.35809  0.67656  1.0000
  O   O5        1.0  0.82798  0.97567  0.07208999999999999  1.0000
  O   O6        1.0  0.82653  0.09512999999999995  0.93382  1.0000
  O   O7        1.0  0.89263  0.1820300000000001  0.7341099999999998  1.0000
  O   O8        1.0  0.9651900000000004  0.1418500000000002  0.6496399999999998  1.0000
  O   O9        1.0  0.8547300000000002  0.9031599999999999  0.67155  1.0000
  O   O10       1.0  0.7326800000000002  0.76221  0.6736  1.0000
  O   O11       1.0  0.71087  0.63041  0.60332  1.0000
  O   O12       1.0  0.82286  0.61633  0.5323  1.0000
  O   O13       1.0  0.42552000000000006  0.5968500000000001  0.54839  1.0000
  O   O14       1.0  0.5644699999999999  0.7379399999999999  0.5293  1.0000
  O   O15       1.0  0.7664800000000003  0.87049  0.41868  1.0000
  O   O16       1.0  0.8513500000000003  0.88445  0.29271  1.0000
  O   O17       1.0  0.04786000000000004  0.4751800000000001  0.3530899999999999  1.0000
  O   O18       1.0  0.02883000000000004  0.59437  0.23212999999999998  1.0000
  O   O19       1.0  0.9160199999999998  0.6821400000000001  0.21093999999999993  1.0000
  O   O20       1.0  0.7912100000000002  0.64189  0.32351  1.0000
  O   O21       1.0  0.1721900000000002  0.02443000000000014  0.9279299999999998  1.0000
  O   O22       1.0  0.1735100000000001  0.9049100000000002  0.06625999999999999  1.0000
  O   O23       1.0  0.10751000000000002  0.81813  0.26591999999999993  1.0000
  O   O24       1.0  0.03476000000000004  0.8581500000000001  0.35038999999999987  1.0000
  O   O25       1.0  0.14519  0.09647000000000003  0.32882  1.0000
  O   O26       1.0  0.2672800000000002  0.2374800000000001  0.32667  1.0000
  O   O27       1.0  0.2891500000000003  0.36949000000000015  0.3967499999999999  1.0000
  O   O28       1.0  0.17718  0.38362  0.46773  1.0000
  O   O29       1.0  0.57446  0.40324  0.45153  1.0000
  O   O30       1.0  0.43551  0.26214000000000004  0.47061  1.0000
  O   O31       1.0  0.23359000000000002  0.12954  0.58125  1.0000
  O   O32       1.0  0.14867000000000005  0.11552000000000001  0.70725  1.0000
