data_image0
_chemical_formula_structural       Cd8H64C96N16O32
_chemical_formula_sum              "Cd8 H64 C96 N16 O32"
_cell_length_a       12.59493
_cell_length_b       15.32169
_cell_length_c       19.35568
_cell_angle_alpha    89.91178
_cell_angle_beta     89.93188
_cell_angle_gamma    90.16652

_symmetry_space_group_name_H-M    'P 1'
_symmetry_Int_Tables_number       1

loop_
  _symmetry_equiv_pos_as_xyz
  'x,y,z'

loop_
  _atom_site_type_symbol
  _atom_site_label
  _atom_site_symmetry_multiplicity
  _atom_site_fract_x
  _atom_site_fract_y
  _atom_site_fract_z
  _atom_site_occupancy
  Cd  Cd1       1.0  0.17867999999999998  0.21909  0.32383999999999996  1.0000
  Cd  Cd2       1.0  0.32082  0.78175  0.82534  1.0000
  Cd  Cd3       1.0  0.82001  0.7183100000000002  0.17561999999999994  1.0000
  Cd  Cd4       1.0  0.6781  0.28276  0.67394  1.0000
  Cd  Cd5       1.0  0.82132  0.7809100000000002  0.67617  1.0000
  Cd  Cd6       1.0  0.67917  0.21825  0.17465999999999995  1.0000
  Cd  Cd7       1.0  0.17999  0.2816900000000001  0.82439  1.0000
  Cd  Cd8       1.0  0.32189999999999996  0.7172400000000002  0.32606  1.0000
  H   H1        1.0  0.3823  0.39006000000000013  0.49172999999999994  1.0000
  H   H2        1.0  0.51166  0.39888  0.59121  1.0000
  H   H3        1.0  0.64123  0.15894  0.54183  1.0000
  H   H4        1.0  0.51319  0.13893000000000003  0.44209  1.0000
  H   H5        1.0  0.21007999999999996  0.42692000000000013  0.3357299999999999  1.0000
  H   H6        1.0  0.11026  0.56419  0.30976  1.0000
  H   H7        1.0  0.90256  0.41061  0.18006  1.0000
  H   H8        1.0  0.00849  0.2790800000000001  0.21324999999999997  1.0000
  H   H9        1.0  0.11579  0.61145  0.9921099999999999  1.0000
  H   H10       1.0  0.98709  0.6013300000000003  0.09192  1.0000
  H   H11       1.0  0.85627  0.8412700000000002  0.04409  1.0000
  H   H12       1.0  0.9835599999999999  0.86281  0.94404  1.0000
  H   H13       1.0  0.28757  0.57362  0.8359099999999999  1.0000
  H   H14       1.0  0.38700999999999997  0.4362700000000001  0.80947  1.0000
  H   H15       1.0  0.5959  0.5901000000000002  0.6803999999999999  1.0000
  H   H16       1.0  0.49034  0.72187  0.71383  1.0000
  H   H17       1.0  0.61595  0.8924400000000001  0.00717  1.0000
  H   H18       1.0  0.48746999999999996  0.89917  0.90726  1.0000
  H   H19       1.0  0.36041  0.65784  0.9570399999999999  1.0000
  H   H20       1.0  0.48744  0.63983  0.057399999999999986  1.0000
  H   H21       1.0  0.78923  0.92589  0.16373  1.0000
  H   H22       1.0  0.88952  0.06325  0.1892  1.0000
  H   H23       1.0  0.09745  0.91025  0.3188299999999999  1.0000
  H   H24       1.0  0.9911699999999999  0.7784400000000002  0.28599  1.0000
  H   H25       1.0  0.88322  0.11009  0.5077399999999999  1.0000
  H   H26       1.0  0.01103  0.10199000000000003  0.4072  1.0000
  H   H27       1.0  0.14065  0.3427600000000001  0.45541  1.0000
  H   H28       1.0  0.01373  0.3621800000000001  0.55583  1.0000
  H   H29       1.0  0.7108799999999998  0.07515000000000001  0.66332  1.0000
  H   H30       1.0  0.61303  0.93693  0.69103  1.0000
  H   H31       1.0  0.4033  0.0896  0.8195099999999998  1.0000
  H   H32       1.0  0.5077  0.22213000000000005  0.78497  1.0000
  H   H33       1.0  0.6177  0.6099400000000003  0.50827  1.0000
  H   H34       1.0  0.48834  0.60112  0.4087999999999999  1.0000
  H   H35       1.0  0.35877  0.84106  0.45816999999999997  1.0000
  H   H36       1.0  0.4868100000000001  0.86107  0.5579099999999999  1.0000
  H   H37       1.0  0.78992  0.57308  0.66428  1.0000
  H   H38       1.0  0.88974  0.4358100000000001  0.69024  1.0000
  H   H39       1.0  0.09744  0.58939  0.81994  1.0000
  H   H40       1.0  0.99151  0.72092  0.78675  1.0000
  H   H41       1.0  0.88421  0.38855  0.00789  1.0000
  H   H42       1.0  0.012909999999999998  0.39867000000000014  0.90808  1.0000
  H   H43       1.0  0.14372  0.15873  0.9559099999999999  1.0000
  H   H44       1.0  0.01644  0.13719000000000006  0.05596  1.0000
  H   H45       1.0  0.71243  0.4263800000000001  0.16409  1.0000
  H   H46       1.0  0.61299  0.5637300000000002  0.19052999999999998  1.0000
  H   H47       1.0  0.4041  0.4099  0.3196099999999999  1.0000
  H   H48       1.0  0.50965  0.2781300000000001  0.28617  1.0000
  H   H49       1.0  0.38405  0.10756000000000003  0.99283  1.0000
  H   H50       1.0  0.51253  0.10083000000000003  0.09274  1.0000
  H   H51       1.0  0.63958  0.34216000000000013  0.04296  1.0000
  H   H52       1.0  0.51256  0.3601700000000001  0.9426099999999998  1.0000
  H   H53       1.0  0.21076999999999999  0.07411000000000002  0.83627  1.0000
  H   H54       1.0  0.11048  0.9367500000000002  0.8108  1.0000
  H   H55       1.0  0.90255  0.08975000000000002  0.68118  1.0000
  H   H56       1.0  0.00883  0.22156000000000006  0.71401  1.0000
  H   H57       1.0  0.11677  0.8899100000000002  0.49226  1.0000
  H   H58       1.0  0.98897  0.8980100000000001  0.5928  1.0000
  H   H59       1.0  0.85935  0.65724  0.5446  1.0000
  H   H60       1.0  0.9862699999999999  0.6378200000000002  0.44416999999999995  1.0000
  H   H61       1.0  0.28912  0.9248500000000002  0.3366799999999999  1.0000
  H   H62       1.0  0.38697  0.06307  0.30896999999999997  1.0000
  H   H63       1.0  0.5967  0.9104000000000002  0.18048999999999996  1.0000
  H   H64       1.0  0.4923  0.7778800000000002  0.21503  1.0000
  C   C1        1.0  0.35586999999999996  0.25367  0.40449  1.0000
  C   C2        1.0  0.4383  0.26337  0.46021  1.0000
  C   C3        1.0  0.43863  0.3379500000000001  0.5019  1.0000
  C   C4        1.0  0.50972  0.34283  0.5566899999999999  1.0000
  C   C5        1.0  0.58169  0.20781000000000005  0.5291  1.0000
  C   C6        1.0  0.51202  0.19743000000000005  0.47388  1.0000
  C   C7        1.0  0.1412  0.4260800000000001  0.30199999999999994  1.0000
  C   C8        1.0  0.08574  0.5023200000000002  0.28712  1.0000
  C   C9        1.0  0.99736  0.49776  0.24348999999999998  1.0000
  C   C10       1.0  0.9696  0.41693000000000013  0.21512  1.0000
  C   C11       1.0  0.02874  0.34361  0.23249  1.0000
  C   C12       1.0  0.93483  0.57856  0.22644999999999998  1.0000
  C   C13       1.0  0.14313  0.75023  0.9063  1.0000
  C   C14       1.0  0.05996  0.7388  0.9615699999999999  1.0000
  C   C15       1.0  0.0596  0.6635200000000002  0.0026999999999999993  1.0000
  C   C16       1.0  0.98866  0.6577900000000001  0.05768  1.0000
  C   C17       1.0  0.91606  0.7928200000000002  0.03094  1.0000
  C   C18       1.0  0.98552  0.8040500000000003  0.9756  1.0000
  C   C19       1.0  0.35658  0.5745900000000003  0.80217  1.0000
  C   C20       1.0  0.41181  0.49830000000000013  0.78709  1.0000
  C   C21       1.0  0.50045  0.50289  0.7435299999999999  1.0000
  C   C22       1.0  0.52859  0.5838600000000003  0.71536  1.0000
  C   C23       1.0  0.46964  0.65724  0.73287  1.0000
  C   C24       1.0  0.56257  0.42186  0.7263599999999999  1.0000
  C   C25       1.0  0.6437999999999999  0.7554100000000002  0.09463999999999999  1.0000
  C   C26       1.0  0.56148  0.7648400000000002  0.038869999999999995  1.0000
  C   C27       1.0  0.56043  0.83948  0.99709  1.0000
  C   C28       1.0  0.48978  0.8432900000000002  0.94201  1.0000
  C   C29       1.0  0.41915  0.7075200000000003  0.9697899999999998  1.0000
  C   C30       1.0  0.48829000000000006  0.6981800000000002  0.02534  1.0000
  C   C31       1.0  0.85814  0.92516  0.19743  1.0000
  C   C32       1.0  0.91396  0.00148  0.212  1.0000
  C   C33       1.0  0.0026000000000000007  0.9971800000000002  0.25544  1.0000
  C   C34       1.0  0.03024  0.91642  0.28391999999999995  1.0000
  C   C35       1.0  0.97076  0.84293  0.26677  1.0000
  C   C36       1.0  0.06479  0.07860000000000003  0.27203  1.0000
  C   C37       1.0  0.85615  0.24782  0.5938699999999999  1.0000
  C   C38       1.0  0.93852  0.23764000000000005  0.5381599999999999  1.0000
  C   C39       1.0  0.93885  0.16276  0.49683  1.0000
  C   C40       1.0  0.00934  0.15815000000000007  0.44159  1.0000
  C   C41       1.0  0.0813  0.2936100000000001  0.46843999999999997  1.0000
  C   C42       1.0  0.01215  0.3037700000000001  0.52398  1.0000
  C   C43       1.0  0.6421499999999999  0.07559000000000003  0.6972899999999999  1.0000
  C   C44       1.0  0.58771  0.9988600000000001  0.71303  1.0000
  C   C45       1.0  0.49909999999999993  0.0029100000000000003  0.7566399999999999  1.0000
  C   C46       1.0  0.47048  0.08375  0.78443  1.0000
  C   C47       1.0  0.52879  0.15759000000000006  0.76628  1.0000
  C   C48       1.0  0.4373  0.9213500000000002  0.7736699999999999  1.0000
  C   C49       1.0  0.64413  0.74633  0.59551  1.0000
  C   C50       1.0  0.5617  0.7366300000000002  0.5397899999999999  1.0000
  C   C51       1.0  0.56137  0.66205  0.49810999999999994  1.0000
  C   C52       1.0  0.49028  0.65717  0.4433199999999999  1.0000
  C   C53       1.0  0.41831  0.7922  0.47089999999999993  1.0000
  C   C54       1.0  0.48798  0.8025700000000002  0.52612  1.0000
  C   C55       1.0  0.8588  0.5739200000000002  0.69801  1.0000
  C   C56       1.0  0.9142599999999999  0.49768  0.71289  1.0000
  C   C57       1.0  0.0026400000000000004  0.5022400000000001  0.7565099999999999  1.0000
  C   C58       1.0  0.030400000000000007  0.5830700000000002  0.7848899999999998  1.0000
  C   C59       1.0  0.97126  0.65639  0.76751  1.0000
  C   C60       1.0  0.06517  0.4214400000000002  0.77355  1.0000
  C   C61       1.0  0.8568699999999999  0.24977000000000005  0.09370999999999999  1.0000
  C   C62       1.0  0.9400299999999999  0.2612000000000001  0.03844  1.0000
  C   C63       1.0  0.9404  0.3364800000000001  0.9972999999999999  1.0000
  C   C64       1.0  0.01134  0.3422100000000001  0.94232  1.0000
  C   C65       1.0  0.08394  0.20718  0.96906  1.0000
  C   C66       1.0  0.014479999999999998  0.19595000000000007  0.0244  1.0000
  C   C67       1.0  0.64341  0.42541000000000007  0.19782999999999998  1.0000
  C   C68       1.0  0.58819  0.5017  0.21290999999999996  1.0000
  C   C69       1.0  0.49954  0.49711  0.25646999999999986  1.0000
  C   C70       1.0  0.47141  0.4161400000000001  0.28465  1.0000
  C   C71       1.0  0.53036  0.3427600000000001  0.26713  1.0000
  C   C72       1.0  0.43743  0.57814  0.27364  1.0000
  C   C73       1.0  0.35619  0.24459  0.90536  1.0000
  C   C74       1.0  0.43852  0.23516  0.96113  1.0000
  C   C75       1.0  0.43956  0.16052  0.00291  1.0000
  C   C76       1.0  0.51022  0.15671000000000004  0.05799  1.0000
  C   C77       1.0  0.58085  0.29248  0.030209999999999997  1.0000
  C   C78       1.0  0.5117  0.3018200000000001  0.97467  1.0000
  C   C79       1.0  0.14186  0.07484  0.80258  1.0000
  C   C80       1.0  0.08603  0.99852  0.7880099999999999  1.0000
  C   C81       1.0  0.9973999999999998  0.00282  0.74456  1.0000
  C   C82       1.0  0.9697599999999998  0.08358  0.7160899999999999  1.0000
  C   C83       1.0  0.029229999999999996  0.15707  0.73323  1.0000
  C   C84       1.0  0.93521  0.9214000000000002  0.7279699999999998  1.0000
  C   C85       1.0  0.14385  0.7521800000000002  0.4061299999999999  1.0000
  C   C86       1.0  0.06148  0.7623600000000001  0.46184  1.0000
  C   C87       1.0  0.06115  0.83724  0.50317  1.0000
  C   C88       1.0  0.99066  0.84185  0.55842  1.0000
  C   C89       1.0  0.9187  0.70639  0.53156  1.0000
  C   C90       1.0  0.98784  0.69623  0.47602  1.0000
  C   C91       1.0  0.35784  0.9244100000000002  0.30272  1.0000
  C   C92       1.0  0.41229  0.00114  0.28697  1.0000
  C   C93       1.0  0.50089  0.9970900000000003  0.24336  1.0000
  C   C94       1.0  0.52952  0.9162500000000002  0.21556999999999998  1.0000
  C   C95       1.0  0.47121  0.8424100000000002  0.23372999999999997  1.0000
  C   C96       1.0  0.5627  0.07865  0.22633  1.0000
  N   N1        1.0  0.57962  0.2786400000000001  0.57054  1.0000
  N   N2        1.0  0.11278  0.34749000000000013  0.27593  1.0000
  N   N3        1.0  0.91867  0.7216700000000003  0.07216  1.0000
  N   N4        1.0  0.38544  0.65332  0.7763199999999999  1.0000
  N   N5        1.0  0.42096  0.77812  0.9279999999999999  1.0000
  N   N6        1.0  0.88644  0.8466200000000003  0.22356  1.0000
  N   N7        1.0  0.07901  0.22267000000000006  0.42712  1.0000
  N   N8        1.0  0.61278  0.1542  0.7226499999999999  1.0000
  N   N9        1.0  0.42037  0.72136  0.4294599999999999  1.0000
  N   N10       1.0  0.8872199999999999  0.6525100000000003  0.72408  1.0000
  N   N11       1.0  0.08133  0.27834  0.92784  1.0000
  N   N12       1.0  0.61456  0.34668  0.22368  1.0000
  N   N13       1.0  0.57904  0.22188  0.072  1.0000
  N   N14       1.0  0.11356  0.15338000000000004  0.7764399999999998  1.0000
  N   N15       1.0  0.92099  0.7773300000000001  0.57289  1.0000
  N   N16       1.0  0.38722  0.8458000000000002  0.2773599999999999  1.0000
  O   O1        1.0  0.34204  0.17853  0.3779799999999999  1.0000
  O   O2        1.0  0.30121  0.32058  0.3889699999999999  1.0000
  O   O3        1.0  0.97318  0.6522000000000002  0.24286  1.0000
  O   O4        1.0  0.8465599999999999  0.5690500000000002  0.19429  1.0000
  O   O5        1.0  0.15927  0.82625  0.88199  1.0000
  O   O6        1.0  0.19633999999999996  0.68316  0.8888599999999998  1.0000
  O   O7        1.0  0.52383  0.3484100000000001  0.74283  1.0000
  O   O8        1.0  0.65095  0.4310600000000001  0.69403  1.0000
  O   O9        1.0  0.65688  0.6802700000000003  0.12156999999999998  1.0000
  O   O10       1.0  0.69886  0.82226  0.11007999999999998  1.0000
  O   O11       1.0  0.02677  0.15136  0.25366  1.0000
  O   O12       1.0  0.15205  0.07071  0.3057  1.0000
  O   O13       1.0  0.84077  0.32372000000000006  0.6186  1.0000
  O   O14       1.0  0.80292  0.18054  0.6110399999999999  1.0000
  O   O15       1.0  0.47637999999999997  0.8484300000000002  0.7570499999999999  1.0000
  O   O16       1.0  0.34876  0.9294500000000002  0.8058999999999997  1.0000
  O   O17       1.0  0.65796  0.82147  0.62202  1.0000
  O   O18       1.0  0.69879  0.67942  0.6110399999999999  1.0000
  O   O19       1.0  0.026819999999999997  0.3478  0.75715  1.0000
  O   O20       1.0  0.15344  0.4309500000000001  0.8057099999999998  1.0000
  O   O21       1.0  0.84073  0.17375  0.11801  1.0000
  O   O22       1.0  0.80365  0.31685  0.11114  1.0000
  O   O23       1.0  0.47616  0.6515900000000002  0.25717  1.0000
  O   O24       1.0  0.34905  0.56894  0.30597  1.0000
  O   O25       1.0  0.3431199999999999  0.31973  0.8784299999999999  1.0000
  O   O26       1.0  0.30114  0.17774  0.8899199999999999  1.0000
  O   O27       1.0  0.97322  0.8486400000000002  0.74634  1.0000
  O   O28       1.0  0.8479500000000001  0.9292900000000002  0.6943  1.0000
  O   O29       1.0  0.15922  0.6762800000000002  0.38141  1.0000
  O   O30       1.0  0.19708  0.8194600000000002  0.38895999999999986  1.0000
  O   O31       1.0  0.52362  0.15157  0.24295  1.0000
  O   O32       1.0  0.65124  0.07055000000000003  0.1941  1.0000
