data_image0
_chemical_formula_structural       Gd8H40C56S8O48
_chemical_formula_sum              "Gd8 H40 C56 S8 O48"
_cell_length_a       8.38321
_cell_length_b       17.2718
_cell_length_c       17.2718
_cell_angle_alpha    90.0
_cell_angle_beta     90.0
_cell_angle_gamma    90.0

_symmetry_space_group_name_H-M    'P 1'
_symmetry_Int_Tables_number       1

loop_
  _symmetry_equiv_pos_as_xyz
  'x,y,z'

loop_
  _atom_site_type_symbol
  _atom_site_label
  _atom_site_symmetry_multiplicity
  _atom_site_fract_x
  _atom_site_fract_y
  _atom_site_fract_z
  _atom_site_occupancy
  Gd  Gd1       1.0  0.84621  0.0359  0.89308  1.0000
  Gd  Gd2       1.0  0.84621  0.9641  0.10692  1.0000
  Gd  Gd3       1.0  0.15379  0.89308  0.9641  1.0000
  Gd  Gd4       1.0  0.15379  0.10692  0.0359  1.0000
  Gd  Gd5       1.0  0.6537900000000002  0.46410000000000007  0.39308  1.0000
  Gd  Gd6       1.0  0.6537900000000002  0.53589  0.60692  1.0000
  Gd  Gd7       1.0  0.34621000000000013  0.60692  0.46410000000000007  1.0000
  Gd  Gd8       1.0  0.34621000000000013  0.39308  0.53589  1.0000
  H   H1        1.0  0.5723  0.75551  0.75549  1.0000
  H   H2        1.0  0.31887  0.82749  0.5514  1.0000
  H   H3        1.0  0.24914000000000003  0.9531699999999999  0.61547  1.0000
  H   H4        1.0  0.34852  0.9804700000000001  0.7489  1.0000
  H   H5        1.0  0.80498  0.88321  0.9592500000000002  1.0000
  H   H6        1.0  0.5723  0.24448000000000003  0.24450000000000002  1.0000
  H   H7        1.0  0.31887  0.17251  0.44859  1.0000
  H   H8        1.0  0.24914000000000003  0.04682  0.38453  1.0000
  H   H9        1.0  0.34852  0.01952  0.2511  1.0000
  H   H10       1.0  0.80498  0.11678999999999999  0.04075  1.0000
  H   H11       1.0  0.4277  0.75549  0.24448000000000003  1.0000
  H   H12       1.0  0.68113  0.5514  0.17251  1.0000
  H   H13       1.0  0.75086  0.61547  0.04682  1.0000
  H   H14       1.0  0.65147  0.7489  0.01952  1.0000
  H   H15       1.0  0.19502  0.9592500000000002  0.11678999999999999  1.0000
  H   H16       1.0  0.4277  0.24450000000000002  0.75551  1.0000
  H   H17       1.0  0.68113  0.44859  0.82749  1.0000
  H   H18       1.0  0.75086  0.38453  0.9531699999999999  1.0000
  H   H19       1.0  0.65147  0.2511  0.9804700000000001  1.0000
  H   H20       1.0  0.19502  0.04075  0.88321  1.0000
  H   H21       1.0  0.9277000000000001  0.74448  0.25549  1.0000
  H   H22       1.0  0.18113  0.67251  0.0514  1.0000
  H   H23       1.0  0.25086  0.54682  0.11547  1.0000
  H   H24       1.0  0.15147  0.51952  0.24889999999999998  1.0000
  H   H25       1.0  0.6950100000000002  0.61679  0.45925  1.0000
  H   H26       1.0  0.9277000000000001  0.25552  0.7445  1.0000
  H   H27       1.0  0.18113  0.32749  0.94859  1.0000
  H   H28       1.0  0.25086  0.45318  0.88453  1.0000
  H   H29       1.0  0.15147  0.48047  0.7511  1.0000
  H   H30       1.0  0.6950100000000002  0.38321  0.54074  1.0000
  H   H31       1.0  0.0723  0.7445  0.74448  1.0000
  H   H32       1.0  0.8188700000000002  0.94859  0.67251  1.0000
  H   H33       1.0  0.7491400000000003  0.88453  0.54682  1.0000
  H   H34       1.0  0.84852  0.7511  0.51952  1.0000
  H   H35       1.0  0.3049800000000001  0.54074  0.61679  1.0000
  H   H36       1.0  0.0723  0.25549  0.25552  1.0000
  H   H37       1.0  0.8188700000000002  0.0514  0.32749  1.0000
  H   H38       1.0  0.7491400000000003  0.11547  0.45318  1.0000
  H   H39       1.0  0.84852  0.24889999999999998  0.48047  1.0000
  H   H40       1.0  0.3049800000000001  0.45925  0.38321  1.0000
  C   C1        1.0  0.46427000000000007  0.86915  0.75946  1.0000
  C   C2        1.0  0.50269  0.79881  0.72478  1.0000
  C   C3        1.0  0.45103  0.78484  0.64871  1.0000
  C   C4        1.0  0.49310000000000004  0.71126  0.60833  1.0000
  C   C5        1.0  0.35941  0.84041  0.60977  1.0000
  C   C6        1.0  0.32104  0.9104  0.64568  1.0000
  C   C7        1.0  0.37479  0.92563  0.72055  1.0000
  C   C8        1.0  0.46427000000000007  0.13085  0.24054  1.0000
  C   C9        1.0  0.50269  0.20119  0.27522  1.0000
  C   C10       1.0  0.45103  0.21516  0.35129  1.0000
  C   C11       1.0  0.49310000000000004  0.28874  0.39167  1.0000
  C   C12       1.0  0.35941  0.15958  0.39022  1.0000
  C   C13       1.0  0.32104  0.0896  0.35431  1.0000
  C   C14       1.0  0.37479  0.07436  0.27945  1.0000
  C   C15       1.0  0.53572  0.75946  0.13085  1.0000
  C   C16       1.0  0.49731  0.72478  0.20119  1.0000
  C   C17       1.0  0.54897  0.64871  0.21516  1.0000
  C   C18       1.0  0.5069  0.60833  0.28874  1.0000
  C   C19       1.0  0.64059  0.60977  0.15958  1.0000
  C   C20       1.0  0.67896  0.64568  0.0896  1.0000
  C   C21       1.0  0.6252100000000003  0.72055  0.07436  1.0000
  C   C22       1.0  0.53572  0.24054  0.86915  1.0000
  C   C23       1.0  0.49731  0.27522  0.79881  1.0000
  C   C24       1.0  0.54897  0.35129  0.78484  1.0000
  C   C25       1.0  0.5069  0.39167  0.71126  1.0000
  C   C26       1.0  0.64059  0.39022  0.84041  1.0000
  C   C27       1.0  0.67896  0.35431  0.9104  1.0000
  C   C28       1.0  0.6252100000000003  0.27945  0.92563  1.0000
  C   C29       1.0  0.03573  0.63085  0.25946  1.0000
  C   C30       1.0  0.99731  0.70118  0.22478  1.0000
  C   C31       1.0  0.04897  0.71516  0.14871  1.0000
  C   C32       1.0  0.006910000000000002  0.78873  0.10833  1.0000
  C   C33       1.0  0.14059  0.65958  0.10977  1.0000
  C   C34       1.0  0.17896000000000004  0.5896  0.14568  1.0000
  C   C35       1.0  0.12521  0.57436  0.22055  1.0000
  C   C36       1.0  0.03573  0.36915  0.74054  1.0000
  C   C37       1.0  0.99731  0.29881  0.77521  1.0000
  C   C38       1.0  0.04897  0.28484  0.85129  1.0000
  C   C39       1.0  0.006910000000000002  0.21126  0.89167  1.0000
  C   C40       1.0  0.14059  0.34041  0.89022  1.0000
  C   C41       1.0  0.17896000000000004  0.4104  0.85431  1.0000
  C   C42       1.0  0.12521  0.42563  0.77945  1.0000
  C   C43       1.0  0.9642700000000001  0.74054  0.63085  1.0000
  C   C44       1.0  0.00268  0.77521  0.70118  1.0000
  C   C45       1.0  0.95102  0.85129  0.71516  1.0000
  C   C46       1.0  0.99309  0.89167  0.78874  1.0000
  C   C47       1.0  0.8594100000000002  0.89022  0.65958  1.0000
  C   C48       1.0  0.82104  0.85431  0.5896  1.0000
  C   C49       1.0  0.87479  0.77945  0.57436  1.0000
  C   C50       1.0  0.9642700000000001  0.25946  0.36915  1.0000
  C   C51       1.0  0.00268  0.22478  0.29881  1.0000
  C   C52       1.0  0.95102  0.14871  0.28484  1.0000
  C   C53       1.0  0.99309  0.10833  0.21126  1.0000
  C   C54       1.0  0.8594100000000002  0.10977  0.34041  1.0000
  C   C55       1.0  0.82104  0.14568  0.4104  1.0000
  C   C56       1.0  0.87479  0.22055  0.42563  1.0000
  S   S1        1.0  0.53089  0.89193  0.85434  1.0000
  S   S2        1.0  0.53089  0.10806  0.14565  1.0000
  S   S3        1.0  0.46911  0.85434  0.10806  1.0000
  S   S4        1.0  0.46911  0.14565  0.89193  1.0000
  S   S5        1.0  0.9691000000000001  0.60806  0.35434  1.0000
  S   S6        1.0  0.9691000000000001  0.39193  0.64565  1.0000
  S   S7        1.0  0.03089  0.64565  0.60806  1.0000
  S   S8        1.0  0.03089  0.35434  0.39194  1.0000
  O   O1        1.0  0.64322  0.95779  0.84231  1.0000
  O   O2        1.0  0.3845800000000001  0.92151  0.89431  1.0000
  O   O3        1.0  0.60423  0.82415  0.89049  1.0000
  O   O4        1.0  0.55757  0.6568  0.64765  1.0000
  O   O5        1.0  0.46134  0.70682  0.53601  1.0000
  O   O6        1.0  0.87438  0.92656  0.97329  1.0000
  O   O7        1.0  0.64322  0.04221  0.15769  1.0000
  O   O8        1.0  0.3845800000000001  0.07849  0.10568  1.0000
  O   O9        1.0  0.60423  0.17584  0.10951  1.0000
  O   O10       1.0  0.55757  0.3432  0.35234  1.0000
  O   O11       1.0  0.46134  0.29318  0.46398999999999996  1.0000
  O   O12       1.0  0.87438  0.07344  0.02671  1.0000
  O   O13       1.0  0.35678  0.84231  0.04221  1.0000
  O   O14       1.0  0.61542  0.89431  0.07849  1.0000
  O   O15       1.0  0.3957700000000001  0.89049  0.17584  1.0000
  O   O16       1.0  0.44242  0.64765  0.3432  1.0000
  O   O17       1.0  0.53865  0.53601  0.29318  1.0000
  O   O18       1.0  0.12561  0.97329  0.07344  1.0000
  O   O19       1.0  0.35678  0.15769  0.95779  1.0000
  O   O20       1.0  0.61542  0.10568  0.92151  1.0000
  O   O21       1.0  0.3957700000000001  0.10951  0.82415  1.0000
  O   O22       1.0  0.44242  0.35234  0.6568  1.0000
  O   O23       1.0  0.53865  0.46398999999999996  0.70682  1.0000
  O   O24       1.0  0.12561  0.02671  0.92656  1.0000
  O   O25       1.0  0.8567800000000002  0.54221  0.34231  1.0000
  O   O26       1.0  0.11542000000000002  0.57849  0.39431  1.0000
  O   O27       1.0  0.8957700000000002  0.67584  0.39049  1.0000
  O   O28       1.0  0.94243  0.8432  0.14765  1.0000
  O   O29       1.0  0.03866000000000001  0.79318  0.03601  1.0000
  O   O30       1.0  0.62561  0.57344  0.47329000000000004  1.0000
  O   O31       1.0  0.8567800000000002  0.45779  0.65769  1.0000
  O   O32       1.0  0.11542000000000002  0.42151  0.60568  1.0000
  O   O33       1.0  0.8957700000000002  0.32415  0.60951  1.0000
  O   O34       1.0  0.94243  0.1568  0.85234  1.0000
  O   O35       1.0  0.03866000000000001  0.20682  0.9639900000000001  1.0000
  O   O36       1.0  0.62561  0.42656  0.52671  1.0000
  O   O37       1.0  0.14322000000000004  0.65769  0.54221  1.0000
  O   O38       1.0  0.8845800000000003  0.60568  0.57849  1.0000
  O   O39       1.0  0.10423  0.60951  0.67584  1.0000
  O   O40       1.0  0.05757  0.85234  0.8432  1.0000
  O   O41       1.0  0.96134  0.9639900000000001  0.79318  1.0000
  O   O42       1.0  0.37438  0.52671  0.57344  1.0000
  O   O43       1.0  0.14322000000000004  0.34231  0.45779  1.0000
  O   O44       1.0  0.8845800000000003  0.39431  0.42151  1.0000
  O   O45       1.0  0.10423  0.39049  0.32415  1.0000
  O   O46       1.0  0.05757  0.14765  0.1568  1.0000
  O   O47       1.0  0.96134  0.03601  0.20682  1.0000
  O   O48       1.0  0.37438  0.47329000000000004  0.42656  1.0000
