data_image0
_chemical_formula_structural       Cd8H72C80N24O32
_chemical_formula_sum              "Cd8 H72 C80 N24 O32"
_cell_length_a       13.17844
_cell_length_b       14.07737
_cell_length_c       19.075189999999996
_cell_angle_alpha    90.0
_cell_angle_beta     90.3035
_cell_angle_gamma    90.0

_symmetry_space_group_name_H-M    'P 1'
_symmetry_Int_Tables_number       1

loop_
  _symmetry_equiv_pos_as_xyz
  'x,y,z'

loop_
  _atom_site_type_symbol
  _atom_site_label
  _atom_site_symmetry_multiplicity
  _atom_site_fract_x
  _atom_site_fract_y
  _atom_site_fract_z
  _atom_site_occupancy
  Cd  Cd1       1.0  0.1413  0.55315  0.65976  1.0000
  Cd  Cd2       1.0  0.35869999999999996  0.55315  0.34024  1.0000
  Cd  Cd3       1.0  0.35757  0.05431  0.1602  1.0000
  Cd  Cd4       1.0  0.14242  0.05431  0.83981  1.0000
  Cd  Cd5       1.0  0.64243  0.94569  0.83981  1.0000
  Cd  Cd6       1.0  0.85758  0.94569  0.1602  1.0000
  Cd  Cd7       1.0  0.8587  0.44685  0.34024  1.0000
  Cd  Cd8       1.0  0.6413  0.44685  0.65976  1.0000
  H   H1        1.0  0.78199  0.15206  0.7286299999999999  1.0000
  H   H2        1.0  0.9094  0.04773  0.78595  1.0000
  H   H3        1.0  0.1338  0.2533  0.76825  1.0000
  H   H4        1.0  0.43301999999999996  0.96167  0.99853  1.0000
  H   H5        1.0  0.41033  0.87294  0.06292  1.0000
  H   H6        1.0  0.30771  0.08531  0.97588  1.0000
  H   H7        1.0  0.343  0.9629799999999998  0.8921799999999999  1.0000
  H   H8        1.0  0.25054  0.87305  0.8732199999999998  1.0000
  H   H9        1.0  0.21607  0.75167  0.9592999999999999  1.0000
  H   H10       1.0  0.7180099999999999  0.15206  0.27138  1.0000
  H   H11       1.0  0.5906  0.04773  0.21404999999999996  1.0000
  H   H12       1.0  0.3662  0.2533  0.23175  1.0000
  H   H13       1.0  0.06697  0.96167  0.00148  1.0000
  H   H14       1.0  0.08966999999999999  0.87294  0.9370799999999998  1.0000
  H   H15       1.0  0.19229  0.08531  0.02413  1.0000
  H   H16       1.0  0.157  0.9629799999999998  0.10781999999999997  1.0000
  H   H17       1.0  0.24946  0.87305  0.12679  1.0000
  H   H18       1.0  0.28392  0.75167  0.04069999999999999  1.0000
  H   H19       1.0  0.71662  0.6516499999999998  0.22804999999999997  1.0000
  H   H20       1.0  0.59035  0.54698  0.28554  1.0000
  H   H21       1.0  0.36612999999999996  0.75342  0.2694  1.0000
  H   H22       1.0  0.0669  0.46147  0.4974499999999999  1.0000
  H   H23       1.0  0.08989  0.37267  0.56196  1.0000
  H   H24       1.0  0.19225  0.5850999999999998  0.47546999999999995  1.0000
  H   H25       1.0  0.15677  0.46308999999999995  0.39178  1.0000
  H   H26       1.0  0.24893  0.37301  0.37314  1.0000
  H   H27       1.0  0.28381  0.25154  0.45952  1.0000
  H   H28       1.0  0.78338  0.6516499999999998  0.77196  1.0000
  H   H29       1.0  0.90965  0.54698  0.71446  1.0000
  H   H30       1.0  0.13387  0.75342  0.7306099999999999  1.0000
  H   H31       1.0  0.4331  0.46147  0.50256  1.0000
  H   H32       1.0  0.41011  0.37267  0.43803999999999993  1.0000
  H   H33       1.0  0.30774999999999997  0.5850999999999998  0.52454  1.0000
  H   H34       1.0  0.34323  0.46308999999999995  0.60822  1.0000
  H   H35       1.0  0.25107  0.37301  0.6268699999999998  1.0000
  H   H36       1.0  0.21618  0.25154  0.54048  1.0000
  H   H37       1.0  0.28338  0.34835  0.77196  1.0000
  H   H38       1.0  0.40964999999999996  0.4530199999999999  0.71446  1.0000
  H   H39       1.0  0.63387  0.24658  0.7306099999999999  1.0000
  H   H40       1.0  0.9331  0.53853  0.50256  1.0000
  H   H41       1.0  0.91011  0.62733  0.43803999999999993  1.0000
  H   H42       1.0  0.80775  0.4149  0.5245299999999999  1.0000
  H   H43       1.0  0.84323  0.53691  0.60822  1.0000
  H   H44       1.0  0.75107  0.62699  0.6268699999999998  1.0000
  H   H45       1.0  0.7161799999999999  0.74846  0.54048  1.0000
  H   H46       1.0  0.21662  0.34835  0.22804999999999997  1.0000
  H   H47       1.0  0.09035  0.4530199999999999  0.28554  1.0000
  H   H48       1.0  0.86613  0.24658  0.2694  1.0000
  H   H49       1.0  0.5669  0.53853  0.4974499999999999  1.0000
  H   H50       1.0  0.58989  0.62733  0.56196  1.0000
  H   H51       1.0  0.69225  0.4149  0.47546999999999995  1.0000
  H   H52       1.0  0.65677  0.53691  0.39178  1.0000
  H   H53       1.0  0.74893  0.62699  0.37314  1.0000
  H   H54       1.0  0.78382  0.74846  0.45952  1.0000
  H   H55       1.0  0.21801  0.84794  0.27138  1.0000
  H   H56       1.0  0.0906  0.95226  0.21404999999999996  1.0000
  H   H57       1.0  0.8662  0.7466999999999999  0.23175  1.0000
  H   H58       1.0  0.56698  0.03833  0.00148  1.0000
  H   H59       1.0  0.58967  0.12706  0.9370799999999998  1.0000
  H   H60       1.0  0.69229  0.91469  0.02413  1.0000
  H   H61       1.0  0.657  0.03702  0.10781999999999997  1.0000
  H   H62       1.0  0.74946  0.12695  0.12679  1.0000
  H   H63       1.0  0.78393  0.24833  0.04069999999999999  1.0000
  H   H64       1.0  0.28199  0.84794  0.7286299999999999  1.0000
  H   H65       1.0  0.4094  0.95226  0.78595  1.0000
  H   H66       1.0  0.6338  0.7466999999999999  0.76825  1.0000
  H   H67       1.0  0.93302  0.03833  0.99853  1.0000
  H   H68       1.0  0.9103299999999999  0.12706  0.06292  1.0000
  H   H69       1.0  0.80771  0.91469  0.97588  1.0000
  H   H70       1.0  0.843  0.03702  0.8921799999999999  1.0000
  H   H71       1.0  0.75054  0.12695  0.8732199999999998  1.0000
  H   H72       1.0  0.71608  0.24833  0.9592999999999999  1.0000
  C   C1        1.0  0.0352  0.88623  0.8052599999999999  1.0000
  C   C2        1.0  0.9919  0.79516  0.77679  1.0000
  C   C3        1.0  0.89  0.7681799999999999  0.78612  1.0000
  C   C4        1.0  0.8075  0.33511  0.68665  1.0000
  C   C5        1.0  0.8605799999999999  0.6770699999999998  0.76432  1.0000
  C   C6        1.0  0.93013  0.61844  0.7311199999999998  1.0000
  C   C7        1.0  0.055569999999999994  0.23273  0.75819  1.0000
  C   C8        1.0  0.12515  0.91633  0.97786  1.0000
  C   C9        1.0  0.21529  0.91662  0.08532999999999998  1.0000
  C   C10       1.0  0.4647899999999999  0.88623  0.19474  1.0000
  C   C11       1.0  0.5081  0.79516  0.22320999999999996  1.0000
  C   C12       1.0  0.6099999999999999  0.7681799999999999  0.21388  1.0000
  C   C13       1.0  0.6925  0.33511  0.31336  1.0000
  C   C14       1.0  0.63942  0.6770699999999998  0.23567999999999997  1.0000
  C   C15       1.0  0.56988  0.61844  0.26888  1.0000
  C   C16       1.0  0.44443  0.23273  0.24180999999999997  1.0000
  C   C17       1.0  0.37485  0.91633  0.02214  1.0000
  C   C18       1.0  0.28471  0.91662  0.91467  1.0000
  C   C19       1.0  0.46532  0.38573  0.30576  1.0000
  C   C20       1.0  0.50905  0.29495  0.27754999999999996  1.0000
  C   C21       1.0  0.61139  0.26845  0.28672  1.0000
  C   C22       1.0  0.69086  0.83397  0.18677999999999995  1.0000
  C   C23       1.0  0.64056  0.17755  0.26442  1.0000
  C   C24       1.0  0.57043  0.11901  0.23112  1.0000
  C   C25       1.0  0.4440699999999999  0.73283  0.25897  1.0000
  C   C26       1.0  0.37481999999999993  0.41613  0.47863  1.0000
  C   C27       1.0  0.28492  0.41656  0.58552  1.0000
  C   C28       1.0  0.03468  0.38573  0.69425  1.0000
  C   C29       1.0  0.99095  0.29495  0.7224499999999998  1.0000
  C   C30       1.0  0.88861  0.26845  0.71328  1.0000
  C   C31       1.0  0.80914  0.83397  0.81322  1.0000
  C   C32       1.0  0.8594399999999999  0.17755  0.73558  1.0000
  C   C33       1.0  0.92957  0.11901  0.76888  1.0000
  C   C34       1.0  0.05593  0.73283  0.74103  1.0000
  C   C35       1.0  0.12518  0.41613  0.52138  1.0000
  C   C36       1.0  0.21508  0.41656  0.4144799999999999  1.0000
  C   C37       1.0  0.25  0.03998  0.0  1.0000
  C   C38       1.0  0.25  0.79689  0.0  1.0000
  C   C39       1.0  0.25  0.5398  0.4999999999999999  1.0000
  C   C40       1.0  0.25  0.29677  0.4999999999999999  1.0000
  C   C41       1.0  0.53468  0.6142699999999999  0.69425  1.0000
  C   C42       1.0  0.49094999999999994  0.70504  0.7224499999999998  1.0000
  C   C43       1.0  0.38861  0.73155  0.71328  1.0000
  C   C44       1.0  0.30913  0.16602999999999998  0.81322  1.0000
  C   C45       1.0  0.35944  0.82245  0.73558  1.0000
  C   C46       1.0  0.42957  0.88099  0.76888  1.0000
  C   C47       1.0  0.55593  0.26717  0.74103  1.0000
  C   C48       1.0  0.6251799999999998  0.58387  0.52138  1.0000
  C   C49       1.0  0.7150799999999999  0.58344  0.4144799999999999  1.0000
  C   C50       1.0  0.96532  0.6142699999999999  0.30576  1.0000
  C   C51       1.0  0.00905  0.70504  0.27754999999999996  1.0000
  C   C52       1.0  0.11138  0.73155  0.28672  1.0000
  C   C53       1.0  0.19085999999999997  0.16602999999999998  0.18677999999999995  1.0000
  C   C54       1.0  0.14055  0.82245  0.26442  1.0000
  C   C55       1.0  0.07043  0.88099  0.23112  1.0000
  C   C56       1.0  0.94407  0.26717  0.25897  1.0000
  C   C57       1.0  0.87482  0.58387  0.47863  1.0000
  C   C58       1.0  0.78492  0.58344  0.58552  1.0000
  C   C59       1.0  0.9647999999999999  0.11377  0.19474  1.0000
  C   C60       1.0  0.0081  0.20483  0.22320999999999996  1.0000
  C   C61       1.0  0.10999999999999999  0.23181999999999997  0.21388  1.0000
  C   C62       1.0  0.19249999999999998  0.66489  0.31336  1.0000
  C   C63       1.0  0.13942  0.32293  0.23567999999999997  1.0000
  C   C64       1.0  0.06987  0.38156  0.26888  1.0000
  C   C65       1.0  0.94443  0.76727  0.24180999999999997  1.0000
  C   C66       1.0  0.87485  0.08366999999999997  0.02214  1.0000
  C   C67       1.0  0.78471  0.08338  0.91467  1.0000
  C   C68       1.0  0.53521  0.11377  0.8052599999999999  1.0000
  C   C69       1.0  0.4919  0.20483  0.77679  1.0000
  C   C70       1.0  0.38999  0.23181999999999997  0.78612  1.0000
  C   C71       1.0  0.3075  0.66489  0.68665  1.0000
  C   C72       1.0  0.36058  0.32293  0.76432  1.0000
  C   C73       1.0  0.43012  0.38156  0.7311199999999998  1.0000
  C   C74       1.0  0.55557  0.76727  0.75819  1.0000
  C   C75       1.0  0.62515  0.08366999999999997  0.97786  1.0000
  C   C76       1.0  0.71529  0.08338  0.08532999999999998  1.0000
  C   C77       1.0  0.75  0.4602  0.4999999999999999  1.0000
  C   C78       1.0  0.75  0.70323  0.4999999999999999  1.0000
  C   C79       1.0  0.75  0.96002  0.0  1.0000
  C   C80       1.0  0.75  0.20311  0.0  1.0000
  N   N1        1.0  0.02606  0.64702  0.71748  1.0000
  N   N2        1.0  0.20291999999999996  0.97953  0.94441  1.0000
  N   N3        1.0  0.16997  0.85602  0.03181  1.0000
  N   N4        1.0  0.47393  0.64702  0.28252  1.0000
  N   N5        1.0  0.29708  0.97953  0.05559999999999999  1.0000
  N   N6        1.0  0.33003  0.85602  0.96819  1.0000
  N   N7        1.0  0.47406  0.14722  0.21785999999999997  1.0000
  N   N8        1.0  0.29703  0.4793  0.44471  1.0000
  N   N9        1.0  0.33013999999999993  0.35585  0.53234  1.0000
  N   N10       1.0  0.02593  0.14722  0.7821399999999997  1.0000
  N   N11       1.0  0.20297  0.4793  0.55529  1.0000
  N   N12       1.0  0.16986  0.35585  0.46766999999999986  1.0000
  N   N13       1.0  0.52593  0.85277  0.7821399999999997  1.0000
  N   N14       1.0  0.70297  0.5207  0.55529  1.0000
  N   N15       1.0  0.66986  0.6441499999999999  0.46766999999999986  1.0000
  N   N16       1.0  0.97407  0.85277  0.21785999999999997  1.0000
  N   N17       1.0  0.7970299999999999  0.5207  0.44471  1.0000
  N   N18       1.0  0.83014  0.6441499999999999  0.53234  1.0000
  N   N19       1.0  0.97394  0.35297999999999996  0.28252  1.0000
  N   N20       1.0  0.79708  0.02047  0.05559999999999999  1.0000
  N   N21       1.0  0.83003  0.14398  0.96819  1.0000
  N   N22       1.0  0.52606  0.35297999999999996  0.71748  1.0000
  N   N23       1.0  0.70292  0.02047  0.94441  1.0000
  N   N24       1.0  0.66997  0.14398  0.03181  1.0000
  O   O1        1.0  0.12432999999999998  0.90945  0.78421  1.0000
  O   O2        1.0  0.98486  0.43319  0.64933  1.0000
  O   O3        1.0  0.7576199999999998  0.31348999999999994  0.63193  1.0000
  O   O4        1.0  0.78775  0.40604  0.7259  1.0000
  O   O5        1.0  0.37567  0.90945  0.2158  1.0000
  O   O6        1.0  0.51514  0.43319  0.35067  1.0000
  O   O7        1.0  0.74238  0.31348999999999994  0.36807  1.0000
  O   O8        1.0  0.71225  0.40604  0.27411  1.0000
  O   O9        1.0  0.37624  0.40898  0.28405  1.0000
  O   O10       1.0  0.51486  0.9335299999999997  0.1502  1.0000
  O   O11       1.0  0.73855  0.81082  0.13188  1.0000
  O   O12       1.0  0.71267  0.90495  0.22573999999999994  1.0000
  O   O13       1.0  0.12375999999999998  0.40898  0.71595  1.0000
  O   O14       1.0  0.98514  0.9335299999999997  0.8497999999999999  1.0000
  O   O15       1.0  0.76145  0.81082  0.8681299999999998  1.0000
  O   O16       1.0  0.78733  0.90495  0.7742599999999997  1.0000
  O   O17       1.0  0.6237599999999999  0.59102  0.71595  1.0000
  O   O18       1.0  0.48514  0.06646  0.8497999999999999  1.0000
  O   O19       1.0  0.26145  0.18917999999999996  0.8681299999999998  1.0000
  O   O20       1.0  0.28733  0.09505  0.7742599999999997  1.0000
  O   O21       1.0  0.87624  0.59102  0.28405  1.0000
  O   O22       1.0  0.014859999999999998  0.06646  0.1502  1.0000
  O   O23       1.0  0.23855  0.18917999999999996  0.13188  1.0000
  O   O24       1.0  0.21267  0.09505  0.22575  1.0000
  O   O25       1.0  0.87567  0.09054999999999999  0.2158  1.0000
  O   O26       1.0  0.015139999999999999  0.56681  0.35067  1.0000
  O   O27       1.0  0.24238  0.68651  0.36807  1.0000
  O   O28       1.0  0.21225  0.59396  0.27411  1.0000
  O   O29       1.0  0.62433  0.09054999999999999  0.78421  1.0000
  O   O30       1.0  0.48486  0.56681  0.64933  1.0000
  O   O31       1.0  0.25762  0.68651  0.63193  1.0000
  O   O32       1.0  0.28775  0.59396  0.7259  1.0000
