data_image0
_chemical_formula_structural       Eu4H64C100N12O24
_chemical_formula_sum              "Eu4 H64 C100 N12 O24"
_cell_length_a       8.90536
_cell_length_b       10.91553
_cell_length_c       31.437319999999996
_cell_angle_alpha    87.43231
_cell_angle_beta     81.69179
_cell_angle_gamma    65.81671000000001

_space_group_name_H-M_alt    "P 1"
_space_group_IT_number       1

loop_
  _space_group_symop_operation_xyz
  'x, y, z'

loop_
  _atom_site_type_symbol
  _atom_site_label
  _atom_site_symmetry_multiplicity
  _atom_site_fract_x
  _atom_site_fract_y
  _atom_site_fract_z
  _atom_site_occupancy
  Eu  Eu1       1.0  0.003989999999999888  0.8661100000000003  0.20144000000000006  1.0000
  Eu  Eu2       1.0  0.07044999999999979  0.6343800000000003  0.2974100000000001  1.0000
  Eu  Eu3       1.0  0.996  0.13389  0.79856  1.0000
  Eu  Eu4       1.0  0.9295399999999999  0.3656100000000001  0.70259  1.0000
  H   H1        1.0  0.85583  0.2535700000000001  0.10035000000000002  1.0000
  H   H2        1.0  0.8349099999999999  0.64146  0.13291  1.0000
  H   H3        1.0  0.36062  0.84757  0.09327  1.0000
  H   H4        1.0  0.056920000000000026  0.08816000000000003  0.90854  1.0000
  H   H5        1.0  0.99249  0.31547  0.22081000000000006  1.0000
  H   H6        1.0  0.6034599999999998  0.6979200000000002  0.09651000000000003  1.0000
  H   H7        1.0  0.57743  0.50971  0.18499  1.0000
  H   H8        1.0  0.5051099999999998  0.4887000000000002  0.23986000000000005  1.0000
  H   H9        1.0  0.58404  0.6151  0.22531000000000007  1.0000
  H   H10       1.0  0.94236  0.32787  0.03169000000000002  1.0000
  H   H11       1.0  0.9978499999999998  0.2107  0.9777200000000003  1.0000
  H   H12       1.0  0.7566799999999995  0.42807  0.8490500000000002  1.0000
  H   H13       1.0  0.6712199999999997  0.5635100000000001  0.9169500000000003  1.0000
  H   H14       1.0  0.5126399999999997  0.82238  0.9558800000000002  1.0000
  H   H15       1.0  0.13722  0.06852000000000001  0.08273000000000003  1.0000
  H   H16       1.0  0.2817899999999998  0.048210000000000024  0.9511400000000002  1.0000
  H   H17       1.0  0.20836999999999997  0.24732000000000004  0.3998200000000001  1.0000
  H   H18       1.0  0.60695  0.85894  0.36666  1.0000
  H   H19       1.0  0.29861999999999983  0.6537700000000002  0.40695  1.0000
  H   H20       1.0  0.0562799999999998  0.41071000000000013  0.5916800000000002  1.0000
  H   H21       1.0  0.52634  0.18574000000000002  0.2788700000000001  1.0000
  H   H22       1.0  0.3970599999999998  0.80234  0.4034600000000001  1.0000
  H   H23       1.0  0.27004999999999996  0.98918  0.31499  1.0000
  H   H24       1.0  0.23098999999999995  0.011040000000000008  0.2601700000000001  1.0000
  H   H25       1.0  0.42408999999999986  0.8868200000000003  0.27428000000000013  1.0000
  H   H26       1.0  0.30266000000000004  0.17181  0.46812  1.0000
  H   H27       1.0  0.18624  0.28914000000000006  0.52223  1.0000
  H   H28       1.0  0.04022999999999998  0.0701  0.65148  1.0000
  H   H29       1.0  0.15523000000000003  0.936  0.5832  1.0000
  H   H30       1.0  0.28995999999999983  0.6778000000000002  0.54408  1.0000
  H   H31       1.0  0.28658999999999984  0.43267  0.41762  1.0000
  H   H32       1.0  0.28115  0.45178000000000007  0.549  1.0000
  H   H33       1.0  0.14415999999999995  0.74643  0.89965  1.0000
  H   H34       1.0  0.1650799999999999  0.35853  0.8670900000000002  1.0000
  H   H35       1.0  0.6393699999999999  0.15243000000000004  0.9067300000000003  1.0000
  H   H36       1.0  0.94307  0.9118400000000001  0.09146000000000003  1.0000
  H   H37       1.0  0.007499999999999928  0.68452  0.7791900000000003  1.0000
  H   H38       1.0  0.39653  0.30208  0.9034900000000002  1.0000
  H   H39       1.0  0.42256999999999967  0.4902800000000001  0.8150100000000002  1.0000
  H   H40       1.0  0.4948799999999999  0.5112900000000001  0.7601400000000003  1.0000
  H   H41       1.0  0.41595  0.3849  0.7746900000000002  1.0000
  H   H42       1.0  0.057629999999999876  0.67213  0.9683100000000002  1.0000
  H   H43       1.0  0.0021399999999999935  0.78929  0.02227  1.0000
  H   H44       1.0  0.24330999999999986  0.5719200000000002  0.15095000000000006  1.0000
  H   H45       1.0  0.32877  0.43649000000000004  0.08305000000000003  1.0000
  H   H46       1.0  0.48735  0.17761  0.04412  1.0000
  H   H47       1.0  0.8627699999999997  0.9314800000000001  0.9172700000000003  1.0000
  H   H48       1.0  0.7182  0.9517900000000001  0.048860000000000015  1.0000
  H   H49       1.0  0.7916299999999998  0.7526700000000002  0.6001800000000003  1.0000
  H   H50       1.0  0.3930399999999999  0.14105  0.63334  1.0000
  H   H51       1.0  0.70137  0.34623000000000004  0.59305  1.0000
  H   H52       1.0  0.9437099999999999  0.58929  0.40832  1.0000
  H   H53       1.0  0.47364999999999974  0.8142500000000003  0.72113  1.0000
  H   H54       1.0  0.60293  0.19766000000000006  0.59654  1.0000
  H   H55       1.0  0.7299399999999999  0.010810000000000007  0.68501  1.0000
  H   H56       1.0  0.7689999999999998  0.9889600000000002  0.73983  1.0000
  H   H57       1.0  0.5758999999999999  0.11317000000000006  0.7257200000000003  1.0000
  H   H58       1.0  0.6973399999999996  0.8281800000000001  0.53188  1.0000
  H   H59       1.0  0.81375  0.7108500000000001  0.47777000000000003  1.0000
  H   H60       1.0  0.9597599999999998  0.9299000000000001  0.34852  1.0000
  H   H61       1.0  0.84476  0.06399000000000002  0.4168000000000001  1.0000
  H   H62       1.0  0.71003  0.32220000000000004  0.45592  1.0000
  H   H63       1.0  0.7134  0.5673300000000001  0.5823800000000002  1.0000
  H   H64       1.0  0.7188399999999998  0.54822  0.4510000000000001  1.0000
  C   C1        1.0  0.9636599999999999  0.12856  0.17272  1.0000
  C   C2        1.0  0.87623  0.31952  0.12165  1.0000
  C   C3        1.0  0.93134  0.26989  0.16096000000000005  1.0000
  C   C4        1.0  0.3429199999999998  0.6618000000000002  0.20906000000000005  1.0000
  C   C5        1.0  0.9227299999999999  0.58185  0.21185  1.0000
  C   C6        1.0  0.8425899999999998  0.45335000000000003  0.11061  1.0000
  C   C7        1.0  0.91296  0.4881500000000001  0.17989000000000005  1.0000
  C   C8        1.0  0.7808  0.5061  0.06949  1.0000
  C   C9        1.0  0.8610700000000001  0.53691  0.14020000000000005  1.0000
  C   C10       1.0  0.35068999999999995  0.88775  0.06097000000000002  1.0000
  C   C11       1.0  0.5937599999999996  0.68055  0.028560000000000006  1.0000
  C   C12       1.0  0.9742499999999994  0.19453000000000004  0.9115200000000002  1.0000
  C   C13       1.0  0.9514199999999999  0.35364000000000007  0.19004000000000004  1.0000
  C   C14       1.0  0.45819  0.81522  0.024990000000000005  1.0000
  C   C15       1.0  0.6548899999999996  0.63521  0.0676  1.0000
  C   C16       1.0  0.51264  0.5621200000000001  0.21569  1.0000
  C   C17       1.0  0.8417699999999998  0.42743000000000003  0.03173  1.0000
  C   C18       1.0  0.9385499999999996  0.2640300000000001  0.9504000000000002  1.0000
  C   C19       1.0  0.80362  0.3826400000000001  0.87857  1.0000
  C   C20       1.0  0.7582299999999997  0.45868000000000003  0.9161300000000002  1.0000
  C   C21       1.0  0.77306  0.47956000000000004  0.9940200000000002  1.0000
  C   C22       1.0  0.4316599999999999  0.8744300000000002  0.9846400000000002  1.0000
  C   C23       1.0  0.8257299999999994  0.3995  0.9534200000000003  1.0000
  C   C24       1.0  0.22350000000000003  0.012580000000000001  0.0551  1.0000
  C   C25       1.0  0.3022799999999998  0.00016000000000000915  0.9822000000000002  1.0000
  C   C26       1.0  0.26411  0.3731300000000001  0.32712  1.0000
  C   C27       1.0  0.3155999999999999  0.18141  0.37819000000000014  1.0000
  C   C28       1.0  0.3602799999999999  0.23118000000000002  0.3388000000000001  1.0000
  C   C29       1.0  0.21512999999999993  0.8363500000000001  0.29038  1.0000
  C   C30       1.0  0.7164899999999998  0.9200100000000001  0.28727  1.0000
  C   C31       1.0  0.4047599999999999  0.04721  0.3890000000000001  1.0000
  C   C32       1.0  0.57967  0.01234  0.3195  1.0000
  C   C33       1.0  0.3553299999999999  0.99425  0.4302900000000001  1.0000
  C   C34       1.0  0.5365999999999999  0.9635100000000001  0.35923  1.0000
  C   C35       1.0  0.2973899999999999  0.61317  0.43921  1.0000
  C   C36       1.0  0.3018100000000001  0.81986  0.47146  1.0000
  C   C37       1.0  0.08323999999999987  0.30441  0.5887700000000002  1.0000
  C   C38       1.0  0.49301  0.14701  0.3095700000000001  1.0000
  C   C39       1.0  0.29696999999999996  0.68536  0.4750900000000001  1.0000
  C   C40       1.0  0.3567399999999999  0.8651900000000001  0.4323300000000001  1.0000
  C   C41       1.0  0.28948  0.9375  0.28413  1.0000
  C   C42       1.0  0.30101000000000006  0.07253000000000003  0.46814  1.0000
  C   C43       1.0  0.15429999999999996  0.23548  0.54968  1.0000
  C   C44       1.0  0.06981999999999985  0.11613000000000002  0.6219000000000002  1.0000
  C   C45       1.0  0.13633000000000003  0.040720000000000006  0.58414  1.0000
  C   C46       1.0  0.24695  0.02034  0.50596  1.0000
  C   C47       1.0  0.28979  0.62583  0.51542  1.0000
  C   C48       1.0  0.18024  0.10014000000000005  0.54666  1.0000
  C   C49       1.0  0.28967000000000004  0.4883  0.44517  1.0000
  C   C50       1.0  0.2841599999999998  0.5001  0.5179600000000002  1.0000
  C   C51       1.0  0.03632999999999999  0.8714300000000001  0.8272800000000002  1.0000
  C   C52       1.0  0.12376000000000002  0.68048  0.87835  1.0000
  C   C53       1.0  0.06865999999999979  0.7301  0.8390400000000001  1.0000
  C   C54       1.0  0.6570699999999999  0.3381900000000001  0.7909400000000002  1.0000
  C   C55       1.0  0.07725999999999987  0.41815  0.7881500000000002  1.0000
  C   C56       1.0  0.15739999999999982  0.5466500000000001  0.8893900000000002  1.0000
  C   C57       1.0  0.08703000000000004  0.51185  0.82011  1.0000
  C   C58       1.0  0.21918999999999988  0.49389  0.93051  1.0000
  C   C59       1.0  0.13892  0.46309000000000006  0.8598  1.0000
  C   C60       1.0  0.6492999999999998  0.11224000000000005  0.9390300000000003  1.0000
  C   C61       1.0  0.4062299999999998  0.31944  0.9714400000000002  1.0000
  C   C62       1.0  0.025739999999999773  0.8054700000000001  0.08848000000000003  1.0000
  C   C63       1.0  0.048569999999999655  0.6463500000000001  0.8099600000000002  1.0000
  C   C64       1.0  0.5418  0.18477000000000002  0.9750100000000003  1.0000
  C   C65       1.0  0.34509999999999985  0.36478  0.9324000000000002  1.0000
  C   C66       1.0  0.48735  0.43787  0.7843100000000002  1.0000
  C   C67       1.0  0.1582199999999998  0.57257  0.9682700000000002  1.0000
  C   C68       1.0  0.061440000000000015  0.73597  0.04960000000000001  1.0000
  C   C69       1.0  0.19636999999999996  0.6173600000000001  0.12143000000000002  1.0000
  C   C70       1.0  0.24176999999999996  0.54132  0.08387000000000003  1.0000
  C   C71       1.0  0.22692999999999997  0.52043  0.005980000000000002  1.0000
  C   C72       1.0  0.5683300000000001  0.12557  0.01536  1.0000
  C   C73       1.0  0.17425999999999997  0.6005000000000001  0.04658000000000002  1.0000
  C   C74       1.0  0.7764899999999997  0.9874200000000001  0.9449000000000002  1.0000
  C   C75       1.0  0.6977099999999999  0.99984  0.017800000000000007  1.0000
  C   C76       1.0  0.7358899999999997  0.6268700000000001  0.67288  1.0000
  C   C77       1.0  0.6843999999999999  0.81859  0.6218100000000002  1.0000
  C   C78       1.0  0.6397099999999997  0.7688100000000001  0.6612000000000002  1.0000
  C   C79       1.0  0.78487  0.16364  0.70962  1.0000
  C   C80       1.0  0.28350999999999993  0.07999000000000003  0.71273  1.0000
  C   C81       1.0  0.59523  0.9527900000000001  0.611  1.0000
  C   C82       1.0  0.42032000000000014  0.98765  0.6805000000000002  1.0000
  C   C83       1.0  0.6446599999999998  0.00575000000000001  0.5697100000000003  1.0000
  C   C84       1.0  0.4633899999999998  0.03648000000000002  0.6407700000000002  1.0000
  C   C85       1.0  0.7025999999999999  0.38683  0.5607900000000002  1.0000
  C   C86       1.0  0.69818  0.18013000000000007  0.52854  1.0000
  C   C87       1.0  0.91675  0.69559  0.41123  1.0000
  C   C88       1.0  0.5069800000000001  0.85299  0.69042  1.0000
  C   C89       1.0  0.70302  0.3146300000000001  0.52491  1.0000
  C   C90       1.0  0.6432499999999999  0.13481  0.56767  1.0000
  C   C91       1.0  0.71051  0.06249  0.71587  1.0000
  C   C92       1.0  0.6989799999999998  0.92746  0.53186  1.0000
  C   C93       1.0  0.8456999999999997  0.7645200000000002  0.4503200000000001  1.0000
  C   C94       1.0  0.9301699999999999  0.88387  0.37810000000000005  1.0000
  C   C95       1.0  0.8636599999999999  0.9592800000000001  0.41586  1.0000
  C   C96       1.0  0.7530399999999998  0.9796500000000002  0.4940400000000001  1.0000
  C   C97       1.0  0.7101999999999998  0.3741600000000001  0.4845800000000001  1.0000
  C   C98       1.0  0.8197499999999998  0.89986  0.45334000000000013  1.0000
  C   C99       1.0  0.7103199999999996  0.5116900000000001  0.5548300000000003  1.0000
  C   C100      1.0  0.7158299999999999  0.49989000000000006  0.48204  1.0000
  N   N1        1.0  0.90869  0.25135000000000013  0.8757900000000001  1.0000
  N   N2        1.0  0.6524199999999997  0.6040300000000002  0.9925300000000002  1.0000
  N   N3        1.0  0.19719  0.06993  0.01652  1.0000
  N   N4        1.0  0.04059999999999988  0.24732000000000004  0.6247500000000002  1.0000
  N   N5        1.0  0.24833000000000005  0.89628  0.50752  1.0000
  N   N6        1.0  0.28307999999999994  0.4305300000000001  0.48372  1.0000
  N   N7        1.0  0.09129999999999992  0.7486500000000001  0.12421000000000003  1.0000
  N   N8        1.0  0.34757  0.39596  0.007470000000000002  1.0000
  N   N9        1.0  0.8028000000000001  0.93007  0.9834800000000002  1.0000
  N   N10       1.0  0.9593899999999999  0.75268  0.3752500000000001  1.0000
  N   N11       1.0  0.7516599999999998  0.10372000000000002  0.4924800000000001  1.0000
  N   N12       1.0  0.71691  0.56946  0.51628  1.0000
  O   O1        1.0  0.2144899999999999  0.6364200000000001  0.22316000000000005  1.0000
  O   O2        1.0  0.90945  0.06022  0.15191  1.0000
  O   O3        1.0  0.9651799999999998  0.5342300000000002  0.24804  1.0000
  O   O4        1.0  0.045609999999999956  0.07686000000000003  0.20394000000000007  1.0000
  O   O5        1.0  0.3212999999999997  0.7703500000000002  0.18928000000000006  1.0000
  O   O6        1.0  0.8864100000000001  0.70323  0.20027  1.0000
  O   O7        1.0  0.07744999999999987  0.8604800000000001  0.2753800000000001  1.0000
  O   O8        1.0  0.12101999999999993  0.44253000000000003  0.3481700000000001  1.0000
  O   O9        1.0  0.7495999999999998  0.9691900000000002  0.25154  1.0000
  O   O10       1.0  0.3257299999999999  0.42448  0.2956900000000001  1.0000
  O   O11       1.0  0.28113  0.72851  0.31059000000000003  1.0000
  O   O12       1.0  0.7897999999999998  0.79784  0.29806  1.0000
  O   O13       1.0  0.7854999999999998  0.3635800000000001  0.77683  1.0000
  O   O14       1.0  0.09053999999999993  0.9397800000000001  0.84809  1.0000
  O   O15       1.0  0.03481000000000004  0.46577  0.75195  1.0000
  O   O16       1.0  0.9543799999999999  0.9231300000000002  0.7960600000000001  1.0000
  O   O17       1.0  0.6787000000000001  0.22964  0.81072  1.0000
  O   O18       1.0  0.11357999999999993  0.29677  0.7997300000000003  1.0000
  O   O19       1.0  0.92255  0.13952  0.72462  1.0000
  O   O20       1.0  0.8789700000000001  0.55746  0.65183  1.0000
  O   O21       1.0  0.25038999999999983  0.030800000000000022  0.7484600000000002  1.0000
  O   O22       1.0  0.67426  0.5755100000000002  0.7043100000000002  1.0000
  O   O23       1.0  0.7188599999999996  0.27149  0.6894100000000002  1.0000
  O   O24       1.0  0.21018999999999985  0.20215000000000005  0.7019400000000002  1.0000
