data_image0
_chemical_formula_structural       Zn10H40C60N60O40
_chemical_formula_sum              "Zn10 H40 C60 N60 O40"
_cell_length_a       11.18932
_cell_length_b       17.73968
_cell_length_c       17.71943
_cell_angle_alpha    78.84238
_cell_angle_beta     71.56041999999998
_cell_angle_gamma    71.52894999999998

_space_group_name_H-M_alt    "P 1"
_space_group_IT_number       1

loop_
  _space_group_symop_operation_xyz
  'x, y, z'

loop_
  _atom_site_type_symbol
  _atom_site_label
  _atom_site_symmetry_multiplicity
  _atom_site_fract_x
  _atom_site_fract_y
  _atom_site_fract_z
  _atom_site_occupancy
  Zn  Zn1       1.0  0.65512  0.32332  0.92773  1.0000
  Zn  Zn2       1.0  0.09415  0.92757  0.3228899999999999  1.0000
  Zn  Zn3       1.0  0.84456  0.57217  0.17734  1.0000
  Zn  Zn4       1.0  0.40582000000000007  0.17686000000000004  0.5721999999999998  1.0000
  Zn  Zn5       1.0  0.34487  0.67668  0.07227  1.0000
  Zn  Zn6       1.0  0.90584  0.07243000000000001  0.67711  1.0000
  Zn  Zn7       1.0  0.15542999999999985  0.42783000000000004  0.82265  1.0000
  Zn  Zn8       1.0  0.5941699999999999  0.8231400000000002  0.42779  1.0000
  Zn  Zn9       1.0  0.7499  0.2502  0.24963  1.0000
  Zn  Zn10      1.0  0.25009000000000003  0.7498  0.7503699999999998  1.0000
  H   H1        1.0  0.74441  0.10603999999999998  0.16311  1.0000
  H   H2        1.0  0.6884899999999998  0.13895  0.015580000000000002  1.0000
  H   H3        1.0  0.87559  0.34141  0.76884  1.0000
  H   H4        1.0  0.8800000000000001  0.55278  0.8314099999999998  1.0000
  H   H5        1.0  0.64941  0.50514  0.88307  1.0000
  H   H6        1.0  0.98721  0.16287000000000001  0.10568  1.0000
  H   H7        1.0  0.15715  0.01542  0.13917  1.0000
  H   H8        1.0  0.014229999999999859  0.7687700000000002  0.3416499999999999  1.0000
  H   H9        1.0  0.7359700000000002  0.83107  0.55255  1.0000
  H   H10       1.0  0.9618400000000003  0.88336  0.50507  1.0000
  H   H11       1.0  0.7551900000000001  0.33704999999999996  0.39422  1.0000
  H   H12       1.0  0.8118299999999998  0.48416999999999993  0.36084  1.0000
  H   H13       1.0  0.6237100000000001  0.73138  0.15869  1.0000
  H   H14       1.0  0.6202999999999999  0.66859  0.94728  1.0000
  H   H15       1.0  0.8505900000000001  0.61681  0.9951299999999998  1.0000
  H   H16       1.0  0.5129200000000002  0.39417  0.33711999999999986  1.0000
  H   H17       1.0  0.34295000000000003  0.36096000000000006  0.48463  1.0000
  H   H18       1.0  0.48549000000000003  0.15826  0.73097  1.0000
  H   H19       1.0  0.7642999999999998  0.9476699999999999  0.66886  1.0000
  H   H20       1.0  0.5384799999999998  0.9949900000000002  0.61646  1.0000
  H   H21       1.0  0.25559  0.8939600000000001  0.8368899999999998  1.0000
  H   H22       1.0  0.31150000000000017  0.86105  0.9844199999999999  1.0000
  H   H23       1.0  0.12440000000000001  0.65859  0.23116999999999996  1.0000
  H   H24       1.0  0.11998999999999997  0.44722  0.16858  1.0000
  H   H25       1.0  0.35058999999999996  0.4948600000000001  0.11691999999999998  1.0000
  H   H26       1.0  0.01278999999999998  0.83712  0.89431  1.0000
  H   H27       1.0  0.8428399999999994  0.9845700000000001  0.86083  1.0000
  H   H28       1.0  0.9857699999999998  0.23123000000000002  0.65835  1.0000
  H   H29       1.0  0.26402  0.16893  0.4474499999999999  1.0000
  H   H30       1.0  0.03815000000000003  0.11664  0.49493999999999994  1.0000
  H   H31       1.0  0.24480000000000002  0.66295  0.60577  1.0000
  H   H32       1.0  0.18815999999999983  0.5158300000000002  0.63915  1.0000
  H   H33       1.0  0.3762800000000001  0.26862  0.8413099999999998  1.0000
  H   H34       1.0  0.37969  0.33142  0.05271  1.0000
  H   H35       1.0  0.14939999999999998  0.38319  0.0048699999999999985  1.0000
  H   H36       1.0  0.48708  0.60583  0.66288  1.0000
  H   H37       1.0  0.6570399999999997  0.63904  0.51537  1.0000
  H   H38       1.0  0.5145000000000001  0.84174  0.26903  1.0000
  H   H39       1.0  0.23569999999999997  0.052340000000000005  0.33115  1.0000
  H   H40       1.0  0.46152  0.00501  0.38354  1.0000
  C   C1        1.0  0.7105  0.16288  0.12988999999999995  1.0000
  C   C2        1.0  0.68263  0.17942  0.055929999999999994  1.0000
  C   C3        1.0  0.6469699999999999  0.29009  0.10217999999999999  1.0000
  C   C4        1.0  0.8536299999999999  0.28599  0.76984  1.0000
  C   C5        1.0  0.9085899999999999  0.37102  0.90302  1.0000
  C   C6        1.0  0.8637699999999999  0.49535000000000007  0.8579999999999998  1.0000
  C   C7        1.0  0.7489  0.47159  0.883  1.0000
  C   C8        1.0  0.99683  0.12988  0.16274  1.0000
  C   C9        1.0  0.08195000000000001  0.05594999999999999  0.17949  1.0000
  C   C10       1.0  0.9601599999999999  0.1025  0.29013  1.0000
  C   C11       1.0  0.09049999999999991  0.7697300000000001  0.28601  1.0000
  C   C12       1.0  0.81693  0.90342  0.37084  1.0000
  C   C13       1.0  0.7829100000000001  0.85799  0.49518999999999996  1.0000
  C   C14       1.0  0.89629  0.88324  0.47135  1.0000
  C   C15       1.0  0.78896  0.37008  0.3372199999999999  1.0000
  C   C16       1.0  0.81729  0.4438  0.3204999999999999  1.0000
  C   C17       1.0  0.85246  0.39747  0.20985  1.0000
  C   C18       1.0  0.64603  0.7302800000000002  0.21409  1.0000
  C   C19       1.0  0.5912400000000001  0.59656  0.12909  1.0000
  C   C20       1.0  0.63647  0.64179  0.00475  1.0000
  C   C21       1.0  0.75119  0.61669  0.02872999999999999  1.0000
  C   C22       1.0  0.5031400000000001  0.3372100000000001  0.37013  1.0000
  C   C23       1.0  0.4179100000000001  0.32056  0.44407999999999986  1.0000
  C   C24       1.0  0.5393000000000001  0.20998000000000003  0.39743  1.0000
  C   C25       1.0  0.40918  0.21387000000000003  0.73019  1.0000
  C   C26       1.0  0.68279  0.12923  0.59662  1.0000
  C   C27       1.0  0.71735  0.004969999999999997  0.64188  1.0000
  C   C28       1.0  0.60398  0.028700000000000003  0.61655  1.0000
  C   C29       1.0  0.2894999999999999  0.83712  0.8701  1.0000
  C   C30       1.0  0.31736  0.82058  0.94406  1.0000
  C   C31       1.0  0.35302  0.7099100000000003  0.8978099999999998  1.0000
  C   C32       1.0  0.14635999999999993  0.71401  0.23016  1.0000
  C   C33       1.0  0.09139999999999998  0.62898  0.09698  1.0000
  C   C34       1.0  0.13623000000000002  0.50465  0.142  1.0000
  C   C35       1.0  0.25109  0.52842  0.11699999999999998  1.0000
  C   C36       1.0  0.0031599999999999124  0.8701200000000002  0.8372599999999999  1.0000
  C   C37       1.0  0.91804  0.9440500000000001  0.8205099999999997  1.0000
  C   C38       1.0  0.03982999999999993  0.8975  0.70987  1.0000
  C   C39       1.0  0.9095  0.23026999999999997  0.714  1.0000
  C   C40       1.0  0.18306000000000003  0.09658  0.6291499999999999  1.0000
  C   C41       1.0  0.21708  0.14201  0.50481  1.0000
  C   C42       1.0  0.10369999999999999  0.11675999999999999  0.52865  1.0000
  C   C43       1.0  0.21102999999999997  0.6299200000000001  0.66277  1.0000
  C   C44       1.0  0.1827000000000001  0.5562  0.6794999999999998  1.0000
  C   C45       1.0  0.1475300000000001  0.60253  0.7901499999999998  1.0000
  C   C46       1.0  0.3539600000000001  0.26972  0.7858999999999998  1.0000
  C   C47       1.0  0.4087500000000001  0.40344  0.87091  1.0000
  C   C48       1.0  0.36352000000000007  0.35822  0.9952499999999999  1.0000
  C   C49       1.0  0.2488000000000001  0.38330999999999993  0.97127  1.0000
  C   C50       1.0  0.49685000000000007  0.66279  0.62987  1.0000
  C   C51       1.0  0.58208  0.6794400000000002  0.55591  1.0000
  C   C52       1.0  0.46069000000000015  0.79002  0.6025599999999998  1.0000
  C   C53       1.0  0.59081  0.78613  0.2697999999999999  1.0000
  C   C54       1.0  0.3172  0.87077  0.40337999999999996  1.0000
  C   C55       1.0  0.2826499999999999  0.9950300000000001  0.35812  1.0000
  C   C56       1.0  0.3960100000000001  0.9713  0.38345  1.0000
  C   C57       1.0  0.75702  0.1927  0.80747  1.0000
  C   C58       1.0  0.24297000000000005  0.8073  0.19253999999999993  1.0000
  C   C59       1.0  0.74318  0.69251  0.3073  1.0000
  C   C60       1.0  0.2568100000000001  0.30748000000000003  0.6926899999999998  1.0000
  N   N1        1.0  0.68818  0.23366000000000003  0.15843999999999994  1.0000
  N   N2        1.0  0.64272  0.26031000000000004  0.03858  1.0000
  N   N3        1.0  0.60376  0.37285  0.11164999999999997  1.0000
  N   N4        1.0  0.7573000000000001  0.26164  0.8293399999999997  1.0000
  N   N5        1.0  0.77827  0.39235  0.91085  1.0000
  N   N6        1.0  0.96457  0.43129  0.87093  1.0000
  N   N7        1.0  0.9809400000000001  0.29328000000000004  0.9275299999999997  1.0000
  N   N8        1.0  0.91944  0.15864  0.23348999999999995  1.0000
  N   N9        1.0  0.05788999999999996  0.038770000000000006  0.26048  1.0000
  N   N10       1.0  0.9109999999999999  0.11244000000000001  0.3728899999999999  1.0000
  N   N11       1.0  0.1516599999999999  0.8291200000000001  0.2615399999999999  1.0000
  N   N12       1.0  0.9180899999999997  0.91137  0.39206999999999986  1.0000
  N   N13       1.0  0.7331699999999999  0.87105  0.4312  1.0000
  N   N14       1.0  0.79721  0.9277300000000002  0.2931299999999999  1.0000
  N   N15       1.0  0.81089  0.34151  0.26645  1.0000
  N   N16       1.0  0.8572499999999998  0.46097000000000005  0.23950999999999997  1.0000
  N   N17       1.0  0.8961899999999999  0.38737  0.12714999999999996  1.0000
  N   N18       1.0  0.74225  0.67067  0.23845  1.0000
  N   N19       1.0  0.72164  0.58864  0.10801  1.0000
  N   N20       1.0  0.5355999999999997  0.62877  0.06865  1.0000
  N   N21       1.0  0.5179499999999998  0.5724800000000003  0.2068  1.0000
  N   N22       1.0  0.5803199999999998  0.26649000000000006  0.34132999999999997  1.0000
  N   N23       1.0  0.44162000000000007  0.23966  0.4612  1.0000
  N   N24       1.0  0.5880099999999999  0.12731999999999996  0.3873  1.0000
  N   N25       1.0  0.34759999999999996  0.23836  0.6708899999999999  1.0000
  N   N26       1.0  0.5818700000000001  0.10791000000000002  0.5884999999999998  1.0000
  N   N27       1.0  0.7667799999999999  0.06899  0.62899  1.0000
  N   N28       1.0  0.7016800000000001  0.207  0.57252  1.0000
  N   N29       1.0  0.3118100000000001  0.7663300000000001  0.8415599999999998  1.0000
  N   N30       1.0  0.35726999999999987  0.7396900000000001  0.9614200000000002  1.0000
  N   N31       1.0  0.39622999999999997  0.6271500000000001  0.88835  1.0000
  N   N32       1.0  0.24268999999999988  0.73837  0.17066  1.0000
  N   N33       1.0  0.22172  0.60765  0.08915  1.0000
  N   N34       1.0  0.035419999999999965  0.56871  0.12907  1.0000
  N   N35       1.0  0.019049999999999997  0.70672  0.07247  1.0000
  N   N36       1.0  0.08056000000000009  0.8413600000000001  0.7664999999999997  1.0000
  N   N37       1.0  0.9421000000000006  0.96123  0.7395199999999997  1.0000
  N   N38       1.0  0.0889899999999999  0.8875700000000001  0.62711  1.0000
  N   N39       1.0  0.8483300000000001  0.17088  0.7384599999999998  1.0000
  N   N40       1.0  0.08190000000000003  0.08863  0.60794  1.0000
  N   N41       1.0  0.26681999999999995  0.12893999999999997  0.5688  1.0000
  N   N42       1.0  0.20278999999999994  0.07227000000000003  0.70686  1.0000
  N   N43       1.0  0.18910000000000013  0.65849  0.7335399999999997  1.0000
  N   N44       1.0  0.14274000000000012  0.53903  0.7604899999999998  1.0000
  N   N45       1.0  0.10379999999999998  0.61263  0.8728499999999999  1.0000
  N   N46       1.0  0.2577500000000001  0.32933  0.7615499999999997  1.0000
  N   N47       1.0  0.2783399999999999  0.41136000000000006  0.89198  1.0000
  N   N48       1.0  0.46438999999999997  0.3712300000000001  0.93135  1.0000
  N   N49       1.0  0.4820400000000001  0.42752  0.7931999999999998  1.0000
  N   N50       1.0  0.4196700000000001  0.73351  0.6586699999999998  1.0000
  N   N51       1.0  0.55837  0.76034  0.5388  1.0000
  N   N52       1.0  0.41198000000000023  0.87268  0.6127  1.0000
  N   N53       1.0  0.65239  0.7616400000000002  0.3291099999999999  1.0000
  N   N54       1.0  0.4181199999999999  0.89209  0.41149  1.0000
  N   N55       1.0  0.23321  0.93101  0.37101  1.0000
  N   N56       1.0  0.2983099999999998  0.7930000000000004  0.42748  1.0000
  N   N57       1.0  0.6620700000000002  0.15105000000000002  0.8489399999999998  1.0000
  N   N58       1.0  0.33792  0.84895  0.15105999999999994  1.0000
  N   N59       1.0  0.8382199999999999  0.65046  0.34879  1.0000
  N   N60       1.0  0.1617699999999999  0.34954000000000013  0.65121  1.0000
  O   O1        1.0  0.6062099999999999  0.39392  0.17461999999999994  1.0000
  O   O2        1.0  0.5631299999999999  0.4204500000000001  0.05729  1.0000
  O   O3        1.0  0.9233300000000002  0.23962  0.9506999999999998  1.0000
  O   O4        1.0  0.57699  0.17863  0.90988  1.0000
  O   O5        1.0  0.09769999999999997  0.28389  0.92467  1.0000
  O   O6        1.0  0.8240100000000001  0.17532000000000003  0.39378999999999986  1.0000
  O   O7        1.0  0.95875  0.058589999999999996  0.4207  1.0000
  O   O8        1.0  0.8850199999999994  0.95073  0.23900999999999994  1.0000
  O   O9        1.0  0.33302  0.91018  0.17853  1.0000
  O   O10       1.0  0.6924400000000003  0.9247999999999998  0.28418  1.0000
  O   O11       1.0  0.8911199999999998  0.32507  0.10627  1.0000
  O   O12       1.0  0.9399  0.44047  0.07936999999999997  1.0000
  O   O13       1.0  0.5748900000000001  0.54949  0.26083  1.0000
  O   O14       1.0  0.92086  0.58852  0.3216899999999999  1.0000
  O   O15       1.0  0.40115000000000006  0.57553  0.21593999999999994  1.0000
  O   O16       1.0  0.6756  0.10638  0.32462  1.0000
  O   O17       1.0  0.53917  0.07963  0.44069  1.0000
  O   O18       1.0  0.6134199999999999  0.26088000000000006  0.54957  1.0000
  O   O19       1.0  0.1641  0.32178  0.59072  1.0000
  O   O20       1.0  0.80617  0.21617999999999998  0.57557  1.0000
  O   O21       1.0  0.39377999999999996  0.60608  0.82538  1.0000
  O   O22       1.0  0.43685999999999997  0.57955  0.9427099999999998  1.0000
  O   O23       1.0  0.07664999999999995  0.76038  0.0493  1.0000
  O   O24       1.0  0.42300000000000004  0.82137  0.09011999999999998  1.0000
  O   O25       1.0  0.9022900000000003  0.71611  0.07533  1.0000
  O   O26       1.0  0.17598000000000008  0.82468  0.60621  1.0000
  O   O27       1.0  0.04124000000000004  0.9414100000000001  0.5792999999999998  1.0000
  O   O28       1.0  0.11498000000000018  0.04927000000000001  0.7609899999999998  1.0000
  O   O29       1.0  0.66697  0.08982000000000001  0.82147  1.0000
  O   O30       1.0  0.3075499999999999  0.0752  0.71582  1.0000
  O   O31       1.0  0.1088700000000001  0.67493  0.8937299999999998  1.0000
  O   O32       1.0  0.06009000000000016  0.55953  0.9206199999999998  1.0000
  O   O33       1.0  0.42509999999999976  0.4505100000000001  0.73917  1.0000
  O   O34       1.0  0.07912999999999998  0.41148000000000007  0.6783  1.0000
  O   O35       1.0  0.5988399999999999  0.42447  0.78406  1.0000
  O   O36       1.0  0.32438999999999973  0.8936200000000003  0.67537  1.0000
  O   O37       1.0  0.46082000000000006  0.92037  0.5593  1.0000
  O   O38       1.0  0.3865699999999999  0.73912  0.45042  1.0000
  O   O39       1.0  0.83589  0.67822  0.40928  1.0000
  O   O40       1.0  0.19381999999999996  0.78382  0.42442999999999986  1.0000
