data_image0
_chemical_formula_structural       Cd4H84C108N28
_chemical_formula_sum              "Cd4 H84 C108 N28"
_cell_length_a       9.1001
_cell_length_b       14.74284
_cell_length_c       27.87775
_cell_angle_alpha    101.52887
_cell_angle_beta     89.99863000000002
_cell_angle_gamma    89.96652

_symmetry_space_group_name_H-M    'P 1'
_symmetry_Int_Tables_number       1

loop_
  _symmetry_equiv_pos_as_xyz
  'x,y,z'

loop_
  _atom_site_type_symbol
  _atom_site_label
  _atom_site_symmetry_multiplicity
  _atom_site_fract_x
  _atom_site_fract_y
  _atom_site_fract_z
  _atom_site_occupancy
  Cd  Cd1       1.0  0.62642  0.63664  0.23677999999999993  1.0000
  Cd  Cd2       1.0  0.35793  0.12881  0.75201  1.0000
  Cd  Cd3       1.0  0.62214  0.88069  0.28233  1.0000
  Cd  Cd4       1.0  0.36487  0.37085999999999986  0.7541699999999998  1.0000
  H   H1        1.0  0.23441  0.09649999999999997  0.02498999999999999  1.0000
  H   H2        1.0  0.17953  0.08312999999999987  0.9379399999999998  1.0000
  H   H3        1.0  0.19306  0.7857399999999995  0.9184799999999997  1.0000
  H   H4        1.0  0.26369  0.7995399999999998  0.00396  1.0000
  H   H5        1.0  0.13779  0.7753799999999996  0.8465199999999998  1.0000
  H   H6        1.0  0.07458  0.8235399999999998  0.7578499999999999  1.0000
  H   H7        1.0  0.13932  0.06767  0.86163  1.0000
  H   H8        1.0  0.51627  0.06627  0.059739999999999994  1.0000
  H   H9        1.0  0.56881  0.22144999999999998  0.11058  1.0000
  H   H10       1.0  0.19805  0.19408999999999996  0.20188999999999993  1.0000
  H   H11       1.0  0.14061  0.041789999999999994  0.14994  1.0000
  H   H12       1.0  0.20788999999999996  0.3721899999999999  0.19669999999999996  1.0000
  H   H13       1.0  0.36149  0.50306  0.26352  1.0000
  H   H14       1.0  0.64882  0.2851299999999999  0.20539  1.0000
  H   H15       1.0  0.04887  0.8472099999999999  0.05626999999999999  1.0000
  H   H16       1.0  0.9769999999999999  0.7285499999999999  0.10340999999999997  1.0000
  H   H17       1.0  0.36337  0.7909499999999998  0.1933  1.0000
  H   H18       1.0  0.4401399999999999  0.90496  0.14362999999999998  1.0000
  H   H19       1.0  0.30642  0.62975  0.20516  1.0000
  H   H20       1.0  0.09522  0.54338  0.25404999999999994  1.0000
  H   H21       1.0  0.87722  0.7240699999999998  0.17942999999999998  1.0000
  H   H22       1.0  0.76243  0.59495  0.52462  1.0000
  H   H23       1.0  0.8171  0.58193  0.4375899999999999  1.0000
  H   H24       1.0  0.80601  0.28445  0.41794  1.0000
  H   H25       1.0  0.73513  0.2979399999999999  0.5034499999999998  1.0000
  H   H26       1.0  0.85923  0.27445  0.34595999999999993  1.0000
  H   H27       1.0  0.9251499999999999  0.32281  0.25754  1.0000
  H   H28       1.0  0.86322  0.56677  0.36176  1.0000
  H   H29       1.0  0.48245  0.56482  0.5596199999999999  1.0000
  H   H30       1.0  0.43034  0.7200399999999997  0.6105699999999997  1.0000
  H   H31       1.0  0.80291  0.6925699999999997  0.7010599999999998  1.0000
  H   H32       1.0  0.8597299999999999  0.54009  0.64903  1.0000
  H   H33       1.0  0.79151  0.8711799999999997  0.6954099999999998  1.0000
  H   H34       1.0  0.64024  0.99993  0.7643099999999998  1.0000
  H   H35       1.0  0.35344  0.78146  0.7071199999999997  1.0000
  H   H36       1.0  0.95108  0.3453699999999999  0.55613  1.0000
  H   H37       1.0  0.024  0.22848999999999986  0.6043499999999998  1.0000
  H   H38       1.0  0.636  0.29264999999999985  0.6937999999999999  1.0000
  H   H39       1.0  0.55909  0.4042299999999998  0.6435699999999998  1.0000
  H   H40       1.0  0.69071  0.1324999999999999  0.7060399999999998  1.0000
  H   H41       1.0  0.89832  0.04195999999999994  0.7539299999999998  1.0000
  H   H42       1.0  0.12298  0.2212499999999999  0.6802099999999999  1.0000
  H   H43       1.0  0.23359  0.4028799999999999  0.4756199999999999  1.0000
  H   H44       1.0  0.17784  0.41758999999999996  0.5627  1.0000
  H   H45       1.0  0.19197  0.7147799999999997  0.58105  1.0000
  H   H46       1.0  0.26273  0.6996699999999998  0.4954799999999999  1.0000
  H   H47       1.0  0.13456  0.7258299999999998  0.65314  1.0000
  H   H48       1.0  0.07128  0.6783999999999999  0.7420499999999998  1.0000
  H   H49       1.0  0.13884  0.4337699999999998  0.6388399999999997  1.0000
  H   H50       1.0  0.51571  0.43199999999999994  0.44002999999999987  1.0000
  H   H51       1.0  0.56922  0.2773799999999999  0.3884  1.0000
  H   H52       1.0  0.19597  0.3047399999999999  0.2981799999999999  1.0000
  H   H53       1.0  0.13848  0.4568799999999999  0.3506099999999999  1.0000
  H   H54       1.0  0.21437  0.12201999999999993  0.30531999999999987  1.0000
  H   H55       1.0  0.36628  0.997  0.23493999999999995  1.0000
  H   H56       1.0  0.6441  0.2219399999999999  0.2895899999999999  1.0000
  H   H57       1.0  0.04803  0.65089  0.4426799999999999  1.0000
  H   H58       1.0  0.97869  0.7702299999999997  0.39553  1.0000
  H   H59       1.0  0.36967  0.70852  0.30764  1.0000
  H   H60       1.0  0.4430799999999999  0.5939799999999997  0.35708999999999996  1.0000
  H   H61       1.0  0.31052  0.87143  0.29599  1.0000
  H   H62       1.0  0.09909  0.95659  0.24624  1.0000
  H   H63       1.0  0.8820200000000001  0.7732599999999998  0.31934  1.0000
  H   H64       1.0  0.76338  0.9047399999999997  0.9754999999999998  1.0000
  H   H65       1.0  0.81869  0.91818  0.06253  1.0000
  H   H66       1.0  0.80685  0.21556999999999993  0.08180999999999997  1.0000
  H   H67       1.0  0.73601  0.20173  0.99631  1.0000
  H   H68       1.0  0.8643  0.22602  0.15332  1.0000
  H   H69       1.0  0.93034  0.17843999999999996  0.24195999999999995  1.0000
  H   H70       1.0  0.86269  0.9339499999999997  0.13871999999999998  1.0000
  H   H71       1.0  0.48323  0.9351899999999995  0.94019  1.0000
  H   H72       1.0  0.43068999999999996  0.78021  0.8889999999999998  1.0000
  H   H73       1.0  0.80444  0.80696  0.79895  1.0000
  H   H74       1.0  0.86137  0.9593499999999996  0.8510999999999997  1.0000
  H   H75       1.0  0.78982  0.6269099999999996  0.8052599999999998  1.0000
  H   H76       1.0  0.63962  0.5006399999999998  0.7349199999999998  1.0000
  H   H77       1.0  0.35577  0.7217  0.79095  1.0000
  H   H78       1.0  0.95177  0.1540699999999999  0.9438899999999998  1.0000
  H   H79       1.0  0.02444  0.2714699999999998  0.8960199999999998  1.0000
  H   H80       1.0  0.63577  0.20856  0.80683  1.0000
  H   H81       1.0  0.55946  0.09635999999999993  0.8565699999999998  1.0000
  H   H82       1.0  0.69062  0.36778  0.7941  1.0000
  H   H83       1.0  0.8982099999999998  0.45724999999999993  0.7456999999999998  1.0000
  H   H84       1.0  0.12324  0.27972  0.82053  1.0000
  C   C1        1.0  0.25381  0.9491499999999998  0.021659999999999995  1.0000
  C   C2        1.0  0.22812999999999997  0.02822  0.0015999999999999996  1.0000
  C   C3        1.0  0.19542  0.020329999999999893  0.9521099999999998  1.0000
  C   C4        1.0  0.18206  0.9333399999999997  0.9210899999999997  1.0000
  C   C5        1.0  0.20367  0.8544299999999999  0.94117  1.0000
  C   C6        1.0  0.24279  0.8620299999999996  0.9899999999999998  1.0000
  C   C7        1.0  0.13004  0.8423299999999997  0.8365499999999998  1.0000
  C   C8        1.0  0.09756999999999999  0.8678799999999998  0.7929299999999998  1.0000
  C   C9        1.0  0.12961  0.9951699999999998  0.8449  1.0000
  C   C10       1.0  0.32361  0.044439999999999986  0.10109999999999997  1.0000
  C   C11       1.0  0.4458  0.09472999999999995  0.09055999999999997  1.0000
  C   C12       1.0  0.47606  0.18149999999999997  0.11933999999999997  1.0000
  C   C13       1.0  0.38652  0.21769999999999995  0.15940999999999994  1.0000
  C   C14       1.0  0.26569  0.16704  0.17022  1.0000
  C   C15       1.0  0.23368000000000003  0.08135999999999995  0.14101999999999995  1.0000
  C   C16       1.0  0.32044  0.37390999999999985  0.20927  1.0000
  C   C17       1.0  0.39979  0.4381899999999999  0.24162999999999998  1.0000
  C   C18       1.0  0.55346  0.32982  0.21252999999999994  1.0000
  C   C19       1.0  0.24883  0.8847499999999998  0.09687  1.0000
  C   C20       1.0  0.11810000000000001  0.8344399999999997  0.08598  1.0000
  C   C21       1.0  0.07703  0.7684799999999999  0.11276999999999997  1.0000
  C   C22       1.0  0.16293  0.75369  0.15228  1.0000
  C   C23       1.0  0.29525  0.80227  0.16288999999999995  1.0000
  C   C24       1.0  0.33833  0.86641  0.13495999999999997  1.0000
  C   C25       1.0  0.18687  0.6356  0.207  1.0000
  C   C26       1.0  0.08223  0.59327  0.23060999999999998  1.0000
  C   C27       1.0  0.9624899999999998  0.6829  0.19188999999999998  1.0000
  C   C28       1.0  0.74473  0.44753  0.5212099999999997  1.0000
  C   C29       1.0  0.76951  0.52673  0.5012  1.0000
  C   C30       1.0  0.80206  0.5190399999999998  0.4517299999999999  1.0000
  C   C31       1.0  0.81626  0.43209  0.4207199999999999  1.0000
  C   C32       1.0  0.79515  0.35307999999999984  0.4407099999999999  1.0000
  C   C33       1.0  0.75601  0.36047  0.4895299999999999  1.0000
  C   C34       1.0  0.8683  0.34144  0.33613  1.0000
  C   C35       1.0  0.90214  0.36709999999999987  0.29263999999999996  1.0000
  C   C36       1.0  0.8711699999999999  0.4943  0.3448199999999999  1.0000
  C   C37       1.0  0.67582  0.54292  0.6006299999999999  1.0000
  C   C38       1.0  0.55334  0.59324  0.5903099999999998  1.0000
  C   C39       1.0  0.52335  0.68004  0.6191499999999998  1.0000
  C   C40       1.0  0.61361  0.7161  0.659  1.0000
  C   C41       1.0  0.73484  0.6654699999999998  0.66953  1.0000
  C   C42       1.0  0.76649  0.57978  0.6403199999999998  1.0000
  C   C43       1.0  0.67997  0.87213  0.7088899999999998  1.0000
  C   C44       1.0  0.60184  0.9352499999999997  0.7423299999999998  1.0000
  C   C45       1.0  0.44831999999999994  0.8265699999999999  0.7137199999999999  1.0000
  C   C46       1.0  0.75077  0.38346999999999987  0.59661  1.0000
  C   C47       1.0  0.88194  0.33328999999999986  0.5860199999999998  1.0000
  C   C48       1.0  0.9236199999999999  0.26830999999999994  0.6134099999999999  1.0000
  C   C49       1.0  0.83741  0.2542699999999999  0.6529999999999998  1.0000
  C   C50       1.0  0.70484  0.3027  0.66325  1.0000
  C   C51       1.0  0.66136  0.36592999999999976  0.6348899999999997  1.0000
  C   C52       1.0  0.81008  0.13663999999999987  0.7076699999999999  1.0000
  C   C53       1.0  0.91315  0.09227999999999989  0.7308599999999997  1.0000
  C   C54       1.0  0.03617  0.18124  0.69265  1.0000
  C   C55       1.0  0.25312  0.55002  0.4784  1.0000
  C   C56       1.0  0.22727  0.47138999999999986  0.4987799999999999  1.0000
  C   C57       1.0  0.19421  0.4800599999999999  0.5482899999999998  1.0000
  C   C58       1.0  0.18083  0.5673699999999999  0.579  1.0000
  C   C59       1.0  0.20265  0.6458499999999997  0.5585999999999998  1.0000
  C   C60       1.0  0.24193  0.63749  0.50974  1.0000
  C   C61       1.0  0.12751  0.65906  0.66336  1.0000
  C   C62       1.0  0.0951  0.6338699999999999  0.7070699999999998  1.0000
  C   C63       1.0  0.12856  0.5063199999999999  0.6553999999999998  1.0000
  C   C64       1.0  0.32235  0.4538499999999999  0.3990299999999999  1.0000
  C   C65       1.0  0.44498999999999994  0.4036099999999999  0.40927999999999987  1.0000
  C   C66       1.0  0.47573000000000004  0.3172599999999998  0.38009999999999994  1.0000
  C   C67       1.0  0.38586999999999994  0.28139  0.3401  1.0000
  C   C68       1.0  0.26405  0.33178999999999986  0.32973  1.0000
  C   C69       1.0  0.23188  0.4171899999999999  0.35922  1.0000
  C   C70       1.0  0.32427  0.12370999999999993  0.2907899999999999  1.0000
  C   C71       1.0  0.40302  0.06245999999999999  0.25657  1.0000
  C   C72       1.0  0.55183  0.1746  0.28371999999999997  1.0000
  C   C73       1.0  0.2497  0.6138  0.40301999999999993  1.0000
  C   C74       1.0  0.11861  0.6639999999999998  0.41337999999999997  1.0000
  C   C75       1.0  0.07892  0.73026  0.3865899999999999  1.0000
  C   C76       1.0  0.16673999999999997  0.74537  0.34758  1.0000
  C   C77       1.0  0.29946  0.6969899999999998  0.33756  1.0000
  C   C78       1.0  0.34093  0.63243  0.3654399999999999  1.0000
  C   C79       1.0  0.19103  0.8641899999999998  0.2932  1.0000
  C   C80       1.0  0.08629000000000002  0.9061799999999999  0.26938999999999996  1.0000
  C   C81       1.0  0.96707  0.8150699999999995  0.30725999999999987  1.0000
  C   C82       1.0  0.7454499999999998  0.05215999999999991  0.9787399999999998  1.0000
  C   C83       1.0  0.77037  0.9730599999999999  0.9988399999999998  1.0000
  C   C84       1.0  0.8033299999999999  0.9809699999999998  0.0483  1.0000
  C   C85       1.0  0.8176699999999999  0.06799  0.07923  1.0000
  C   C86       1.0  0.79609  0.14687  0.05914  1.0000
  C   C87       1.0  0.75679  0.13931  0.01034  1.0000
  C   C88       1.0  0.8721  0.15922  0.16345999999999997  1.0000
  C   C89       1.0  0.90583  0.13395  0.20706  1.0000
  C   C90       1.0  0.87215  0.00646999999999999  0.15540999999999996  1.0000
  C   C91       1.0  0.67683  0.9568699999999997  0.8992899999999998  1.0000
  C   C92       1.0  0.55419  0.9066799999999997  0.9095199999999998  1.0000
  C   C93       1.0  0.52403  0.8200299999999998  0.88058  1.0000
  C   C94       1.0  0.61437  0.7839099999999998  0.8407499999999999  1.0000
  C   C95       1.0  0.73612  0.83424  0.83041  1.0000
  C   C96       1.0  0.76782  0.9198399999999998  0.85969  1.0000
  C   C97       1.0  0.67925  0.6273399999999999  0.79106  1.0000
  C   C98       1.0  0.6016  0.56547  0.75687  1.0000
  C   C99       1.0  0.44955999999999996  0.6755199999999997  0.7847599999999998  1.0000
  C   C100      1.0  0.7514  0.11642999999999991  0.9034399999999998  1.0000
  C   C101      1.0  0.8825599999999999  0.16647999999999982  0.9140799999999998  1.0000
  C   C102      1.0  0.92404  0.23180999999999988  0.8869099999999998  1.0000
  C   C103      1.0  0.83763  0.24636999999999987  0.8474499999999998  1.0000
  C   C104      1.0  0.70506  0.19806  0.83719  1.0000
  C   C105      1.0  0.66182  0.13444999999999988  0.8653299999999998  1.0000
  C   C106      1.0  0.81016  0.36361999999999983  0.7925299999999997  1.0000
  C   C107      1.0  0.91318  0.4074399999999999  0.7690699999999998  1.0000
  C   C108      1.0  0.03627  0.31937999999999983  0.8078399999999998  1.0000
  N   N1        1.0  0.54435  0.41007999999999983  0.24365999999999993  1.0000
  N   N2        1.0  0.41992  0.30414  0.19029  1.0000
  N   N3        1.0  0.28881  0.9559999999999997  0.07149  1.0000
  N   N4        1.0  0.15073  0.9246199999999997  0.8704099999999998  1.0000
  N   N5        1.0  0.09675  0.9629099999999998  0.79843  1.0000
  N   N6        1.0  0.10919  0.6930599999999998  0.18175  1.0000
  N   N7        1.0  0.9429099999999999  0.62345  0.22099  1.0000
  N   N8        1.0  0.45821999999999996  0.9061699999999996  0.74535  1.0000
  N   N9        1.0  0.58051  0.80223  0.69023  1.0000
  N   N10       1.0  0.71041  0.45441999999999977  0.5710499999999997  1.0000
  N   N11       1.0  0.84813  0.42362999999999984  0.37008999999999986  1.0000
  N   N12       1.0  0.9048299999999999  0.4621599999999999  0.29839  1.0000
  N   N13       1.0  0.8898800000000001  0.19364999999999985  0.6827399999999998  1.0000
  N   N14       1.0  0.05337  0.12080999999999993  0.72137  1.0000
  N   N15       1.0  0.544  0.09486999999999993  0.25213999999999986  1.0000
  N   N16       1.0  0.42081  0.19583999999999993  0.30855  1.0000
  N   N17       1.0  0.28827  0.5424499999999998  0.4285699999999999  1.0000
  N   N18       1.0  0.14914  0.5766199999999998  0.6296899999999999  1.0000
  N   N19       1.0  0.09522999999999998  0.5388899999999998  0.7018099999999998  1.0000
  N   N20       1.0  0.11361999999999998  0.8058699999999998  0.31794  1.0000
  N   N21       1.0  0.9472199999999998  0.87475  0.27829999999999994  1.0000
  N   N22       1.0  0.45927  0.5961799999999998  0.75292  1.0000
  N   N23       1.0  0.58067  0.69813  0.80929  1.0000
  N   N24       1.0  0.71113  0.04531999999999991  0.9289099999999998  1.0000
  N   N25       1.0  0.85033  0.07682  0.12982  1.0000
  N   N26       1.0  0.9069500000000001  0.03896999999999996  0.20169999999999993  1.0000
  N   N27       1.0  0.8899799999999999  0.3071699999999999  0.8178299999999997  1.0000
  N   N28       1.0  0.05346999999999999  0.3791199999999999  0.7787499999999998  1.0000
