data_image0
_chemical_formula_structural       Cd4H44C84O24
_chemical_formula_sum              "Cd4 H44 C84 O24"
_cell_length_a       14.24573
_cell_length_b       20.50013
_cell_length_c       20.13188
_cell_angle_alpha    90.02581
_cell_angle_beta     101.84452
_cell_angle_gamma    90.03553

_symmetry_space_group_name_H-M    'P 1'
_symmetry_Int_Tables_number       1

loop_
  _symmetry_equiv_pos_as_xyz
  'x,y,z'

loop_
  _atom_site_type_symbol
  _atom_site_label
  _atom_site_symmetry_multiplicity
  _atom_site_fract_x
  _atom_site_fract_y
  _atom_site_fract_z
  _atom_site_occupancy
  Cd  Cd1       1.0  0.10625  0.04184  0.03598  1.0000
  Cd  Cd2       1.0  0.10646999999999998  0.45803999999999995  0.53603  1.0000
  Cd  Cd3       1.0  0.8935399999999999  0.54196  0.46396999999999994  1.0000
  Cd  Cd4       1.0  0.89376  0.9581599999999999  0.96402  1.0000
  H   H1        1.0  0.05877999999999999  0.20638999999999993  0.88434  1.0000
  H   H2        1.0  0.75216  0.43293  0.56774  1.0000
  H   H3        1.0  0.54506  0.00803  0.9475299999999999  1.0000
  H   H4        1.0  0.79648  0.39678  0.31228  1.0000
  H   H5        1.0  0.0065599999999999626  0.2946  0.7994099999999998  1.0000
  H   H6        1.0  0.44826  0.78886  0.85174  1.0000
  H   H7        1.0  0.45482  0.5073799999999999  0.55226  1.0000
  H   H8        1.0  0.99345  0.7053899999999999  0.20059  1.0000
  H   H9        1.0  0.45495  0.99197  0.05247  1.0000
  H   H10       1.0  0.75189  0.06708  0.06761  1.0000
  H   H11       1.0  0.4476300000000001  0.7112299999999998  0.35153  1.0000
  H   H12       1.0  0.058950000000000016  0.29368  0.38468  1.0000
  H   H13       1.0  0.37939  0.18123  0.11567  1.0000
  H   H14       1.0  0.55175  0.21112999999999998  0.14826  1.0000
  H   H15       1.0  0.25807  0.69062  0.77316  1.0000
  H   H16       1.0  0.021409999999999936  0.8213599999999999  0.8134899999999999  1.0000
  H   H17       1.0  0.9410600000000001  0.70632  0.61533  1.0000
  H   H18       1.0  0.79585  0.10338  0.8117  1.0000
  H   H19       1.0  0.54519  0.49261999999999995  0.44774  1.0000
  H   H20       1.0  0.37261  0.52056  0.41653  1.0000
  H   H21       1.0  0.62062  0.81876  0.88433  1.0000
  H   H22       1.0  0.68899  0.20543  0.21532999999999997  1.0000
  H   H23       1.0  0.9786700000000003  0.32121  0.6860699999999998  1.0000
  H   H24       1.0  0.62007  0.68202  0.38396  1.0000
  H   H25       1.0  0.55238  0.28876999999999997  0.6484699999999999  1.0000
  H   H26       1.0  0.24784  0.5670699999999999  0.43226  1.0000
  H   H27       1.0  0.9786  0.17863  0.18651  1.0000
  H   H28       1.0  0.6274  0.4794399999999999  0.58347  1.0000
  H   H29       1.0  0.20353  0.60321  0.68772  1.0000
  H   H30       1.0  0.94122  0.7936  0.11565999999999999  1.0000
  H   H31       1.0  0.24812  0.93291  0.93239  1.0000
  H   H32       1.0  0.00663000000000001  0.2056  0.29952  1.0000
  H   H33       1.0  0.74169  0.19103  0.72658  1.0000
  H   H34       1.0  0.74194  0.30938  0.22684  1.0000
  H   H35       1.0  0.20416  0.89662  0.1883  1.0000
  H   H36       1.0  0.62746  0.02048  0.08331  1.0000
  H   H37       1.0  0.6892  0.29471  0.7155099999999999  1.0000
  H   H38       1.0  0.31081  0.7052899999999999  0.28449  1.0000
  H   H39       1.0  0.02134  0.67878  0.31393  1.0000
  H   H40       1.0  0.37994  0.3179699999999999  0.61604  1.0000
  H   H41       1.0  0.2583200000000001  0.8089699999999999  0.27342  1.0000
  H   H42       1.0  0.37255  0.9795199999999998  0.9166899999999999  1.0000
  H   H43       1.0  0.99338  0.7943899999999998  0.70048  1.0000
  H   H44       1.0  0.3110200000000001  0.79457  0.7846699999999998  1.0000
  C   C1        1.0  0.43493  0.14675  0.10954999999999998  1.0000
  C   C2        1.0  0.46818  0.6629699999999998  0.37166  1.0000
  C   C3        1.0  0.83677  0.19886  0.2071  1.0000
  C   C4        1.0  0.69677  0.93232  0.9371499999999999  1.0000
  C   C5        1.0  0.039509999999999997  0.75251  0.6983  1.0000
  C   C6        1.0  0.57408  0.4437599999999999  0.59109  1.0000
  C   C7        1.0  0.81068  0.30501  0.26194  1.0000
  C   C8        1.0  0.22639  0.8969899999999998  0.89232  1.0000
  C   C9        1.0  0.8696  0.24964999999999998  0.75731  1.0000
  C   C10       1.0  0.52258  0.9603  0.92654  1.0000
  C   C11       1.0  0.010069999999999994  0.79628  0.1509  1.0000
  C   C12       1.0  0.09714  0.6662099999999999  0.32518  1.0000
  C   C13       1.0  0.53183  0.33703  0.62834  1.0000
  C   C14       1.0  0.59304  0.91513  0.91776  1.0000
  C   C15       1.0  0.26076  0.68219  0.31129  1.0000
  C   C16       1.0  0.6035499999999999  0.38206  0.6194499999999998  1.0000
  C   C17       1.0  0.09720999999999998  0.83397  0.8250299999999999  1.0000
  C   C18       1.0  0.93026  0.14984999999999998  0.8527899999999999  1.0000
  C   C19       1.0  0.98994  0.20371  0.8490999999999999  1.0000
  C   C20       1.0  0.593  0.58555  0.41776  1.0000
  C   C21       1.0  0.06956000000000002  0.64986  0.64663  1.0000
  C   C22       1.0  0.30323  0.06768  0.06285  1.0000
  C   C23       1.0  0.9406699999999999  0.41597  0.5906299999999999  1.0000
  C   C24       1.0  0.39646  0.61794  0.38055  1.0000
  C   C25       1.0  0.13033  0.7494999999999998  0.7425899999999999  1.0000
  C   C26       1.0  0.18956  0.8048199999999999  0.2383  1.0000
  C   C27       1.0  0.9028  0.16602  0.17497  1.0000
  C   C28       1.0  0.4774300000000001  0.03969999999999999  0.07346  1.0000
  C   C29       1.0  0.57407  0.05601999999999999  0.09103  1.0000
  C   C30       1.0  0.18933  0.69499  0.73806  1.0000
  C   C31       1.0  0.1289  0.6189  0.3744  1.0000
  C   C32       1.0  0.29406  0.63461  0.36082  1.0000
  C   C33       1.0  0.7059500000000001  0.36539  0.63918  1.0000
  C   C34       1.0  0.60337  0.11784  0.11939  1.0000
  C   C35       1.0  0.56508  0.85325  0.8904499999999999  1.0000
  C   C36       1.0  0.40701000000000004  0.41444999999999993  0.58224  1.0000
  C   C37       1.0  0.30331  0.43163  0.56284  1.0000
  C   C38       1.0  0.5315  0.16276  0.12816  1.0000
  C   C39       1.0  0.96079  0.40335999999999994  0.40537  1.0000
  C   C40       1.0  0.96078  0.09644999999999998  0.9045  1.0000
  C   C41       1.0  0.39664  0.8821599999999998  0.88061  1.0000
  C   C42       1.0  0.05934  0.58403  0.40937  1.0000
  C   C43       1.0  0.42594000000000004  0.9439699999999999  0.90897  1.0000
  C   C44       1.0  0.03923  0.9035399999999999  0.0955  1.0000
  C   C45       1.0  0.9900500000000002  0.29633  0.34949  1.0000
  C   C46       1.0  0.1632  0.6987799999999998  0.2929  1.0000
  C   C47       1.0  0.06975  0.8501499999999999  0.14721  1.0000
  C   C48       1.0  0.4773899999999999  0.45976999999999996  0.5734099999999999  1.0000
  C   C49       1.0  0.86968  0.25049999999999994  0.25741  1.0000
  C   C50       1.0  0.56483  0.6472799999999999  0.39022  1.0000
  C   C51       1.0  0.84069  0.35419  0.30895  1.0000
  C   C52       1.0  0.52262  0.54023  0.42659  1.0000
  C   C53       1.0  0.87111  0.3811  0.6256  1.0000
  C   C54       1.0  0.26086  0.81771  0.8113299999999998  1.0000
  C   C55       1.0  0.15965  0.8541199999999999  0.19153  1.0000
  C   C56       1.0  0.40696  0.08487  0.08224  1.0000
  C   C57       1.0  0.8104500000000001  0.19518  0.7617  1.0000
  C   C58       1.0  0.15932  0.6457999999999999  0.69105  1.0000
  C   C59       1.0  0.87101  0.11855999999999998  0.12572  1.0000
  C   C60       1.0  0.05969999999999999  0.9167999999999998  0.90921  1.0000
  C   C61       1.0  0.43518  0.35271  0.60978  1.0000
  C   C62       1.0  0.22619  0.60309  0.39234  1.0000
  C   C63       1.0  0.42592  0.55623  0.40890999999999994  1.0000
  C   C64       1.0  0.73925  0.31781  0.68871  1.0000
  C   C65       1.0  0.69669  0.56837  0.43716  1.0000
  C   C66       1.0  0.03922  0.5966299999999999  0.5946299999999999  1.0000
  C   C67       1.0  0.46851  0.8372299999999999  0.87184  1.0000
  C   C68       1.0  0.03955  0.74733  0.19848  1.0000
  C   C69       1.0  0.13041  0.7503399999999999  0.24268999999999996  1.0000
  C   C70       1.0  0.9604600000000001  0.25265999999999994  0.80152  1.0000
  C   C71       1.0  0.77382  0.39691  0.60766  1.0000
  C   C72       1.0  0.83681  0.30122  0.7071  1.0000
  C   C73       1.0  0.00996  0.70366  0.65051  1.0000
  C   C74       1.0  0.12900000000000006  0.88144  0.87428  1.0000
  C   C75       1.0  0.94031  0.0832  0.09079  1.0000
  C   C76       1.0  0.73915  0.18227999999999997  0.18868  1.0000
  C   C77       1.0  0.77362  0.10299999999999998  0.10768  1.0000
  C   C78       1.0  0.29422  0.86539  0.86084  1.0000
  C   C79       1.0  0.16324  0.8011299999999999  0.7929  1.0000
  C   C80       1.0  0.90287  0.33378  0.67483  1.0000
  C   C81       1.0  0.9605  0.24748  0.3017  1.0000
  C   C82       1.0  0.8403599999999999  0.14587  0.80847  1.0000
  C   C83       1.0  0.9304500000000001  0.35014  0.35337  1.0000
  C   C84       1.0  0.7057900000000001  0.13461  0.13916  1.0000
  O   O1        1.0  0.72318  0.5195599999999999  0.4754999999999999  1.0000
  O   O2        1.0  0.09588  0.54822  0.59953  1.0000
  O   O3        1.0  0.72328  0.98194  0.97422  1.0000
  O   O4        1.0  0.038349999999999995  0.39311999999999997  0.44816  1.0000
  O   O5        1.0  0.9722  0.89915  0.89514  1.0000
  O   O6        1.0  0.24251000000000003  0.10378  0.08436  1.0000
  O   O7        1.0  0.90453  0.03867  0.0499  1.0000
  O   O8        1.0  0.7572799999999998  0.6034  0.41422999999999993  1.0000
  O   O9        1.0  0.027270000000000016  0.39640999999999993  0.60287  1.0000
  O   O10       1.0  0.24273  0.3966  0.58577  1.0000
  O   O11       1.0  0.90413  0.45176999999999995  0.40047  1.0000
  O   O12       1.0  0.27673  0.01806  0.02578  1.0000
  O   O13       1.0  0.027809999999999998  0.10083999999999999  0.10485999999999998  1.0000
  O   O14       1.0  0.09432  0.53782  0.44828  1.0000
  O   O15       1.0  0.09568  0.9521399999999998  0.10091  1.0000
  O   O16       1.0  0.27683  0.48043  0.5245  1.0000
  O   O17       1.0  0.09547999999999998  0.9613199999999997  0.9500999999999998  1.0000
  O   O18       1.0  0.7575  0.89621  0.91564  1.0000
  O   O19       1.0  0.90433  0.047859999999999986  0.8990899999999998  1.0000
  O   O20       1.0  0.97274  0.60359  0.39713  1.0000
  O   O21       1.0  0.03831000000000002  0.10672999999999999  0.9474  1.0000
  O   O22       1.0  0.96165  0.60688  0.55184  1.0000
  O   O23       1.0  0.9617  0.8932699999999999  0.0526  1.0000
  O   O24       1.0  0.90569  0.4621799999999999  0.55172  1.0000
