data_image0
_chemical_formula_structural       Gd4Ag12H28C72N24O50
_chemical_formula_sum              "Gd4 Ag12 H28 C72 N24 O50"
_cell_length_a       13.67243
_cell_length_b       13.20558
_cell_length_c       16.1683
_cell_angle_alpha    85.22951000000002
_cell_angle_beta     85.21435
_cell_angle_gamma    67.6979

_symmetry_space_group_name_H-M    'P 1'
_symmetry_Int_Tables_number       1

loop_
  _symmetry_equiv_pos_as_xyz
  'x,y,z'

loop_
  _atom_site_type_symbol
  _atom_site_label
  _atom_site_symmetry_multiplicity
  _atom_site_fract_x
  _atom_site_fract_y
  _atom_site_fract_z
  _atom_site_occupancy
  Gd  Gd1       1.0  0.7394299999999999  0.42774  0.34431  1.0000
  Gd  Gd2       1.0  0.07033999999999997  0.32121000000000005  0.11036  1.0000
  Gd  Gd3       1.0  0.24356999999999993  0.573  0.66443  1.0000
  Gd  Gd4       1.0  0.9318900000000001  0.6778  0.8905500000000002  1.0000
  Ag  Ag1       1.0  0.73029  0.09427  0.26002  1.0000
  Ag  Ag2       1.0  0.6358  0.53387  0.6946  1.0000
  Ag  Ag3       1.0  0.44358  0.10814  0.58601  1.0000
  Ag  Ag4       1.0  0.34326  0.51117  0.00019000000000000006  1.0000
  Ag  Ag5       1.0  0.9257899999999997  0.89026  0.09029  1.0000
  Ag  Ag6       1.0  0.005169999999999994  0.47528  0.63643  1.0000
  Ag  Ag7       1.0  0.27399999999999997  0.9026300000000002  0.73762  1.0000
  Ag  Ag8       1.0  0.36322000000000004  0.46781  0.30481000000000014  1.0000
  Ag  Ag9       1.0  0.5575299999999997  0.89335  0.41218  1.0000
  Ag  Ag10      1.0  0.6582599999999998  0.4896400000000001  0.99842  1.0000
  Ag  Ag11      1.0  0.07207999999999998  0.11189000000000002  0.91211  1.0000
  Ag  Ag12      1.0  0.9895099999999997  0.51995  0.3662400000000001  1.0000
  H   H1        1.0  0.7668499999999998  0.88269  0.53031  1.0000
  H   H2        1.0  0.9175699999999999  0.73005  0.60341  1.0000
  H   H3        1.0  0.9284199999999997  0.93776  0.35296  1.0000
  H   H4        1.0  0.01299999999999991  0.7345400000000001  0.39464  1.0000
  H   H5        1.0  0.6940899999999998  0.73826  0.72648  1.0000
  H   H6        1.0  0.6066199999999998  0.9448600000000003  0.70578  1.0000
  H   H7        1.0  0.7650799999999996  0.29927  0.71118  1.0000
  H   H8        1.0  0.8885199999999998  0.15225000000000002  0.80566  1.0000
  H   H9        1.0  0.6546  0.25267  0.94657  1.0000
  H   H10       1.0  0.76433  0.04764000000000001  0.97201  1.0000
  H   H11       1.0  0.40508  0.25287  0.05180000000000001  1.0000
  H   H12       1.0  0.5497299999999996  0.10376  0.13294  1.0000
  H   H13       1.0  0.7235600000000001  0.26695  0.46851  1.0000
  H   H14       1.0  0.81737  0.29912  0.49327  1.0000
  H   H15       1.0  0.23807  0.11489  0.46934  1.0000
  H   H16       1.0  0.08313999999999999  0.26558  0.39912  1.0000
  H   H17       1.0  0.07224000000000001  0.055959999999999996  0.64705  1.0000
  H   H18       1.0  0.98586  0.25906  0.6055  1.0000
  H   H19       1.0  0.3080199999999999  0.26798  0.27549  1.0000
  H   H20       1.0  0.39365999999999995  0.06125000000000003  0.29431  1.0000
  H   H21       1.0  0.23546999999999998  0.70239  0.28829  1.0000
  H   H22       1.0  0.11036999999999991  0.8495900000000001  0.19494  1.0000
  H   H23       1.0  0.3463899999999999  0.74589  0.052530000000000014  1.0000
  H   H24       1.0  0.23674999999999988  0.9511000000000002  0.0284  1.0000
  H   H25       1.0  0.5934700000000002  0.74607  0.94812  1.0000
  H   H26       1.0  0.44946999999999954  0.8942000000000001  0.8657600000000002  1.0000
  H   H27       1.0  0.2778700000000001  0.72866  0.54201  1.0000
  H   H28       1.0  0.18521  0.69772  0.5117  1.0000
  C   C1        1.0  0.72421  0.6667900000000001  0.48309  1.0000
  C   C2        1.0  0.8088899999999998  0.58196  0.52119  1.0000
  C   C3        1.0  0.78014  0.79596  0.52848  1.0000
  C   C4        1.0  0.86162  0.71272  0.5685500000000002  1.0000
  C   C5        1.0  0.83638  0.46091  0.51042  1.0000
  C   C6        1.0  0.64516  0.6439  0.43497  1.0000
  C   C7        1.0  0.83287  0.73035  0.27219  1.0000
  C   C8        1.0  0.79429  0.84165  0.24217  1.0000
  C   C9        1.0  0.9038700000000001  0.87732  0.32873  1.0000
  C   C10       1.0  0.9476199999999997  0.76696  0.35346  1.0000
  C   C11       1.0  0.79125  0.64825  0.24181  1.0000
  C   C12       1.0  0.71252  0.89482  0.17733  1.0000
  C   C13       1.0  0.49742000000000003  0.75671  0.61428  1.0000
  C   C14       1.0  0.45265999999999973  0.8712800000000003  0.59882  1.0000
  C   C15       1.0  0.6241599999999998  0.77688  0.69074  1.0000
  C   C16       1.0  0.57728  0.88996  0.6786  1.0000
  C   C17       1.0  0.44027  0.68833  0.586  1.0000
  C   C18       1.0  0.35592999999999997  0.9301000000000001  0.54841  1.0000
  C   C19       1.0  0.8571199999999999  0.44955  0.80807  1.0000
  C   C20       1.0  0.9270999999999999  0.36779999999999996  0.86039  1.0000
  C   C21       1.0  0.81115  0.31909  0.75441  1.0000
  C   C22       1.0  0.8789599999999999  0.23797  0.80629  1.0000
  C   C23       1.0  0.8447099999999997  0.56846  0.8097  1.0000
  C   C24       1.0  0.9916399999999999  0.39561  0.91939  1.0000
  C   C25       1.0  0.83339  0.26354  0.06647  1.0000
  C   C26       1.0  0.8989  0.15116  0.07564  1.0000
  C   C27       1.0  0.7237699999999998  0.22200000000000003  0.9842500000000002  1.0000
  C   C28       1.0  0.78472  0.11061  0.9971  1.0000
  C   C29       1.0  0.85188  0.35734  0.10226  1.0000
  C   C30       1.0  0.0029299999999999977  0.10165000000000002  0.12061  1.0000
  C   C31       1.0  0.50211  0.40735  0.14013  1.0000
  C   C32       1.0  0.5877999999999998  0.3237  0.17777  1.0000
  C   C33       1.0  0.45633999999999997  0.27267  0.09025  1.0000
  C   C34       1.0  0.5367899999999999  0.19071000000000002  0.13273  1.0000
  C   C35       1.0  0.4725999999999999  0.53076  0.14527  1.0000
  C   C36       1.0  0.6659199999999998  0.351  0.22106  1.0000
  C   C37       1.0  0.2737  0.3334  0.51979  1.0000
  C   C38       1.0  0.18808  0.41691  0.48184  1.0000
  C   C39       1.0  0.22220999999999988  0.20208  0.47226  1.0000
  C   C40       1.0  0.13864  0.28438  0.43356  1.0000
  C   C41       1.0  0.1601  0.53788  0.4922700000000001  1.0000
  C   C42       1.0  0.3494499999999999  0.35751  0.5711100000000002  1.0000
  C   C43       1.0  0.16108999999999998  0.26603  0.73137  1.0000
  C   C44       1.0  0.20164000000000004  0.15456  0.76068  1.0000
  C   C45       1.0  0.09512  0.11700000000000002  0.67228  1.0000
  C   C46       1.0  0.05024000000000001  0.22735  0.6476  1.0000
  C   C47       1.0  0.19987999999999995  0.34888  0.76344  1.0000
  C   C48       1.0  0.28475  0.10152  0.82482  1.0000
  C   C49       1.0  0.506  0.2458  0.38756  1.0000
  C   C50       1.0  0.5494699999999998  0.13093999999999997  0.4020200000000001  1.0000
  C   C51       1.0  0.37807  0.22816  0.31093  1.0000
  C   C52       1.0  0.42409  0.11494  0.32194  1.0000
  C   C53       1.0  0.56431  0.31135  0.4184700000000001  1.0000
  C   C54       1.0  0.6461  0.07128  0.45192  1.0000
  C   C55       1.0  0.14089999999999997  0.55253  0.19338  1.0000
  C   C56       1.0  0.07053000000000001  0.63415  0.14129  1.0000
  C   C57       1.0  0.18826999999999994  0.68276  0.24591  1.0000
  C   C58       1.0  0.11971999999999997  0.7638900000000001  0.19455  1.0000
  C   C59       1.0  0.15286  0.43382  0.19246000000000005  1.0000
  C   C60       1.0  0.00618  0.60595  0.08213  1.0000
  C   C61       1.0  0.16771999999999995  0.73652  0.93177  1.0000
  C   C62       1.0  0.10256000000000004  0.84902  0.92326  1.0000
  C   C63       1.0  0.27728  0.77699  0.01478  1.0000
  C   C64       1.0  0.21638  0.88856  0.00262  1.0000
  C   C65       1.0  0.14831999999999995  0.6434000000000001  0.89574  1.0000
  C   C66       1.0  0.9984100000000001  0.89851  0.87888  1.0000
  C   C67       1.0  0.49838999999999994  0.59014  0.85967  1.0000
  C   C68       1.0  0.41407000000000005  0.6731  0.82025  1.0000
  C   C69       1.0  0.5429399999999998  0.72572  0.90935  1.0000
  C   C70       1.0  0.46325999999999984  0.8070499999999999  0.86585  1.0000
  C   C71       1.0  0.5279099999999998  0.46685000000000004  0.85485  1.0000
  C   C72       1.0  0.3367299999999999  0.64517  0.77679  1.0000
  N   N1        1.0  0.8754599999999998  0.60648  0.56565  1.0000
  N   N2        1.0  0.7109699999999998  0.77222  0.4871  1.0000
  N   N3        1.0  0.9109699999999998  0.6949200000000001  0.326  1.0000
  N   N4        1.0  0.82916  0.91379  0.27265  1.0000
  N   N5        1.0  0.60289  0.21713  0.17596  1.0000
  N   N6        1.0  0.43801999999999996  0.37969  0.09479  1.0000
  N   N7        1.0  0.49256999999999995  0.9366300000000001  0.63242  1.0000
  N   N8        1.0  0.58326  0.71084  0.6594000000000002  1.0000
  N   N9        1.0  0.8001199999999998  0.4246500000000001  0.7549  1.0000
  N   N10       1.0  0.9373499999999999  0.262  0.85887  1.0000
  N   N11       1.0  0.7480499999999998  0.29696  0.01971  1.0000
  N   N12       1.0  0.87095  0.07584  0.04191000000000002  1.0000
  N   N13       1.0  0.12226999999999996  0.3911700000000001  0.43726  1.0000
  N   N14       1.0  0.2900699999999999  0.2274  0.5139900000000002  1.0000
  N   N15       1.0  0.08426000000000003  0.3005  0.67649  1.0000
  N   N16       1.0  0.1688  0.08151000000000001  0.72915  1.0000
  N   N17       1.0  0.39859999999999995  0.77985  0.82157  1.0000
  N   N18       1.0  0.56156  0.61854  0.9053600000000003  1.0000
  N   N19       1.0  0.50914  0.06659  0.36761  1.0000
  N   N20       1.0  0.4200499999999999  0.29322  0.3427000000000001  1.0000
  N   N21       1.0  0.19903  0.57728  0.24563  1.0000
  N   N22       1.0  0.06071999999999998  0.7398300000000001  0.14249  1.0000
  N   N23       1.0  0.25284999999999996  0.70239  0.97888  1.0000
  N   N24       1.0  0.13005000000000003  0.92387  0.95794  1.0000
  O   O1        1.0  0.8763299999999999  0.42938  0.4373500000000001  1.0000
  O   O2        1.0  0.82394  0.39969  0.57026  1.0000
  O   O3        1.0  0.65149  0.54364  0.44187  1.0000
  O   O4        1.0  0.5818199999999999  0.71825  0.39156  1.0000
  O   O5        1.0  0.8048099999999999  0.56103  0.29144  1.0000
  O   O6        1.0  0.75091  0.67121  0.17401  1.0000
  O   O7        1.0  0.6177399999999997  0.9294600000000001  0.20359000000000005  1.0000
  O   O8        1.0  0.7505699999999998  0.90977  0.10407  1.0000
  O   O9        1.0  0.038359999999999964  0.32170000000000004  0.97423  1.0000
  O   O10       1.0  0.99487  0.49003  0.9121  1.0000
  O   O11       1.0  0.78537  0.6265499999999999  0.86735  1.0000
  O   O12       1.0  0.90056  0.60583  0.7584  1.0000
  O   O13       1.0  0.9109800000000001  0.33416  0.16593  1.0000
  O   O14       1.0  0.81511  0.44976  0.06628000000000003  1.0000
  O   O15       1.0  0.07043999999999999  0.14992  0.10784  1.0000
  O   O16       1.0  0.018180000000000005  0.014750000000000001  0.16276  1.0000
  O   O17       1.0  0.7379499999999997  0.27594  0.26159  1.0000
  O   O18       1.0  0.65699  0.45059  0.21681  1.0000
  O   O19       1.0  0.41489000000000004  0.57509  0.20803  1.0000
  O   O20       1.0  0.49877999999999983  0.58087  0.08294  1.0000
  O   O21       1.0  0.44493000000000005  0.60238  0.6297  1.0000
  O   O22       1.0  0.38556  0.73158  0.52405  1.0000
  O   O23       1.0  0.26723999999999987  0.9493400000000002  0.58785  1.0000
  O   O24       1.0  0.37199999999999994  0.96341  0.47492  1.0000
  O   O25       1.0  0.7911300000000001  0.27724  0.4455  1.0000
  O   O26       1.0  0.11464999999999996  0.57121  0.56369  1.0000
  O   O27       1.0  0.17844000000000002  0.59685  0.43335  1.0000
  O   O28       1.0  0.33847999999999995  0.45913  0.5692100000000002  1.0000
  O   O29       1.0  0.41435  0.28244  0.61272  1.0000
  O   O30       1.0  0.18088999999999988  0.43944  0.7165  1.0000
  O   O31       1.0  0.24371999999999996  0.32410999999999995  0.82973  1.0000
  O   O32       1.0  0.3789499999999999  0.06655  0.7970200000000002  1.0000
  O   O33       1.0  0.24866  0.08657000000000001  0.89881  1.0000
  O   O34       1.0  0.9574699999999999  0.68098  0.02858  1.0000
  O   O35       1.0  0.005799999999999978  0.51037  0.08777  1.0000
  O   O36       1.0  0.21506  0.37382  0.13693  1.0000
  O   O37       1.0  0.09434999999999998  0.39827  0.2423  1.0000
  O   O38       1.0  0.09127999999999996  0.6664  0.83046  1.0000
  O   O39       1.0  0.18122  0.55186  0.9334900000000003  1.0000
  O   O40       1.0  0.9322300000000002  0.8486700000000001  0.89189  1.0000
  O   O41       1.0  0.98167  0.98604  0.83736  1.0000
  O   O42       1.0  0.26585999999999993  0.72017  0.73514  1.0000
  O   O43       1.0  0.3428799999999998  0.54631  0.78335  1.0000
  O   O44       1.0  0.5858  0.42363  0.79206  1.0000
  O   O45       1.0  0.5013099999999999  0.4163500000000001  0.91688  1.0000
  O   O46       1.0  0.5708000000000001  0.39133  0.37117  1.0000
  O   O47       1.0  0.6086499999999998  0.27296  0.48532  1.0000
  O   O48       1.0  0.73416  0.05552  0.41254  1.0000
  O   O49       1.0  0.6300399999999999  0.03599  0.52478  1.0000
  O   O50       1.0  0.20808000000000004  0.7183399999999999  0.56174  1.0000
