data_image0
_chemical_formula_structural       Pr4H64C90S6O50
_chemical_formula_sum              "Pr4 H64 C90 S6 O50"
_cell_length_a       9.32631
_cell_length_b       15.75632
_cell_length_c       22.16225
_cell_angle_alpha    103.45978
_cell_angle_beta     101.41342
_cell_angle_gamma    105.76549

_symmetry_space_group_name_H-M    'P 1'
_symmetry_Int_Tables_number       1

loop_
  _symmetry_equiv_pos_as_xyz
  'x,y,z'

loop_
  _atom_site_type_symbol
  _atom_site_label
  _atom_site_symmetry_multiplicity
  _atom_site_fract_x
  _atom_site_fract_y
  _atom_site_fract_z
  _atom_site_occupancy
  Pr  Pr1       1.0  0.51786  0.8575  0.80931  1.0000
  Pr  Pr2       1.0  0.030490000000000014  0.9076  0.85412  1.0000
  Pr  Pr3       1.0  0.48226  0.14463  0.19228  1.0000
  Pr  Pr4       1.0  0.9689699999999998  0.09238  0.14611  1.0000
  H   H1        1.0  0.8692499999999995  0.8408299999999996  0.6748499999999998  1.0000
  H   H2        1.0  0.72534  0.84216  0.56783  1.0000
  H   H3        1.0  0.29844000000000004  0.9207100000000001  0.62501  1.0000
  H   H4        1.0  0.6394999999999998  0.78545  0.45385  1.0000
  H   H5        1.0  0.6619  0.90474  0.49068999999999996  1.0000
  H   H6        1.0  0.6679699999999997  0.8655499999999999  0.40874  1.0000
  H   H7        1.0  0.9642999999999999  0.8436499999999998  0.37093  1.0000
  H   H8        1.0  0.9451599999999999  0.90412  0.27517  1.0000
  H   H9        1.0  0.44148999999999994  0.005200000000000004  0.31921  1.0000
  H   H10       1.0  0.46342  0.9479  0.41645999999999994  1.0000
  H   H11       1.0  0.9872399999999998  0.6641899999999997  0.9164  1.0000
  H   H12       1.0  0.9207099999999998  0.50871  0.93412  1.0000
  H   H13       1.0  0.28206999999999993  0.45446  0.8523699999999999  1.0000
  H   H14       1.0  0.34972  0.61204  0.8366  1.0000
  H   H15       1.0  0.07475  0.24294  0.01374  1.0000
  H   H16       1.0  0.48307  0.16291  0.029649999999999992  1.0000
  H   H17       1.0  0.5974  0.28047999999999995  0.97986  1.0000
  H   H18       1.0  0.6962699999999997  0.42999999999999994  0.9784299999999999  1.0000
  H   H19       1.0  0.60965  0.34583  0.89988  1.0000
  H   H20       1.0  0.6273699999999999  0.46466999999999997  0.90982  1.0000
  H   H21       1.0  0.57765  0.55417  0.80611  1.0000
  H   H22       1.0  0.007899999999999912  0.56433  0.7036099999999998  1.0000
  H   H23       1.0  0.9310799999999999  0.7031  0.73405  1.0000
  H   H24       1.0  0.9670399999999999  0.4061  0.64662  1.0000
  H   H25       1.0  0.10532000000000002  0.45263  0.7257  1.0000
  H   H26       1.0  0.007730000000000058  0.33055  0.69163  1.0000
  H   H27       1.0  0.24925  0.27361  0.79809  1.0000
  H   H28       1.0  0.21299999999999994  0.15340999999999994  0.85448  1.0000
  H   H29       1.0  0.6048499999999997  0.0888299999999999  0.8072899999999998  1.0000
  H   H30       1.0  0.6410299999999998  0.20836  0.74915  1.0000
  H   H31       1.0  0.5314899999999997  0.7495499999999998  0.66403  1.0000
  H   H32       1.0  0.3986899999999999  0.7925999999999999  0.66817  1.0000
  H   H33       1.0  0.13156  0.15945  0.32513  1.0000
  H   H34       1.0  0.27689  0.15667  0.43145  1.0000
  H   H35       1.0  0.7044199999999998  0.08216999999999998  0.37689  1.0000
  H   H36       1.0  0.36142999999999975  0.21423999999999996  0.5462799999999999  1.0000
  H   H37       1.0  0.34361  0.09561  0.5099  1.0000
  H   H38       1.0  0.33504999999999996  0.13426999999999997  0.59154  1.0000
  H   H39       1.0  0.03785999999999993  0.15710999999999997  0.6300099999999998  1.0000
  H   H40       1.0  0.055239999999999984  0.09551000000000005  0.72521  1.0000
  H   H41       1.0  0.5587099999999999  0.99552  0.68051  1.0000
  H   H42       1.0  0.5386299999999999  0.05359999999999997  0.5835899999999999  1.0000
  H   H43       1.0  0.012579999999999977  0.33583  0.08356999999999999  1.0000
  H   H44       1.0  0.07927999999999996  0.49119  0.06573  1.0000
  H   H45       1.0  0.71838  0.54595  0.14764  1.0000
  H   H46       1.0  0.65025  0.38842  0.16333  1.0000
  H   H47       1.0  0.9259399999999999  0.75792  0.98682  1.0000
  H   H48       1.0  0.51773  0.83778  0.9713099999999999  1.0000
  H   H49       1.0  0.4029299999999999  0.71946  0.02054  1.0000
  H   H50       1.0  0.3047199999999999  0.56944  0.02155  1.0000
  H   H51       1.0  0.3913299999999999  0.65337  0.10018  1.0000
  H   H52       1.0  0.37394  0.53448  0.09  1.0000
  H   H53       1.0  0.42207000000000006  0.44567  0.19455  1.0000
  H   H54       1.0  0.99124  0.43628  0.29655  1.0000
  H   H55       1.0  0.06734999999999994  0.29723999999999995  0.26633  1.0000
  H   H56       1.0  0.03248999999999998  0.59503  0.35338  1.0000
  H   H57       1.0  0.8942499999999999  0.54865  0.27428  1.0000
  H   H58       1.0  0.9929599999999997  0.67062  0.30827  1.0000
  H   H59       1.0  0.7508199999999997  0.72653  0.20171  1.0000
  H   H60       1.0  0.78658  0.84739  0.14583  1.0000
  H   H61       1.0  0.39542  0.91163  0.19384999999999997  1.0000
  H   H62       1.0  0.35897  0.79108  0.25125  1.0000
  H   H63       1.0  0.46903999999999996  0.25396999999999986  0.34044  1.0000
  H   H64       1.0  0.5986799999999999  0.20832999999999996  0.33512  1.0000
  C   C1        1.0  0.17849999999999994  0.87252  0.71848  1.0000
  C   C2        1.0  0.09238000000000002  0.87868  0.65681  1.0000
  C   C3        1.0  0.931  0.85819  0.64016  1.0000
  C   C4        1.0  0.8504699999999998  0.8588899999999998  0.5803  1.0000
  C   C5        1.0  0.93057  0.8807  0.53538  1.0000
  C   C6        1.0  0.09390000000000004  0.90467  0.55375  1.0000
  C   C7        1.0  0.17313  0.9031  0.61289  1.0000
  C   C8        1.0  0.69741  0.85749  0.45684  1.0000
  C   C9        1.0  0.21490999999999996  0.89172  0.39765  1.0000
  C   C10       1.0  0.06752999999999998  0.87828  0.35874  1.0000
  C   C11       1.0  0.05726999999999993  0.9118499999999999  0.3058  1.0000
  C   C12       1.0  0.19229999999999983  0.95747  0.29166  1.0000
  C   C13       1.0  0.33845999999999987  0.9698199999999998  0.33116  1.0000
  C   C14       1.0  0.35099  0.93745  0.38478  1.0000
  C   C15       1.0  0.1820299999999999  0.9962999999999997  0.23573  1.0000
  C   C16       1.0  0.20652  0.73979  0.86382  1.0000
  C   C17       1.0  0.17136999999999994  0.64684  0.8753899999999998  1.0000
  C   C18       1.0  0.05158999999999991  0.61814  0.9032199999999999  1.0000
  C   C19       1.0  0.013789999999999846  0.5312799999999998  0.9127199999999999  1.0000
  C   C20       1.0  0.09719999999999986  0.47324999999999984  0.8937999999999998  1.0000
  C   C21       1.0  0.21879  0.50091  0.86647  1.0000
  C   C22       1.0  0.25581999999999994  0.58823  0.85758  1.0000
  C   C23       1.0  0.25619999999999993  0.32019999999999993  0.9815399999999999  1.0000
  C   C24       1.0  0.18922  0.25139  0.00655  1.0000
  C   C25       1.0  0.2715499999999999  0.19439  0.02451  1.0000
  C   C26       1.0  0.41943  0.2068  0.01529  1.0000
  C   C27       1.0  0.48391999999999974  0.2732099999999999  0.9876399999999997  1.0000
  C   C28       1.0  0.40307000000000004  0.33114  0.97011  1.0000
  C   C29       1.0  0.20836  0.12774  0.05795  1.0000
  C   C30       1.0  0.6071399999999999  0.40928  0.93231  1.0000
  C   C31       1.0  0.69702  0.71901  0.7901  1.0000
  C   C32       1.0  0.74916  0.63849  0.77216  1.0000
  C   C33       1.0  0.6720199999999996  0.5567599999999998  0.7839299999999999  1.0000
  C   C34       1.0  0.7158799999999998  0.4795399999999999  0.76728  1.0000
  C   C35       1.0  0.8376099999999997  0.47971  0.7379599999999998  1.0000
  C   C36       1.0  0.9138699999999998  0.56172  0.726  1.0000
  C   C37       1.0  0.8701999999999999  0.63996  0.74314  1.0000
  C   C38       1.0  0.9963299999999998  0.3987  0.69517  1.0000
  C   C39       1.0  0.44493999999999995  0.24578  0.76973  1.0000
  C   C40       1.0  0.32512999999999986  0.23220999999999997  0.7993199999999999  1.0000
  C   C41       1.0  0.30578  0.16520000000000007  0.83129  1.0000
  C   C42       1.0  0.40639  0.11339  0.83377  1.0000
  C   C43       1.0  0.5275399999999999  0.12922999999999993  0.8044699999999999  1.0000
  C   C44       1.0  0.54749  0.19531  0.77191  1.0000
  C   C45       1.0  0.38289999999999996  0.03904  0.86614  1.0000
  C   C46       1.0  0.8221999999999997  0.12911999999999998  0.28262999999999994  1.0000
  C   C47       1.0  0.90938  0.12264999999999997  0.34408  1.0000
  C   C48       1.0  0.07058000000000002  0.14226  0.36009  1.0000
  C   C49       1.0  0.15191999999999997  0.14072  0.41959  1.0000
  C   C50       1.0  0.07257999999999999  0.11875999999999998  0.4647  1.0000
  C   C51       1.0  0.9095999999999999  0.09642999999999995  0.4471599999999999  1.0000
  C   C52       1.0  0.8295099999999997  0.09874000000000002  0.38842  1.0000
  C   C53       1.0  0.30563999999999997  0.14192000000000002  0.54331  1.0000
  C   C54       1.0  0.78721  0.10957  0.60294  1.0000
  C   C55       1.0  0.9342099999999999  0.12247000000000001  0.6419299999999999  1.0000
  C   C56       1.0  0.94344  0.08830999999999999  0.6946  1.0000
  C   C57       1.0  0.80787  0.04281999999999999  0.70844  1.0000
  C   C58       1.0  0.66212  0.030909999999999983  0.66881  1.0000
  C   C59       1.0  0.65067  0.06375  0.61541  1.0000
  C   C60       1.0  0.8174699999999998  0.0037999999999999835  0.76425  1.0000
  C   C61       1.0  0.79314  0.2604  0.1363  1.0000
  C   C62       1.0  0.8283599999999998  0.3533  0.1246  1.0000
  C   C63       1.0  0.94814  0.38182  0.09673  1.0000
  C   C64       1.0  0.98627  0.46865  0.08719  1.0000
  C   C65       1.0  0.9032799999999999  0.52691  0.10621  1.0000
  C   C66       1.0  0.7815799999999999  0.49943999999999994  0.13351  1.0000
  C   C67       1.0  0.74417  0.41211  0.14236  1.0000
  C   C68       1.0  0.7442199999999999  0.67982  0.0186  1.0000
  C   C69       1.0  0.8113299999999998  0.74894  0.99393  1.0000
  C   C70       1.0  0.7290199999999998  0.80604  0.9762099999999999  1.0000
  C   C71       1.0  0.5810799999999999  0.79358  0.98537  1.0000
  C   C72       1.0  0.5163899999999999  0.7268  0.012719999999999999  1.0000
  C   C73       1.0  0.59736  0.66876  0.03001  1.0000
  C   C74       1.0  0.7932999999999998  0.8729  0.9431499999999999  1.0000
  C   C75       1.0  0.39384999999999987  0.59001  0.06765  1.0000
  C   C76       1.0  0.30216  0.28119  0.21009999999999998  1.0000
  C   C77       1.0  0.24978999999999998  0.36155  0.22817999999999997  1.0000
  C   C78       1.0  0.32744  0.44328  0.21655  1.0000
  C   C79       1.0  0.28395999999999993  0.52064  0.23308999999999996  1.0000
  C   C80       1.0  0.1620099999999999  0.52062  0.26227999999999996  1.0000
  C   C81       1.0  0.0854  0.43867  0.27425  1.0000
  C   C82       1.0  0.12857999999999997  0.36022  0.25712  1.0000
  C   C83       1.0  0.003559999999999939  0.6023  0.30478999999999995  1.0000
  C   C84       1.0  0.55522  0.75411  0.23038999999999998  1.0000
  C   C85       1.0  0.67481  0.76789  0.20068  1.0000
  C   C86       1.0  0.6939  0.83527  0.16902  1.0000
  C   C87       1.0  0.5934  0.8871199999999999  0.16695999999999997  1.0000
  C   C88       1.0  0.47243  0.87101  0.19633  1.0000
  C   C89       1.0  0.4524599999999999  0.80445  0.22848  1.0000
  C   C90       1.0  0.6169299999999999  0.96201  0.13508  1.0000
  S   S1        1.0  0.2273199999999999  0.8513399999999999  0.46588999999999997  1.0000
  S   S2        1.0  0.04660999999999998  0.36201  0.90463  1.0000
  S   S3        1.0  0.47140999999999994  0.33241  0.73086  1.0000
  S   S4        1.0  0.7749  0.14981  0.53462  1.0000
  S   S5        1.0  0.9540299999999998  0.6380399999999998  0.09518999999999998  1.0000
  S   S6        1.0  0.52905  0.66746  0.26922  1.0000
  O   O1        1.0  0.10657  0.85995  0.76091  1.0000
  O   O2        1.0  0.32063999999999987  0.87841  0.72608  1.0000
  O   O3        1.0  0.8640299999999993  0.8800599999999998  0.47532999999999986  1.0000
  O   O4        1.0  0.17665999999999998  0.93224  0.51132  1.0000
  O   O5        1.0  0.10823999999999998  0.76247  0.45153  1.0000
  O   O6        1.0  0.38848  0.86591  0.49692  1.0000
  O   O7        1.0  0.04927000000000007  0.9906700000000002  0.20329  1.0000
  O   O8        1.0  0.3093999999999999  0.03399  0.22464999999999996  1.0000
  O   O9        1.0  0.12696999999999992  0.7899699999999998  0.8815199999999999  1.0000
  O   O10       1.0  0.3133599999999998  0.7625199999999999  0.8367499999999999  1.0000
  O   O11       1.0  0.9002799999999999  0.3418  0.92094  1.0000
  O   O12       1.0  0.07163999999999998  0.2956599999999999  0.85377  1.0000
  O   O13       1.0  0.18541999999999978  0.3864199999999999  0.9725499999999998  1.0000
  O   O14       1.0  0.47334999999999994  0.99195  0.86666  1.0000
  O   O15       1.0  0.26901999999999987  0.025530000000000004  0.89125  1.0000
  O   O16       1.0  0.06461  0.10777  0.05692  1.0000
  O   O17       1.0  0.29999  0.09513999999999999  0.08869  1.0000
  O   O18       1.0  0.35787999999999986  0.3791399999999999  0.7370099999999999  1.0000
  O   O19       1.0  0.6427499999999999  0.39974999999999994  0.7822499999999999  1.0000
  O   O20       1.0  0.45713999999999977  0.7581899999999999  0.6878399999999999  1.0000
  O   O21       1.0  0.57153  0.7089899999999998  0.80592  1.0000
  O   O22       1.0  0.4553999999999999  0.39729  0.94257  1.0000
  O   O23       1.0  0.7790599999999998  0.79965  0.78848  1.0000
  O   O24       1.0  0.8713999999999996  0.40043999999999996  0.7245399999999999  1.0000
  O   O25       1.0  0.49444  0.29911  0.66794  1.0000
  O   O26       1.0  0.8924699999999999  0.14042999999999997  0.23946999999999996  1.0000
  O   O27       1.0  0.68098  0.12488  0.27605  1.0000
  O   O28       1.0  0.13872000000000004  0.11718000000000003  0.5242  1.0000
  O   O29       1.0  0.8292799999999999  0.06982000000000001  0.49057  1.0000
  O   O30       1.0  0.89183  0.23938  0.54874  1.0000
  O   O31       1.0  0.61345  0.13361999999999996  0.50288  1.0000
  O   O32       1.0  0.94998  0.009369999999999932  0.7968399999999999  1.0000
  O   O33       1.0  0.6896699999999999  0.96606  0.77509  1.0000
  O   O34       1.0  0.87263  0.21019  0.11857999999999998  1.0000
  O   O35       1.0  0.6864399999999998  0.23778  0.16346  1.0000
  O   O36       1.0  0.10020999999999995  0.6579399999999999  0.07878  1.0000
  O   O37       1.0  0.9292  0.70473  0.14591  1.0000
  O   O38       1.0  0.81484  0.61348  0.027339999999999996  1.0000
  O   O39       1.0  0.52778  0.009850000000000001  0.13606  1.0000
  O   O40       1.0  0.72925  0.9749799999999998  0.10904  1.0000
  O   O41       1.0  0.9374199999999998  0.89346  0.94495  1.0000
  O   O42       1.0  0.70184  0.90517  0.91183  1.0000
  O   O43       1.0  0.6423599999999998  0.6206299999999999  0.26286  1.0000
  O   O44       1.0  0.35732999999999976  0.6002299999999998  0.21799  1.0000
  O   O45       1.0  0.53821  0.2413  0.31485  1.0000
  O   O46       1.0  0.42791999999999997  0.29151  0.19433999999999996  1.0000
  O   O47       1.0  0.5454899999999998  0.6022699999999999  0.05733999999999999  1.0000
  O   O48       1.0  0.22063999999999998  0.20037  0.21148  1.0000
  O   O49       1.0  0.1284899999999999  0.59997  0.27552  1.0000
  O   O50       1.0  0.5063099999999998  0.7006500000000001  0.33224  1.0000
