data_image0
_chemical_formula_structural       Ag8H64C88N16O8
_chemical_formula_sum              "Ag8 H64 C88 N16 O8"
_cell_length_a       10.19286
_cell_length_b       10.19286
_cell_length_c       27.64801
_cell_angle_alpha    90.0
_cell_angle_beta     90.0
_cell_angle_gamma    90.0

_symmetry_space_group_name_H-M    'P 1'
_symmetry_Int_Tables_number       1

loop_
  _symmetry_equiv_pos_as_xyz
  'x,y,z'

loop_
  _atom_site_type_symbol
  _atom_site_label
  _atom_site_symmetry_multiplicity
  _atom_site_fract_x
  _atom_site_fract_y
  _atom_site_fract_z
  _atom_site_occupancy
  Ag  Ag1       1.0  0.8023  0.6125  0.51177  1.0000
  Ag  Ag2       1.0  0.19769000000000003  0.3875  0.011769999999999997  1.0000
  Ag  Ag3       1.0  0.8875  0.3023  0.26177  1.0000
  Ag  Ag4       1.0  0.11250000000000002  0.6977000000000001  0.76177  1.0000
  Ag  Ag5       1.0  0.6976900000000001  0.11250000000000002  0.23823  1.0000
  Ag  Ag6       1.0  0.3023  0.8875  0.73823  1.0000
  Ag  Ag7       1.0  0.6125  0.80231  0.48822999999999994  1.0000
  Ag  Ag8       1.0  0.3875  0.1977  0.98823  1.0000
  H   H1        1.0  0.03618  0.7404100000000001  0.66404  1.0000
  H   H2        1.0  0.67125  0.95141  0.6526  1.0000
  H   H3        1.0  0.69099  0.00207  0.7412499999999997  1.0000
  H   H4        1.0  0.8794500000000001  0.90864  0.7879  1.0000
  H   H5        1.0  0.08428  0.935  0.6160499999999998  1.0000
  H   H6        1.0  0.26141000000000003  0.9679400000000001  0.55577  1.0000
  H   H7        1.0  0.23156  0.8736  0.47151  1.0000
  H   H8        1.0  0.03947  0.72829  0.45627999999999996  1.0000
  H   H9        1.0  0.96382  0.2596  0.16402999999999995  1.0000
  H   H10       1.0  0.32875  0.04859  0.1526  1.0000
  H   H11       1.0  0.30901000000000006  0.9979300000000001  0.24124999999999994  1.0000
  H   H12       1.0  0.12055000000000002  0.09136  0.28789  1.0000
  H   H13       1.0  0.91572  0.065  0.11605  1.0000
  H   H14       1.0  0.73858  0.03206  0.05576999999999999  1.0000
  H   H15       1.0  0.76844  0.1264  0.97151  1.0000
  H   H16       1.0  0.9605200000000002  0.2717  0.95628  1.0000
  H   H17       1.0  0.75959  0.53618  0.41404  1.0000
  H   H18       1.0  0.54859  0.17125000000000004  0.4026  1.0000
  H   H19       1.0  0.49793000000000004  0.19099  0.49125  1.0000
  H   H20       1.0  0.59136  0.37945  0.5379  1.0000
  H   H21       1.0  0.565  0.58428  0.36605  1.0000
  H   H22       1.0  0.53206  0.76141  0.30577  1.0000
  H   H23       1.0  0.6264  0.73156  0.22151  1.0000
  H   H24       1.0  0.7717000000000002  0.53948  0.20628  1.0000
  H   H25       1.0  0.24041  0.46381  0.91404  1.0000
  H   H26       1.0  0.45142000000000004  0.82874  0.9026  1.0000
  H   H27       1.0  0.50207  0.80901  0.9912499999999997  1.0000
  H   H28       1.0  0.40864000000000006  0.62055  0.0379  1.0000
  H   H29       1.0  0.435  0.41572000000000003  0.8660499999999998  1.0000
  H   H30       1.0  0.4679400000000001  0.23859000000000002  0.8057699999999999  1.0000
  H   H31       1.0  0.3736  0.26844  0.72151  1.0000
  H   H32       1.0  0.2283  0.46053  0.70628  1.0000
  H   H33       1.0  0.46382000000000007  0.24040000000000003  0.08596  1.0000
  H   H34       1.0  0.82875  0.45141000000000003  0.0974  1.0000
  H   H35       1.0  0.809  0.50206  0.00875  1.0000
  H   H36       1.0  0.62055  0.40864000000000006  0.9621  1.0000
  H   H37       1.0  0.41572000000000003  0.435  0.13395  1.0000
  H   H38       1.0  0.23859000000000002  0.4679400000000001  0.19422999999999996  1.0000
  H   H39       1.0  0.26844  0.3736  0.27849  1.0000
  H   H40       1.0  0.46052000000000004  0.22829000000000002  0.29372  1.0000
  H   H41       1.0  0.53618  0.75959  0.58596  1.0000
  H   H42       1.0  0.17125000000000004  0.54859  0.5974  1.0000
  H   H43       1.0  0.19099  0.49793000000000004  0.50875  1.0000
  H   H44       1.0  0.37945  0.59136  0.4621  1.0000
  H   H45       1.0  0.58428  0.565  0.63395  1.0000
  H   H46       1.0  0.76141  0.53206  0.69423  1.0000
  H   H47       1.0  0.73156  0.6264  0.77849  1.0000
  H   H48       1.0  0.5394700000000001  0.7717000000000002  0.7937199999999998  1.0000
  H   H49       1.0  0.7404  0.03618  0.3359699999999999  1.0000
  H   H50       1.0  0.95141  0.67125  0.34739999999999993  1.0000
  H   H51       1.0  0.00207  0.69099  0.25875  1.0000
  H   H52       1.0  0.90864  0.8794500000000001  0.21210999999999997  1.0000
  H   H53       1.0  0.935  0.08428  0.3839499999999999  1.0000
  H   H54       1.0  0.9679400000000001  0.26141000000000003  0.44423  1.0000
  H   H55       1.0  0.8736  0.23156  0.52849  1.0000
  H   H56       1.0  0.72829  0.03948  0.54372  1.0000
  H   H57       1.0  0.25959  0.96382  0.83596  1.0000
  H   H58       1.0  0.04859  0.32875  0.8474  1.0000
  H   H59       1.0  0.9979300000000001  0.30901000000000006  0.75875  1.0000
  H   H60       1.0  0.09137  0.12055000000000002  0.7121  1.0000
  H   H61       1.0  0.065  0.91572  0.88395  1.0000
  H   H62       1.0  0.03206  0.73858  0.94423  1.0000
  H   H63       1.0  0.1264  0.76844  0.02849  1.0000
  H   H64       1.0  0.27171  0.9605200000000002  0.04372  1.0000
  C   C1        1.0  0.9573600000000001  0.79832  0.67969  1.0000
  C   C2        1.0  0.85638  0.8471800000000002  0.65037  1.0000
  C   C3        1.0  0.75525  0.91802  0.67347  1.0000
  C   C4        1.0  0.76549  0.94428  0.72271  1.0000
  C   C5        1.0  0.86971  0.8921200000000001  0.74923  1.0000
  C   C6        1.0  0.8506200000000002  0.80565  0.59933  1.0000
  C   C7        1.0  0.96666  0.8122200000000002  0.56915  1.0000
  C   C8        1.0  0.07808000000000001  0.88897  0.58065  1.0000
  C   C9        1.0  0.17557  0.90946  0.54667  1.0000
  C   C10       1.0  0.15993  0.85621  0.4999299999999999  1.0000
  C   C11       1.0  0.05283000000000001  0.77566  0.49125  1.0000
  C   C12       1.0  0.04265  0.20168  0.17969  1.0000
  C   C13       1.0  0.14362  0.15282  0.15037  1.0000
  C   C14       1.0  0.24476  0.08198  0.17347  1.0000
  C   C15       1.0  0.23451  0.05572  0.2227  1.0000
  C   C16       1.0  0.13029  0.10788000000000002  0.24921999999999997  1.0000
  C   C17       1.0  0.14938  0.19434000000000004  0.09933  1.0000
  C   C18       1.0  0.03334000000000001  0.18778  0.06915  1.0000
  C   C19       1.0  0.92192  0.11103000000000002  0.08065  1.0000
  C   C20       1.0  0.82443  0.09054  0.04667  1.0000
  C   C21       1.0  0.84007  0.14379  0.99992  1.0000
  C   C22       1.0  0.94717  0.22434000000000004  0.9912499999999997  1.0000
  C   C23       1.0  0.70168  0.45735000000000003  0.42969  1.0000
  C   C24       1.0  0.6528200000000001  0.35638  0.4003699999999999  1.0000
  C   C25       1.0  0.58198  0.25525000000000003  0.42347  1.0000
  C   C26       1.0  0.55572  0.26549  0.47269999999999995  1.0000
  C   C27       1.0  0.6078800000000001  0.36971  0.4992199999999999  1.0000
  C   C28       1.0  0.69434  0.35062000000000004  0.34933  1.0000
  C   C29       1.0  0.68778  0.46666000000000013  0.31914999999999993  1.0000
  C   C30       1.0  0.61103  0.57808  0.33065  1.0000
  C   C31       1.0  0.5905400000000001  0.67556  0.29667  1.0000
  C   C32       1.0  0.64379  0.65993  0.24991999999999998  1.0000
  C   C33       1.0  0.7243400000000001  0.55282  0.24124999999999994  1.0000
  C   C34       1.0  0.29833  0.5426400000000001  0.92969  1.0000
  C   C35       1.0  0.34718  0.6436100000000001  0.90037  1.0000
  C   C36       1.0  0.41802000000000006  0.74475  0.92347  1.0000
  C   C37       1.0  0.44428  0.73451  0.97271  1.0000
  C   C38       1.0  0.39212  0.6302900000000001  0.9992299999999998  1.0000
  C   C39       1.0  0.30566000000000004  0.6493800000000001  0.84933  1.0000
  C   C40       1.0  0.31222  0.53334  0.81915  1.0000
  C   C41       1.0  0.38897  0.4219200000000001  0.83065  1.0000
  C   C42       1.0  0.40946000000000005  0.32443  0.79667  1.0000
  C   C43       1.0  0.35621  0.34008  0.74992  1.0000
  C   C44       1.0  0.27566  0.44718000000000013  0.7412499999999997  1.0000
  C   C45       1.0  0.54265  0.29832  0.07031  1.0000
  C   C46       1.0  0.6436200000000001  0.34718  0.09963  1.0000
  C   C47       1.0  0.74475  0.41802000000000006  0.07653  1.0000
  C   C48       1.0  0.73451  0.44427  0.0273  1.0000
  C   C49       1.0  0.6302900000000001  0.39212  0.00078  1.0000
  C   C50       1.0  0.6493800000000001  0.30565  0.15067  1.0000
  C   C51       1.0  0.53334  0.31221  0.18085  1.0000
  C   C52       1.0  0.4219200000000001  0.38896  0.16935  1.0000
  C   C53       1.0  0.32443  0.40946000000000005  0.20333  1.0000
  C   C54       1.0  0.34007  0.35621  0.25008  1.0000
  C   C55       1.0  0.44717  0.27566  0.25875  1.0000
  C   C56       1.0  0.45735000000000003  0.70168  0.57031  1.0000
  C   C57       1.0  0.35638  0.6528200000000001  0.5996299999999998  1.0000
  C   C58       1.0  0.25525000000000003  0.58198  0.57653  1.0000
  C   C59       1.0  0.26549  0.55572  0.5273  1.0000
  C   C60       1.0  0.36971  0.6078800000000001  0.50078  1.0000
  C   C61       1.0  0.35062000000000004  0.69434  0.65067  1.0000
  C   C62       1.0  0.46666000000000013  0.68778  0.68085  1.0000
  C   C63       1.0  0.57808  0.61103  0.6693499999999999  1.0000
  C   C64       1.0  0.67556  0.5905400000000001  0.70333  1.0000
  C   C65       1.0  0.65992  0.64379  0.7500799999999999  1.0000
  C   C66       1.0  0.55282  0.7243400000000001  0.75875  1.0000
  C   C67       1.0  0.79832  0.9573500000000001  0.32031  1.0000
  C   C68       1.0  0.84717  0.85638  0.34963  1.0000
  C   C69       1.0  0.91801  0.75524  0.32653  1.0000
  C   C70       1.0  0.94427  0.76548  0.2773  1.0000
  C   C71       1.0  0.8921200000000001  0.86971  0.25078  1.0000
  C   C72       1.0  0.80565  0.85061  0.40067  1.0000
  C   C73       1.0  0.8122100000000002  0.96666  0.43085  1.0000
  C   C74       1.0  0.8889600000000001  0.07808000000000001  0.41935  1.0000
  C   C75       1.0  0.90946  0.17557  0.45333  1.0000
  C   C76       1.0  0.85621  0.15993  0.50008  1.0000
  C   C77       1.0  0.77566  0.05283000000000001  0.50875  1.0000
  C   C78       1.0  0.20168  0.04264  0.82031  1.0000
  C   C79       1.0  0.15282  0.14362  0.8496299999999998  1.0000
  C   C80       1.0  0.08198  0.24475000000000002  0.82653  1.0000
  C   C81       1.0  0.05573000000000001  0.23451  0.7772999999999998  1.0000
  C   C82       1.0  0.10789000000000003  0.13029  0.75078  1.0000
  C   C83       1.0  0.19435  0.14938  0.90067  1.0000
  C   C84       1.0  0.18779  0.03334000000000001  0.93085  1.0000
  C   C85       1.0  0.11104000000000001  0.92192  0.9193499999999999  1.0000
  C   C86       1.0  0.09054  0.82443  0.95333  1.0000
  C   C87       1.0  0.14379  0.84007  7.999999999999999e-05  1.0000
  C   C88       1.0  0.22434000000000004  0.94717  0.00875  1.0000
  N   N1        1.0  0.96276  0.81607  0.7280399999999998  1.0000
  N   N2        1.0  0.96095  0.7482900000000001  0.52502  1.0000
  N   N3        1.0  0.03724  0.18393  0.22804  1.0000
  N   N4        1.0  0.039040000000000005  0.25171  0.02502  1.0000
  N   N5        1.0  0.68393  0.46276  0.47804  1.0000
  N   N6        1.0  0.75171  0.46096  0.27502  1.0000
  N   N7        1.0  0.3160700000000001  0.53723  0.9780399999999998  1.0000
  N   N8        1.0  0.24829  0.53905  0.77502  1.0000
  N   N9        1.0  0.53723  0.3160700000000001  0.02196  1.0000
  N   N10       1.0  0.53904  0.24829  0.22497999999999996  1.0000
  N   N11       1.0  0.46277000000000007  0.68393  0.52196  1.0000
  N   N12       1.0  0.46096  0.75171  0.72498  1.0000
  N   N13       1.0  0.81606  0.96276  0.27196  1.0000
  N   N14       1.0  0.7482900000000001  0.9609600000000001  0.47498  1.0000
  N   N15       1.0  0.18393  0.03724  0.77196  1.0000
  N   N16       1.0  0.25171  0.039040000000000005  0.97498  1.0000
  O   O1        1.0  0.74138  0.7608700000000002  0.5832  1.0000
  O   O2        1.0  0.25862  0.23912  0.0832  1.0000
  O   O3        1.0  0.73912  0.24138  0.3332  1.0000
  O   O4        1.0  0.26088000000000006  0.75861  0.8331999999999998  1.0000
  O   O5        1.0  0.75862  0.26088000000000006  0.1668  1.0000
  O   O6        1.0  0.24138  0.73912  0.6668  1.0000
  O   O7        1.0  0.7608700000000002  0.74138  0.4167999999999999  1.0000
  O   O8        1.0  0.23913000000000004  0.25862  0.9168  1.0000
