data_image0
_chemical_formula_structural       U4Si4H68C108O24
_chemical_formula_sum              "U4 Si4 H68 C108 O24"
_cell_length_a       10.13774
_cell_length_b       15.30959
_cell_length_c       24.831989999999998
_cell_angle_alpha    82.16210999999998
_cell_angle_beta     82.61347
_cell_angle_gamma    72.82179

_symmetry_space_group_name_H-M    'P 1'
_symmetry_Int_Tables_number       1

loop_
  _symmetry_equiv_pos_as_xyz
  'x,y,z'

loop_
  _atom_site_type_symbol
  _atom_site_label
  _atom_site_symmetry_multiplicity
  _atom_site_fract_x
  _atom_site_fract_y
  _atom_site_fract_z
  _atom_site_occupancy
  U   U1        1.0  0.04150000000000001  0.57344  0.33022  1.0000
  U   U2        1.0  0.54716  0.09705  0.8319600000000001  1.0000
  U   U3        1.0  0.96341  0.4286400000000002  0.6696400000000001  1.0000
  U   U4        1.0  0.45192000000000004  0.9028800000000001  0.16816000000000006  1.0000
  Si  Si1       1.0  0.7181099999999999  0.10817999999999998  0.47010000000000013  1.0000
  Si  Si2       1.0  0.17736000000000002  0.63845  0.9667700000000001  1.0000
  Si  Si3       1.0  0.2824099999999999  0.8918000000000001  0.5303  1.0000
  Si  Si4       1.0  0.8221300000000001  0.36139  0.03312  1.0000
  H   H1        1.0  0.84239  0.17839  0.55593  1.0000
  H   H2        1.0  0.80949  0.16382  0.65697  1.0000
  H   H3        1.0  0.87213  0.92136  0.5153  1.0000
  H   H4        1.0  0.96215  0.7735400000000002  0.4755  1.0000
  H   H5        1.0  0.41724  0.19346  0.51638  1.0000
  H   H6        1.0  0.22350000000000014  0.31725  0.47750000000000004  1.0000
  H   H7        1.0  0.4735099999999999  0.33528  0.32543000000000005  1.0000
  H   H8        1.0  0.6704600000000002  0.21279000000000012  0.36373  1.0000
  H   H9        1.0  0.63629  0.036289999999999975  0.3767600000000001  1.0000
  H   H10       1.0  0.7136999999999998  0.88345  0.34048000000000006  1.0000
  H   H11       1.0  0.7901800000000001  0.28354  0.46788  1.0000
  H   H12       1.0  0.9720200000000001  0.02765  0.39677000000000007  1.0000
  H   H13       1.0  0.5276099999999999  0.0034999999999999628  0.6546700000000002  1.0000
  H   H14       1.0  0.5618599999999999  0.014679999999999995  0.5533000000000001  1.0000
  H   H15       1.0  0.36296  0.2943300000000001  0.9867300000000001  1.0000
  H   H16       1.0  0.31526000000000004  0.58914  0.15889000000000003  1.0000
  H   H17       1.0  0.8805899999999999  0.6373100000000003  0.14566000000000004  1.0000
  H   H18       1.0  0.98407  0.34184  0.42157  1.0000
  H   H19       1.0  0.16790999999999998  0.24497  0.36144000000000004  1.0000
  H   H20       1.0  0.15914999999999996  0.08864999999999999  0.3482600000000001  1.0000
  H   H21       1.0  0.9231900000000001  0.65271  0.04426  1.0000
  H   H22       1.0  0.36272  0.59337  0.058130000000000015  1.0000
  H   H23       1.0  0.4291999999999999  0.42780000000000007  0.82568  1.0000
  H   H24       1.0  0.33422000000000013  0.58063  0.86142  1.0000
  H   H25       1.0  0.25624  0.44544  0.021740000000000006  1.0000
  H   H26       1.0  0.35951  0.7301100000000003  0.015390000000000001  1.0000
  H   H27       1.0  0.45939999999999986  0.85706  0.98063  1.0000
  H   H28       1.0  0.05280999999999992  0.54122  0.8975600000000002  1.0000
  H   H29       1.0  0.82988  0.5827599999999998  0.85724  1.0000
  H   H30       1.0  0.2659899999999999  0.89463  0.8314200000000002  1.0000
  H   H31       1.0  0.9309499999999999  0.80076  0.96624  1.0000
  H   H32       1.0  0.65419  0.73336  0.87208  1.0000
  H   H33       1.0  0.17003  0.76308  0.86482  1.0000
  H   H34       1.0  0.7063599999999999  0.84171  0.9259600000000002  1.0000
  H   H35       1.0  0.15874999999999986  0.8206400000000001  0.44459000000000004  1.0000
  H   H36       1.0  0.19080000000000008  0.8351599999999998  0.3436400000000001  1.0000
  H   H37       1.0  0.12786999999999996  0.07865000000000003  0.4851000000000001  1.0000
  H   H38       1.0  0.03870000000000001  0.22692  0.52451  1.0000
  H   H39       1.0  0.5819099999999999  0.8045  0.48348  1.0000
  H   H40       1.0  0.77588  0.68082  0.52229  1.0000
  H   H41       1.0  0.52879  0.66678  0.67553  1.0000
  H   H42       1.0  0.33175999999999994  0.78859  0.6371000000000001  1.0000
  H   H43       1.0  0.36196000000000006  0.9642600000000001  0.62414  1.0000
  H   H44       1.0  0.28547999999999996  0.11733999999999997  0.6599400000000002  1.0000
  H   H45       1.0  0.2107  0.71598  0.53289  1.0000
  H   H46       1.0  0.028379999999999926  0.9725100000000001  0.60322  1.0000
  H   H47       1.0  0.47102  0.9970700000000001  0.3454600000000001  1.0000
  H   H48       1.0  0.43729000000000007  0.98592  0.44683000000000006  1.0000
  H   H49       1.0  0.63712  0.70559  0.01305  1.0000
  H   H50       1.0  0.6866999999999999  0.41177  0.84055  1.0000
  H   H51       1.0  0.12094000000000003  0.36417  0.8550000000000001  1.0000
  H   H52       1.0  0.0167199999999999  0.658  0.5792400000000001  1.0000
  H   H53       1.0  0.8330500000000001  0.75501  0.6394  1.0000
  H   H54       1.0  0.84129  0.91172  0.65195  1.0000
  H   H55       1.0  0.07654000000000001  0.34726  0.9563800000000001  1.0000
  H   H56       1.0  0.6381  0.4060099999999999  0.9412000000000001  1.0000
  H   H57       1.0  0.57343  0.57226  0.17439  1.0000
  H   H58       1.0  0.6665699999999999  0.41944  0.13861000000000004  1.0000
  H   H59       1.0  0.7426100000000001  0.5543500000000001  0.9779600000000003  1.0000
  H   H60       1.0  0.64001  0.26943  0.9845400000000001  1.0000
  H   H61       1.0  0.53964  0.14291  0.019500000000000003  1.0000
  H   H62       1.0  0.94699  0.45883  0.10215000000000003  1.0000
  H   H63       1.0  0.16998000000000002  0.4172600000000001  0.14241  1.0000
  H   H64       1.0  0.73289  0.106  0.16880000000000006  1.0000
  H   H65       1.0  0.06849999999999999  0.19913  0.03365  1.0000
  H   H66       1.0  0.34525  0.26637  0.12788  1.0000
  H   H67       1.0  0.8292499999999999  0.23733  0.13495000000000001  1.0000
  H   H68       1.0  0.29308  0.15813000000000005  0.07394  1.0000
  C   C1        1.0  0.77296  0.13986  0.57687  1.0000
  C   C2        1.0  0.7031100000000001  0.09890000000000002  0.54667  1.0000
  C   C3        1.0  0.7556400000000001  0.13171000000000005  0.63387  1.0000
  C   C4        1.0  0.6649299999999999  0.08335000000000001  0.6615900000000002  1.0000
  C   C5        1.0  0.74911  0.99058  0.4482700000000001  1.0000
  C   C6        1.0  0.83858  0.91469  0.47652000000000005  1.0000
  C   C7        1.0  0.8891999999999998  0.83089  0.45444  1.0000
  C   C8        1.0  0.84549  0.82007  0.4051100000000001  1.0000
  C   C9        1.0  0.9076000000000001  0.73275  0.38012000000000007  1.0000
  C   C10       1.0  0.6362100000000002  0.07689000000000004  0.72168  1.0000
  C   C11       1.0  0.07041999999999993  0.6059400000000003  0.21783000000000002  1.0000
  C   C12       1.0  0.55882  0.19345000000000007  0.44291000000000014  1.0000
  C   C13       1.0  0.43094999999999994  0.22331000000000004  0.4743500000000001  1.0000
  C   C14       1.0  0.32144999999999996  0.29319000000000006  0.45296000000000003  1.0000
  C   C15       1.0  0.33805000000000035  0.33435  0.39941  1.0000
  C   C16       1.0  0.46327  0.30301  0.36697  1.0000
  C   C17       1.0  0.5721099999999999  0.23388999999999996  0.38862000000000013  1.0000
  C   C18       1.0  0.7053499999999998  0.9781600000000003  0.3991000000000001  1.0000
  C   C19       1.0  0.7495199999999999  0.89303  0.3781600000000001  1.0000
  C   C20       1.0  0.87205  0.2397  0.44251000000000007  1.0000
  C   C21       1.0  0.8677300000000001  0.15026000000000003  0.43675  1.0000
  C   C22       1.0  0.97281  0.0968  0.4022500000000001  1.0000
  C   C23       1.0  0.59575  0.041479999999999996  0.63208  1.0000
  C   C24       1.0  0.6155  0.04852999999999999  0.5754000000000001  1.0000
  C   C25       1.0  0.45421000000000006  0.26182  0.8817900000000002  1.0000
  C   C26       1.0  0.4015799999999999  0.35202  0.9039200000000002  1.0000
  C   C27       1.0  0.35622999999999994  0.35717  0.95949  1.0000
  C   C28       1.0  0.22838999999999995  0.4122500000000001  0.3757800000000001  1.0000
  C   C29       1.0  0.09546999999999994  0.6136  0.15768000000000001  1.0000
  C   C30       1.0  0.23113999999999998  0.6023700000000001  0.13307  1.0000
  C   C31       1.0  0.98473  0.63023  0.12566000000000002  1.0000
  C   C32       1.0  0.9796000000000001  0.27356  0.41592000000000007  1.0000
  C   C33       1.0  0.0834  0.21911999999999998  0.38195  1.0000
  C   C34       1.0  0.07914000000000002  0.13116  0.37471  1.0000
  C   C35       1.0  0.00989999999999996  0.6384  0.0689  1.0000
  C   C36       1.0  0.2560199999999999  0.6065500000000003  0.07641  1.0000
  C   C37       1.0  0.3935300000000001  0.43310000000000004  0.86867  1.0000
  C   C38       1.0  0.33928  0.51822  0.88903  1.0000
  C   C39       1.0  0.29708000000000007  0.44279999999999997  0.97906  1.0000
  C   C40       1.0  0.2587999999999999  0.73484  0.9424400000000002  1.0000
  C   C41       1.0  0.3405  0.7634  0.97443  1.0000
  C   C42       1.0  0.3972399999999998  0.8357600000000002  0.9551300000000003  1.0000
  C   C43       1.0  0.14538999999999996  0.62682  0.0433  1.0000
  C   C44       1.0  0.28669000000000006  0.5246999999999999  0.9441900000000001  1.0000
  C   C45       1.0  0.009099999999999985  0.66739  0.93526  1.0000
  C   C46       1.0  0.9778899999999998  0.60716  0.9041000000000002  1.0000
  C   C47       1.0  0.85137  0.63064  0.88118  1.0000
  C   C48       1.0  0.2872299999999998  0.8566800000000001  0.8711900000000002  1.0000
  C   C49       1.0  0.3698399999999999  0.88321  0.9035000000000002  1.0000
  C   C50       1.0  0.9093099999999997  0.7523300000000005  0.94266  1.0000
  C   C51       1.0  0.7533799999999998  0.71486  0.8893500000000002  1.0000
  C   C52       1.0  0.23416999999999993  0.7827099999999999  0.8902800000000002  1.0000
  C   C53       1.0  0.7825599999999999  0.7758800000000002  0.9201600000000001  1.0000
  C   C54       1.0  0.42503999999999975  0.9622100000000001  0.8827300000000001  1.0000
  C   C55       1.0  0.22764000000000004  0.85953  0.42357000000000006  1.0000
  C   C56       1.0  0.2969599999999999  0.90105  0.4536900000000001  1.0000
  C   C57       1.0  0.24467999999999995  0.8675900000000001  0.36655  1.0000
  C   C58       1.0  0.3346399999999999  0.91642  0.33865  1.0000
  C   C59       1.0  0.25062999999999996  0.009560000000000004  0.55225  1.0000
  C   C60       1.0  0.16166  0.08545  0.52379  1.0000
  C   C61       1.0  0.11133999999999993  0.16949  0.54562  1.0000
  C   C62       1.0  0.15467  0.18074000000000007  0.59495  1.0000
  C   C63       1.0  0.09367  0.26902  0.6190800000000001  1.0000
  C   C64       1.0  0.3624  0.9235  0.27848000000000006  1.0000
  C   C65       1.0  0.9327599999999999  0.39566000000000007  0.7820400000000002  1.0000
  C   C66       1.0  0.44201  0.8064700000000001  0.55741  1.0000
  C   C67       1.0  0.56918  0.77546  0.52574  1.0000
  C   C68       1.0  0.67887  0.7058  0.54722  1.0000
  C   C69       1.0  0.6636499999999999  0.66618  0.60125  1.0000
  C   C70       1.0  0.5387700000000002  0.69822  0.63377  1.0000
  C   C71       1.0  0.42963  0.76697  0.6119700000000001  1.0000
  C   C72       1.0  0.29372000000000004  0.02235  0.60149  1.0000
  C   C73       1.0  0.24990000000000004  0.10769  0.62222  1.0000
  C   C74       1.0  0.12878999999999996  0.76  0.55815  1.0000
  C   C75       1.0  0.13301999999999997  0.84953  0.56367  1.0000
  C   C76       1.0  0.027769999999999996  0.90323  0.59799  1.0000
  C   C77       1.0  0.40347000000000005  0.9587  0.3681  1.0000
  C   C78       1.0  0.3839599999999999  0.9517300000000002  0.42481  1.0000
  C   C79       1.0  0.5482700000000001  0.73823  0.11802000000000001  1.0000
  C   C80       1.0  0.5999799999999996  0.6479300000000002  0.09595  1.0000
  C   C81       1.0  0.64417  0.64273  0.0403  1.0000
  C   C82       1.0  0.77496  0.5898  0.62527  1.0000
  C   C83       1.0  0.90644  0.38763  0.84221  1.0000
  C   C84       1.0  0.77059  0.39825  0.86652  1.0000
  C   C85       1.0  0.016560000000000005  0.37078  0.87462  1.0000
  C   C86       1.0  0.02119999999999995  0.72629  0.5848400000000001  1.0000
  C   C87       1.0  0.91735  0.78088  0.6187000000000001  1.0000
  C   C88       1.0  0.9214599999999997  0.8690000000000002  0.62566  1.0000
  C   C89       1.0  0.9905399999999999  0.36184999999999995  0.9313500000000002  1.0000
  C   C90       1.0  0.74493  0.39336  0.92318  1.0000
  C   C91       1.0  0.60827  0.56695  0.13132  1.0000
  C   C92       1.0  0.6616  0.48179000000000005  0.11096  1.0000
  C   C93       1.0  0.7026399999999999  0.55705  0.020720000000000006  1.0000
  C   C94       1.0  0.7403299999999999  0.2652000000000001  0.05749  1.0000
  C   C95       1.0  0.65884  0.23641000000000006  0.025550000000000003  1.0000
  C   C96       1.0  0.60212  0.16406000000000007  0.04492000000000001  1.0000
  C   C97       1.0  0.85486  0.37298000000000003  0.9566100000000002  1.0000
  C   C98       1.0  0.7132999999999999  0.4752300000000001  0.0557  1.0000
  C   C99       1.0  0.9903499999999997  0.3324500000000001  0.06468000000000002  1.0000
  C   C100      1.0  0.021759999999999967  0.39278  0.09570000000000002  1.0000
  C   C101      1.0  0.14830000000000002  0.36927999999999994  0.11861000000000002  1.0000
  C   C102      1.0  0.7119300000000001  0.14348  0.12888  1.0000
  C   C103      1.0  0.62952  0.1167  0.09656  1.0000
  C   C104      1.0  0.09014  0.24751  0.05726  1.0000
  C   C105      1.0  0.24614000000000005  0.28496  0.11055  1.0000
  C   C106      1.0  0.76494  0.21746000000000004  0.10968  1.0000
  C   C107      1.0  0.21689  0.22393999999999997  0.07976000000000001  1.0000
  C   C108      1.0  0.57385  0.03786  0.11729  1.0000
  O   O1        1.0  0.3615999999999999  0.024199999999999985  0.8470500000000001  1.0000
  O   O2        1.0  0.52928  0.051580000000000015  0.74393  1.0000
  O   O3        1.0  0.7136499999999999  0.09803000000000002  0.75227  1.0000
  O   O4        1.0  0.50039  0.18729999999999997  0.91261  1.0000
  O   O5        1.0  0.4527699999999999  0.25838  0.82989  1.0000
  O   O6        1.0  0.53805  0.96804  0.8992800000000002  1.0000
  O   O7        1.0  0.8330199999999999  0.69348  0.3596600000000001  1.0000
  O   O8        1.0  0.04116999999999995  0.6975900000000003  0.3785  1.0000
  O   O9        1.0  0.10935999999999994  0.44456  0.40245000000000003  1.0000
  O   O10       1.0  0.25395999999999996  0.4495  0.3273  1.0000
  O   O11       1.0  0.16019999999999995  0.61794  0.2464  1.0000
  O   O12       1.0  0.96013  0.58628  0.24162  1.0000
  O   O13       1.0  0.63623  0.97625  0.15335  1.0000
  O   O14       1.0  0.46718000000000004  0.95097  0.25596  1.0000
  O   O15       1.0  0.28601000000000004  0.90105  0.24802000000000005  1.0000
  O   O16       1.0  0.49942999999999993  0.81251  0.08740000000000003  1.0000
  O   O17       1.0  0.5532000000000001  0.7418600000000002  0.16965  1.0000
  O   O18       1.0  0.46131  0.03174  0.10051000000000002  1.0000
  O   O19       1.0  0.16895999999999997  0.30669  0.64045  1.0000
  O   O20       1.0  0.9609400000000001  0.3068  0.61899  1.0000
  O   O21       1.0  0.8920500000000001  0.55581  0.5976100000000001  1.0000
  O   O22       1.0  0.7533299999999998  0.5555300000000002  0.67483  1.0000
  O   O23       1.0  0.8457900000000002  0.38149000000000005  0.7529500000000002  1.0000
  O   O24       1.0  0.04123999999999996  0.4181  0.7587600000000002  1.0000
