data_image0
_chemical_formula_structural       Zn20H24C80N32O64
_chemical_formula_sum              "Zn20 H24 C80 N32 O64"
_cell_length_a       13.63476
_cell_length_b       15.329039999999999
_cell_length_c       15.03697
_cell_angle_alpha    89.99133
_cell_angle_beta     89.95619
_cell_angle_gamma    89.88829999999999

_symmetry_space_group_name_H-M    'P 1'
_symmetry_Int_Tables_number       1

loop_
  _symmetry_equiv_pos_as_xyz
  'x,y,z'

loop_
  _atom_site_type_symbol
  _atom_site_label
  _atom_site_symmetry_multiplicity
  _atom_site_fract_x
  _atom_site_fract_y
  _atom_site_fract_z
  _atom_site_occupancy
  Zn  Zn1       1.0  0.60717  0.5270799999999998  0.3103999999999999  1.0000
  Zn  Zn2       1.0  0.63553  0.5762599999999998  0.71519  1.0000
  Zn  Zn3       1.0  0.89293  0.4728499999999999  0.8102  1.0000
  Zn  Zn4       1.0  0.86503  0.4236399999999999  0.21537999999999993  1.0000
  Zn  Zn5       1.0  0.39263  0.028589999999999997  0.19001999999999994  1.0000
  Zn  Zn6       1.0  0.36488  0.07746  0.78451  1.0000
  Zn  Zn7       1.0  0.10801  0.9719399999999998  0.6898299999999998  1.0000
  Zn  Zn8       1.0  0.13509  0.92253  0.28619  1.0000
  Zn  Zn9       1.0  0.39281  0.4729  0.6895899999999998  1.0000
  Zn  Zn10      1.0  0.36448  0.42373  0.2848099999999999  1.0000
  Zn  Zn11      1.0  0.10705  0.52713  0.18979999999999994  1.0000
  Zn  Zn12      1.0  0.13498  0.57636  0.7846299999999998  1.0000
  Zn  Zn13      1.0  0.6073100000000001  0.9714199999999997  0.80994  1.0000
  Zn  Zn14      1.0  0.63508  0.92259  0.21558  1.0000
  Zn  Zn15      1.0  0.8919900000000001  0.02802  0.31017  1.0000
  Zn  Zn16      1.0  0.86494  0.0775  0.7135599999999998  1.0000
  Zn  Zn17      1.0  1.2722801691975562e-19  0.5  0.49999  1.0000
  Zn  Zn18      1.0  0.5  0.5  1e-05  1.0000
  Zn  Zn19      1.0  0.99933  0.99801  0.99894  1.0000
  Zn  Zn20      1.0  0.49899  0.9980999999999999  0.5005  1.0000
  H   H1        1.0  0.71907  0.7260499999999999  0.2937  1.0000
  H   H2        1.0  0.54726  0.5933799999999998  0.50818  1.0000
  H   H3        1.0  0.30162  0.84937  0.14804  1.0000
  H   H4        1.0  0.7815  0.27253  0.79421  1.0000
  H   H5        1.0  0.9536300000000001  0.40703  0.00849  1.0000
  H   H6        1.0  0.19893  0.15098999999999996  0.64745  1.0000
  H   H7        1.0  0.2814  0.22741999999999996  0.20713  1.0000
  H   H8        1.0  0.45397  0.09279999999999998  0.99188  1.0000
  H   H9        1.0  0.69894  0.3497499999999999  0.35229  1.0000
  H   H10       1.0  0.21948000000000006  0.7730499999999999  0.7076299999999998  1.0000
  H   H11       1.0  0.04705  0.90695  0.49223  1.0000
  H   H12       1.0  0.80162  0.6512799999999997  0.8528999999999998  1.0000
  H   H13       1.0  0.28093  0.27395  0.7063  1.0000
  H   H14       1.0  0.45274  0.40661  0.49181999999999987  1.0000
  H   H15       1.0  0.69837  0.15066  0.85199  1.0000
  H   H16       1.0  0.2185  0.72747  0.20577999999999996  1.0000
  H   H17       1.0  0.04636  0.59296  0.99151  1.0000
  H   H18       1.0  0.8010700000000001  0.8490199999999998  0.35254  1.0000
  H   H19       1.0  0.7186  0.7725799999999998  0.7928599999999998  1.0000
  H   H20       1.0  0.54581  0.90714  0.00807  1.0000
  H   H21       1.0  0.30104  0.65024  0.64771  1.0000
  H   H22       1.0  0.78051  0.22693999999999995  0.29237  1.0000
  H   H23       1.0  0.9528600000000003  0.09301  0.50775  1.0000
  H   H24       1.0  0.19837  0.34871  0.1471  1.0000
  C   C1        1.0  0.50465  0.76165  0.20981999999999995  1.0000
  C   C2        1.0  0.4984500000000001  0.67434  0.23703999999999995  1.0000
  C   C3        1.0  0.64395  0.7252799999999998  0.27022  1.0000
  C   C4        1.0  0.43551  0.8238299999999998  0.17380999999999994  1.0000
  C   C5        1.0  0.42116  0.60568  0.23136999999999994  1.0000
  C   C6        1.0  0.75335  0.4984099999999999  0.46605  1.0000
  C   C7        1.0  0.76  0.51645  0.5572799999999999  1.0000
  C   C8        1.0  0.61944  0.56378  0.5092199999999999  1.0000
  C   C9        1.0  0.81927  0.45225  0.4043499999999999  1.0000
  C   C10       1.0  0.8348500000000001  0.4952299999999999  0.62436  1.0000
  C   C11       1.0  0.99564  0.23802999999999994  0.7091099999999999  1.0000
  C   C12       1.0  0.0017  0.32518  0.7368999999999998  1.0000
  C   C13       1.0  0.8564500000000002  0.2738299999999999  0.7702699999999999  1.0000
  C   C14       1.0  0.06472  0.17639  0.6718999999999998  1.0000
  C   C15       1.0  0.07890000000000001  0.39398  0.7313599999999998  1.0000
  C   C16       1.0  0.74725  0.50142  0.96616  1.0000
  C   C17       1.0  0.74047  0.48348  0.05741  1.0000
  C   C18       1.0  0.88133  0.43648  0.0095  1.0000
  C   C19       1.0  0.68161  0.54782  0.9044  1.0000
  C   C20       1.0  0.66525  0.50452  0.12439  1.0000
  C   C21       1.0  0.49568  0.26225  0.29152  1.0000
  C   C22       1.0  0.50174  0.17485  0.26426  1.0000
  C   C23       1.0  0.35643  0.22661  0.23083999999999993  1.0000
  C   C24       1.0  0.56461  0.32408  0.3281  1.0000
  C   C25       1.0  0.57875  0.10553  0.26951999999999987  1.0000
  C   C26       1.0  0.24723  0.99928  0.03401999999999999  1.0000
  C   C27       1.0  0.24078000000000005  0.01729  0.9427499999999998  1.0000
  C   C28       1.0  0.38152  0.0638  0.9907999999999998  1.0000
  C   C29       1.0  0.18106000000000003  0.95349  0.09586999999999997  1.0000
  C   C30       1.0  0.16598  0.9956499999999998  0.87572  1.0000
  C   C31       1.0  0.0041  0.7385  0.78987  1.0000
  C   C32       1.0  0.9981  0.8257499999999998  0.76213  1.0000
  C   C33       1.0  0.14415  0.7740599999999997  0.73072  1.0000
  C   C34       1.0  0.93514  0.67669  0.8262099999999998  1.0000
  C   C35       1.0  0.92075  0.89503  0.7653399999999998  1.0000
  C   C36       1.0  0.25353  0.0008999999999999998  0.5339  1.0000
  C   C37       1.0  0.26011  0.98268  0.44271  1.0000
  C   C38       1.0  0.11941000000000002  0.9360399999999999  0.4910599999999999  1.0000
  C   C39       1.0  0.31891  0.04754  0.59561  1.0000
  C   C40       1.0  0.33523  0.00299  0.37555  1.0000
  C   C41       1.0  0.49535  0.23834999999999995  0.79018  1.0000
  C   C42       1.0  0.50155  0.32566  0.7629599999999997  1.0000
  C   C43       1.0  0.35605000000000003  0.27472  0.72978  1.0000
  C   C44       1.0  0.56448  0.17616999999999994  0.8261799999999998  1.0000
  C   C45       1.0  0.57884  0.39433  0.7686299999999998  1.0000
  C   C46       1.0  0.24665  0.50159  0.53395  1.0000
  C   C47       1.0  0.24  0.4835599999999999  0.4427199999999999  1.0000
  C   C48       1.0  0.38056  0.43622  0.49078  1.0000
  C   C49       1.0  0.18073  0.54776  0.59564  1.0000
  C   C50       1.0  0.16515  0.50477  0.37563999999999986  1.0000
  C   C51       1.0  0.004359999999999998  0.76197  0.29088  1.0000
  C   C52       1.0  0.9983  0.67482  0.26309  1.0000
  C   C53       1.0  0.14355  0.7261599999999998  0.22972  1.0000
  C   C54       1.0  0.93528  0.82361  0.3281  1.0000
  C   C55       1.0  0.9211000000000001  0.60603  0.2686299999999999  1.0000
  C   C56       1.0  0.25275  0.49858  0.033839999999999995  1.0000
  C   C57       1.0  0.25953  0.51652  0.9425799999999998  1.0000
  C   C58       1.0  0.11867000000000001  0.56352  0.9904999999999999  1.0000
  C   C59       1.0  0.31839  0.4521799999999999  0.09561  1.0000
  C   C60       1.0  0.33475  0.49548  0.8756099999999998  1.0000
  C   C61       1.0  0.50431  0.73775  0.70848  1.0000
  C   C62       1.0  0.49825000000000014  0.82513  0.7357699999999998  1.0000
  C   C63       1.0  0.64357  0.77339  0.76916  1.0000
  C   C64       1.0  0.43539000000000005  0.6759099999999999  0.6718999999999998  1.0000
  C   C65       1.0  0.42125  0.89445  0.7304699999999997  1.0000
  C   C66       1.0  0.75265  0.00062  0.9659399999999998  1.0000
  C   C67       1.0  0.75897  0.98256  0.05725  1.0000
  C   C68       1.0  0.61823  0.9362  0.009139999999999997  1.0000
  C   C69       1.0  0.8189000000000001  0.04632  0.90403  1.0000
  C   C70       1.0  0.83413  0.0031899999999999993  0.12427999999999997  1.0000
  C   C71       1.0  0.9959  0.2614899999999999  0.21011  1.0000
  C   C72       1.0  0.0018600000000000003  0.17419999999999994  0.23775  1.0000
  C   C73       1.0  0.85583  0.22592  0.26925  1.0000
  C   C74       1.0  0.06486  0.32329999999999987  0.17378  1.0000
  C   C75       1.0  0.07926000000000001  0.10493999999999998  0.23462  1.0000
  C   C76       1.0  0.74633  0.9990599999999998  0.4661099999999999  1.0000
  C   C77       1.0  0.7397900000000002  0.01729  0.55729  1.0000
  C   C78       1.0  0.88048  0.06393  0.50891  1.0000
  C   C79       1.0  0.68101  0.9522499999999998  0.40446  1.0000
  C   C80       1.0  0.66479  0.99691  0.62452  1.0000
  N   N1        1.0  0.59716  0.79274  0.23185999999999996  1.0000
  N   N2        1.0  0.5866500000000002  0.6535199999999998  0.27509  1.0000
  N   N3        1.0  0.66331  0.5289499999999999  0.437  1.0000
  N   N4        1.0  0.67447  0.557  0.5833699999999998  1.0000
  N   N5        1.0  0.90325  0.20668  0.7312499999999997  1.0000
  N   N6        1.0  0.9135  0.3457399999999999  0.7753499999999998  1.0000
  N   N7        1.0  0.8375  0.47114  0.9371799999999999  1.0000
  N   N8        1.0  0.82612  0.4431699999999999  0.08361  1.0000
  N   N9        1.0  0.40328  0.2938  0.26924  1.0000
  N   N10       1.0  0.41349  0.15452  0.22619  1.0000
  N   N11       1.0  0.3374  0.02937  0.06311  1.0000
  N   N12       1.0  0.32646  0.057439999999999984  0.91663  1.0000
  N   N13       1.0  0.09689  0.70696  0.76896  1.0000
  N   N14       1.0  0.08695  0.8459499999999998  0.7249799999999997  1.0000
  N   N15       1.0  0.16346  0.97068  0.5631099999999998  1.0000
  N   N16       1.0  0.1745  0.94242  0.41685  1.0000
  N   N17       1.0  0.40285000000000004  0.20726  0.76814  1.0000
  N   N18       1.0  0.41335  0.3464799999999999  0.72491  1.0000
  N   N19       1.0  0.33669  0.47105999999999987  0.563  1.0000
  N   N20       1.0  0.32553  0.443  0.41662999999999994  1.0000
  N   N21       1.0  0.09675000000000002  0.7933099999999998  0.26874  1.0000
  N   N22       1.0  0.08649  0.65425  0.22463999999999995  1.0000
  N   N23       1.0  0.1625  0.5288699999999997  0.06282  1.0000
  N   N24       1.0  0.17388000000000003  0.5568399999999999  0.91639  1.0000
  N   N25       1.0  0.59672  0.7062  0.73074  1.0000
  N   N26       1.0  0.5865000000000002  0.84547  0.7738299999999998  1.0000
  N   N27       1.0  0.66241  0.97063  0.93686  1.0000
  N   N28       1.0  0.6732500000000002  0.94254  0.08332999999999997  1.0000
  N   N29       1.0  0.90311  0.29303999999999997  0.23106  1.0000
  N   N30       1.0  0.913  0.15399  0.27487  1.0000
  N   N31       1.0  0.83641  0.02929  0.4368799999999999  1.0000
  N   N32       1.0  0.82542  0.05755  0.5831299999999998  1.0000
  O   O1        1.0  0.46177  0.9019899999999997  0.16488  1.0000
  O   O2        1.0  0.34699  0.7963  0.15255999999999995  1.0000
  O   O3        1.0  0.34262  0.61675  0.19197  1.0000
  O   O4        1.0  0.4477300000000001  0.53313  0.27245999999999987  1.0000
  O   O5        1.0  0.77906  0.41825  0.33516  1.0000
  O   O6        1.0  0.91113  0.4445499999999999  0.41537  1.0000
  O   O7        1.0  0.9176300000000001  0.46264  0.60311  1.0000
  O   O8        1.0  0.80981  0.51112  0.70482  1.0000
  O   O9        1.0  0.03833  0.09852999999999998  0.6606299999999998  1.0000
  O   O10       1.0  0.15362  0.20409  0.65233  1.0000
  O   O11       1.0  0.15756000000000003  0.38317  0.69198  1.0000
  O   O12       1.0  0.05216  0.46649  0.77249  1.0000
  O   O13       1.0  0.72246  0.58176  0.8353599999999998  1.0000
  O   O14       1.0  0.5896800000000001  0.55557  0.9153299999999999  1.0000
  O   O15       1.0  0.58247  0.5370199999999998  0.10303999999999999  1.0000
  O   O16       1.0  0.69005  0.48865  0.20487999999999995  1.0000
  O   O17       1.0  0.53799  0.40205  0.33901  1.0000
  O   O18       1.0  0.65361  0.29678999999999994  0.34764  1.0000
  O   O19       1.0  0.6571  0.11539  0.3095  1.0000
  O   O20       1.0  0.55241  0.03371  0.22742  1.0000
  O   O21       1.0  0.22123  0.9196199999999998  0.16509  1.0000
  O   O22       1.0  0.08915  0.94637  0.08477  1.0000
  O   O23       1.0  0.08471  0.96062  0.89713  1.0000
  O   O24       1.0  0.18971  0.01315  0.7953099999999999  1.0000
  O   O25       1.0  0.96162  0.5985  0.8353899999999997  1.0000
  O   O26       1.0  0.84677  0.70433  0.84773  1.0000
  O   O27       1.0  0.83929  0.8844099999999998  0.79972  1.0000
  O   O28       1.0  0.95016  0.96831  0.7275  1.0000
  O   O29       1.0  0.27771  0.08037  0.6649999999999998  1.0000
  O   O30       1.0  0.41054000000000007  0.05701  0.58427  1.0000
  O   O31       1.0  0.41808  0.03519  0.39683  1.0000
  O   O32       1.0  0.31059000000000003  0.98692  0.29519  1.0000
  O   O33       1.0  0.53822  0.09799999999999998  0.83511  1.0000
  O   O34       1.0  0.653  0.2037  0.8474399999999997  1.0000
  O   O35       1.0  0.65738  0.38324999999999987  0.8080199999999997  1.0000
  O   O36       1.0  0.55227  0.46687  0.7275399999999997  1.0000
  O   O37       1.0  0.22094  0.5817699999999998  0.66483  1.0000
  O   O38       1.0  0.08887  0.55545  0.58463  1.0000
  O   O39       1.0  0.08237000000000001  0.53736  0.39689  1.0000
  O   O40       1.0  0.19018  0.48887999999999987  0.29518  1.0000
  O   O41       1.0  0.96166  0.9014699999999998  0.33938  1.0000
  O   O42       1.0  0.84637  0.79591  0.34766  1.0000
  O   O43       1.0  0.84244  0.6168399999999998  0.30801  1.0000
  O   O44       1.0  0.94783  0.53351  0.22751  1.0000
  O   O45       1.0  0.27754  0.41825  0.16463999999999998  1.0000
  O   O46       1.0  0.41031000000000006  0.44443  0.08466999999999997  1.0000
  O   O47       1.0  0.41753  0.46299  0.8969599999999998  1.0000
  O   O48       1.0  0.30995  0.51135  0.79512  1.0000
  O   O49       1.0  0.46201  0.59795  0.66098  1.0000
  O   O50       1.0  0.34639  0.7032  0.6523499999999998  1.0000
  O   O51       1.0  0.34297  0.88462  0.69033  1.0000
  O   O52       1.0  0.44754  0.96625  0.7725999999999997  1.0000
  O   O53       1.0  0.77896  0.08046  0.83493  1.0000
  O   O54       1.0  0.91093  0.053319999999999985  0.9150499999999998  1.0000
  O   O55       1.0  0.91659  0.03563999999999999  0.1027  1.0000
  O   O56       1.0  0.80986  0.9869399999999998  0.20481999999999995  1.0000
  O   O57       1.0  0.03838  0.4015  0.16460999999999995  1.0000
  O   O58       1.0  0.15322  0.29565999999999987  0.15227  1.0000
  O   O59       1.0  0.16076  0.11559  0.20036999999999994  1.0000
  O   O60       1.0  0.049810000000000014  0.03168  0.27251  1.0000
  O   O61       1.0  0.7224  0.9196799999999998  0.335  1.0000
  O   O62       1.0  0.58944  0.9424399999999998  0.41579  1.0000
  O   O63       1.0  0.58206  0.9643599999999998  0.60351  1.0000
  O   O64       1.0  0.68946  0.01317  0.7048499999999999  1.0000
