data_image0
_chemical_formula_structural       Gd4H72C96N8O24
_chemical_formula_sum              "Gd4 H72 C96 N8 O24"
_cell_length_a       9.2303
_cell_length_b       16.80044
_cell_length_c       19.56496
_cell_angle_alpha    89.98019
_cell_angle_beta     90.10816000000001
_cell_angle_gamma    90.0091

_space_group_name_H-M_alt    "P 1"
_space_group_IT_number       1

loop_
  _space_group_symop_operation_xyz
  'x, y, z'

loop_
  _atom_site_type_symbol
  _atom_site_label
  _atom_site_symmetry_multiplicity
  _atom_site_fract_x
  _atom_site_fract_y
  _atom_site_fract_z
  _atom_site_occupancy
  Gd  Gd1       1.0  0.4575099999999999  0.2486  0.25057  1.0000
  Gd  Gd2       1.0  0.04287  0.74868  0.74944  1.0000
  Gd  Gd3       1.0  0.54249  0.75139  0.74943  1.0000
  Gd  Gd4       1.0  0.95712  0.25132  0.25056  1.0000
  H   H1        1.0  0.33298  0.09318  0.5839  1.0000
  H   H2        1.0  0.21604  0.13419  0.10812999999999999  1.0000
  H   H3        1.0  0.27629  0.07293  0.99669  1.0000
  H   H4        1.0  0.38755  0.11303  0.46003  1.0000
  H   H5        1.0  0.95318  0.24074  0.56198  1.0000
  H   H6        1.0  0.007080000000000001  0.25742  0.43819  1.0000
  H   H7        1.0  0.11731999999999998  0.15866  0.6351  1.0000
  H   H8        1.0  0.66312  0.97583  0.09323  1.0000
  H   H9        1.0  0.58742  0.0436  0.19956  1.0000
  H   H10       1.0  0.33463  0.40672  0.91653  1.0000
  H   H11       1.0  0.21582  0.36475  0.39258  1.0000
  H   H12       1.0  0.27589  0.42753000000000013  0.50356  1.0000
  H   H13       1.0  0.3888  0.38672  0.04052  1.0000
  H   H14       1.0  0.95414  0.25964  0.93719  1.0000
  H   H15       1.0  0.00696  0.24316999999999997  0.06123  1.0000
  H   H16       1.0  0.11883  0.34185  0.86473  1.0000
  H   H17       1.0  0.66193  0.52425  0.40651  1.0000
  H   H18       1.0  0.5864  0.45479  0.30074  1.0000
  H   H19       1.0  0.16559  0.9065800000000003  0.08343  1.0000
  H   H20       1.0  0.28411  0.8649  0.60768  1.0000
  H   H21       1.0  0.22425  0.92761  0.49658  1.0000
  H   H22       1.0  0.11146  0.88659  0.95942  1.0000
  H   H23       1.0  0.54619  0.7596400000000002  0.06281  1.0000
  H   H24       1.0  0.49334000000000006  0.7432000000000002  0.93877  1.0000
  H   H25       1.0  0.38148  0.84179  0.13525  1.0000
  H   H26       1.0  0.83806  0.02432000000000001  0.59349  1.0000
  H   H27       1.0  0.91348  0.95485  0.69932  1.0000
  H   H28       1.0  0.16678  0.59312  0.41635000000000005  1.0000
  H   H29       1.0  0.28391  0.63427  0.8918200000000001  1.0000
  H   H30       1.0  0.22359000000000004  0.57308  0.00331  1.0000
  H   H31       1.0  0.11239000000000002  0.61333  0.54015  1.0000
  H   H32       1.0  0.54679  0.7406500000000001  0.43777  1.0000
  H   H33       1.0  0.49312  0.75773  0.56151  1.0000
  H   H34       1.0  0.38251  0.65842  0.36492  1.0000
  H   H35       1.0  0.83679  0.47584999999999994  0.9068300000000001  1.0000
  H   H36       1.0  0.9126  0.54359  0.80042  1.0000
  H   H37       1.0  0.66701  0.90682  0.4161  1.0000
  H   H38       1.0  0.78396  0.86581  0.89187  1.0000
  H   H39       1.0  0.72371  0.92707  0.0032999999999999995  1.0000
  H   H40       1.0  0.61244  0.88696  0.53997  1.0000
  H   H41       1.0  0.04681  0.75926  0.43802  1.0000
  H   H42       1.0  0.99292  0.74258  0.56181  1.0000
  H   H43       1.0  0.88268  0.84134  0.3649  1.0000
  H   H44       1.0  0.33688  0.02417  0.90677  1.0000
  H   H45       1.0  0.41258  0.9564  0.80044  1.0000
  H   H46       1.0  0.66537  0.59327  0.08347  1.0000
  H   H47       1.0  0.78418  0.63525  0.60742  1.0000
  H   H48       1.0  0.72411  0.57247  0.49644  1.0000
  H   H49       1.0  0.6112  0.61327  0.95948  1.0000
  H   H50       1.0  0.04586  0.74036  0.06281  1.0000
  H   H51       1.0  0.9930400000000001  0.75682  0.93877  1.0000
  H   H52       1.0  0.8811699999999999  0.65814  0.13527  1.0000
  H   H53       1.0  0.33807  0.47575  0.59349  1.0000
  H   H54       1.0  0.4136  0.54521  0.69926  1.0000
  H   H55       1.0  0.83441  0.09341  0.91657  1.0000
  H   H56       1.0  0.71589  0.1351  0.39232  1.0000
  H   H57       1.0  0.77575  0.07238  0.50342  1.0000
  H   H58       1.0  0.88853  0.1134  0.04058  1.0000
  H   H59       1.0  0.45381000000000005  0.24035  0.93719  1.0000
  H   H60       1.0  0.50666  0.2568  0.06123  1.0000
  H   H61       1.0  0.61852  0.1582  0.86475  1.0000
  H   H62       1.0  0.16194  0.97568  0.40651  1.0000
  H   H63       1.0  0.08652000000000001  0.045150000000000017  0.30068  1.0000
  H   H64       1.0  0.83322  0.40688  0.58365  1.0000
  H   H65       1.0  0.71609  0.36573  0.10818  1.0000
  H   H66       1.0  0.77641  0.42692  0.99668  1.0000
  H   H67       1.0  0.8875999999999998  0.38667  0.4598499999999999  1.0000
  H   H68       1.0  0.45321  0.25934  0.56223  1.0000
  H   H69       1.0  0.50687  0.24226000000000003  0.43849  1.0000
  H   H70       1.0  0.61749  0.34158  0.63508  1.0000
  H   H71       1.0  0.16321  0.5241500000000001  0.09317  1.0000
  H   H72       1.0  0.0874  0.4564100000000001  0.19958  1.0000
  C   C1        1.0  0.23912000000000003  0.19992000000000004  0.36868  1.0000
  C   C2        1.0  0.4791  0.01775  0.0317  1.0000
  C   C3        1.0  0.20175  0.18728  0.44206  1.0000
  C   C4        1.0  0.26307  0.13039  0.55247  1.0000
  C   C5        1.0  0.31274  0.09865  0.10026  1.0000
  C   C6        1.0  0.34964  0.06366  0.03943  1.0000
  C   C7        1.0  0.29348  0.14079  0.48335  1.0000
  C   C8        1.0  0.04901  0.21279  0.54028  1.0000
  C   C9        1.0  0.07868  0.22262  0.47075000000000006  1.0000
  C   C10       1.0  0.14116  0.16696  0.58114  1.0000
  C   C11       1.0  0.56324  0.00996  0.09278  1.0000
  C   C12       1.0  0.52411  0.04605  0.1528  1.0000
  C   C13       1.0  0.23597  0.29987  0.13164  1.0000
  C   C14       1.0  0.479  0.48201000000000005  0.46839  1.0000
  C   C15       1.0  0.20167  0.31304  0.05801  1.0000
  C   C16       1.0  0.26448  0.36963  0.94784  1.0000
  C   C17       1.0  0.31268  0.4002  0.4004  1.0000
  C   C18       1.0  0.34952  0.43603  0.46094  1.0000
  C   C19       1.0  0.29439  0.35919  0.0171  1.0000
  C   C20       1.0  0.04989  0.28751  0.95921  1.0000
  C   C21       1.0  0.07887  0.27779000000000004  0.02881  1.0000
  C   C22       1.0  0.14253  0.33329  0.9187200000000001  1.0000
  C   C23       1.0  0.56271  0.48949  0.40729  1.0000
  C   C24       1.0  0.52366  0.45249  0.34757  1.0000
  C   C25       1.0  0.26405  0.79976  0.86841  1.0000
  C   C26       1.0  0.02102  0.98207  0.53164  1.0000
  C   C27       1.0  0.29858  0.813  0.94199  1.0000
  C   C28       1.0  0.23578000000000002  0.8695200000000002  0.052149999999999995  1.0000
  C   C29       1.0  0.18729  0.9003500000000001  0.59974  1.0000
  C   C30       1.0  0.15057  0.93616  0.53917  1.0000
  C   C31       1.0  0.20587  0.85911  0.98289  1.0000
  C   C32       1.0  0.45042000000000004  0.7874900000000002  0.04077  1.0000
  C   C33       1.0  0.42143  0.7778  0.9711699999999999  1.0000
  C   C34       1.0  0.35775  0.8332000000000003  0.08127  1.0000
  C   C35       1.0  0.9373  0.9896  0.59275  1.0000
  C   C36       1.0  0.9762800000000001  0.95261  0.6525  1.0000
  C   C37       1.0  0.26095  0.70049  0.63122  1.0000
  C   C38       1.0  0.02085  0.5178  0.9683  1.0000
  C   C39       1.0  0.29838  0.68755  0.55792  1.0000
  C   C40       1.0  0.23678999999999994  0.63041  0.44766  1.0000
  C   C41       1.0  0.18724  0.5987000000000002  0.89972  1.0000
  C   C42       1.0  0.15025  0.56377  0.96058  1.0000
  C   C43       1.0  0.20655  0.64096  0.51677  1.0000
  C   C44       1.0  0.45093  0.71282  0.45958  1.0000
  C   C45       1.0  0.42142  0.72282  0.5291  1.0000
  C   C46       1.0  0.35867  0.66692  0.41885  1.0000
  C   C47       1.0  0.93666  0.51002  0.90725  1.0000
  C   C48       1.0  0.97587  0.54604  0.8472  1.0000
  C   C49       1.0  0.76087  0.80008  0.63132  1.0000
  C   C50       1.0  0.5209  0.98225  0.9683  1.0000
  C   C51       1.0  0.79824  0.8127200000000002  0.55794  1.0000
  C   C52       1.0  0.73692  0.86961  0.44753  1.0000
  C   C53       1.0  0.68726  0.9013400000000003  0.89974  1.0000
  C   C54       1.0  0.65036  0.93634  0.96057  1.0000
  C   C55       1.0  0.70651  0.8592  0.51665  1.0000
  C   C56       1.0  0.95098  0.7872100000000001  0.45971999999999996  1.0000
  C   C57       1.0  0.9213100000000001  0.77738  0.52925  1.0000
  C   C58       1.0  0.85884  0.83304  0.41886  1.0000
  C   C59       1.0  0.43676  0.9900399999999999  0.9072199999999999  1.0000
  C   C60       1.0  0.47587999999999997  0.9539500000000001  0.8472  1.0000
  C   C61       1.0  0.76403  0.70013  0.86836  1.0000
  C   C62       1.0  0.521  0.51799  0.53161  1.0000
  C   C63       1.0  0.79832  0.68696  0.94199  1.0000
  C   C64       1.0  0.73552  0.63037  0.05216  1.0000
  C   C65       1.0  0.68732  0.5998000000000002  0.59959  1.0000
  C   C66       1.0  0.65048  0.56397  0.53906  1.0000
  C   C67       1.0  0.70561  0.64081  0.9829  1.0000
  C   C68       1.0  0.9501099999999999  0.71249  0.04079  1.0000
  C   C69       1.0  0.92113  0.72221  0.97119  1.0000
  C   C70       1.0  0.85747  0.66671  0.08128  1.0000
  C   C71       1.0  0.43729  0.51051  0.59271  1.0000
  C   C72       1.0  0.47634000000000004  0.54751  0.65243  1.0000
  C   C73       1.0  0.73594  0.20024  0.13158  1.0000
  C   C74       1.0  0.97898  0.017920000000000002  0.46836  1.0000
  C   C75       1.0  0.70142  0.18699  0.05801  1.0000
  C   C76       1.0  0.76422  0.13048  0.94785  1.0000
  C   C77       1.0  0.81271  0.09965000000000003  0.40026  1.0000
  C   C78       1.0  0.84943  0.06384000000000002  0.46083  1.0000
  C   C79       1.0  0.79412  0.14089  0.01711  1.0000
  C   C80       1.0  0.54958  0.21251  0.95922  1.0000
  C   C81       1.0  0.57856  0.2222  0.028820000000000002  1.0000
  C   C82       1.0  0.64225  0.1668  0.91873  1.0000
  C   C83       1.0  0.0627  0.01039  0.40725  1.0000
  C   C84       1.0  0.02372  0.04739  0.3475  1.0000
  C   C85       1.0  0.73904  0.2995  0.36878  1.0000
  C   C86       1.0  0.97915  0.4822  0.0317  1.0000
  C   C87       1.0  0.70161  0.31245  0.44208  1.0000
  C   C88       1.0  0.76321  0.36958000000000013  0.55234  1.0000
  C   C89       1.0  0.81276  0.4013  0.10027  1.0000
  C   C90       1.0  0.84975  0.4362300000000001  0.03942  1.0000
  C   C91       1.0  0.79344  0.35904  0.48322999999999994  1.0000
  C   C92       1.0  0.54906  0.28717  0.54042  1.0000
  C   C93       1.0  0.57858  0.27718  0.47090000000000004  1.0000
  C   C94       1.0  0.64133  0.33308  0.58115  1.0000
  C   C95       1.0  0.06334  0.4899800000000001  0.09275  1.0000
  C   C96       1.0  0.02413  0.45396  0.1528  1.0000
  N   N1        1.0  0.40067  0.09142  0.15661  1.0000
  N   N2        1.0  0.40071  0.40658  0.34417  1.0000
  N   N3        1.0  0.09912  0.90663  0.6559  1.0000
  N   N4        1.0  0.09949  0.59129  0.84333  1.0000
  N   N5        1.0  0.59933  0.90858  0.84339  1.0000
  N   N6        1.0  0.59929  0.59342  0.65582  1.0000
  N   N7        1.0  0.90089  0.09337  0.34409  1.0000
  N   N8        1.0  0.9005100000000001  0.40870000000000006  0.15667  1.0000
  O   O1        1.0  0.36503  0.12772  0.21583  1.0000
  O   O2        1.0  0.36983  0.18708  0.35074  1.0000
  O   O3        1.0  0.14301  0.22577  0.3268  1.0000
  O   O4        1.0  0.36509  0.36908  0.2855  1.0000
  O   O5        1.0  0.36542  0.3123900000000001  0.15143  1.0000
  O   O6        1.0  0.13676  0.2738  0.17162  1.0000
  O   O7        1.0  0.13492  0.86917  0.71463  1.0000
  O   O8        1.0  0.13456  0.8121200000000001  0.84867  1.0000
  O   O9        1.0  0.36317  0.7737100000000001  0.82839  1.0000
  O   O10       1.0  0.13507  0.62763  0.78414  1.0000
  O   O11       1.0  0.13069  0.6868  0.64942  1.0000
  O   O12       1.0  0.35668  0.72717  0.67291  1.0000
  O   O13       1.0  0.63497  0.87227  0.78416  1.0000
  O   O14       1.0  0.63016  0.8129300000000003  0.64926  1.0000
  O   O15       1.0  0.85698  0.77423  0.6732  1.0000
  O   O16       1.0  0.63491  0.63092  0.71449  1.0000
  O   O17       1.0  0.63459  0.68761  0.8485699999999999  1.0000
  O   O18       1.0  0.86324  0.7261900000000002  0.8283799999999999  1.0000
  O   O19       1.0  0.86508  0.13083  0.28537  1.0000
  O   O20       1.0  0.86544  0.18788  0.15133  1.0000
  O   O21       1.0  0.63682  0.22629  0.17161  1.0000
  O   O22       1.0  0.86493  0.37237  0.21586  1.0000
  O   O23       1.0  0.8692899999999999  0.31321  0.35058  1.0000
  O   O24       1.0  0.64333  0.27279  0.32709  1.0000
