data_image0
_chemical_formula_structural       Eu4H60C108O24
_chemical_formula_sum              "Eu4 H60 C108 O24"
_cell_length_a       13.63498
_cell_length_b       14.75541
_cell_length_c       22.33804
_cell_angle_alpha    109.03462
_cell_angle_beta     100.31505
_cell_angle_gamma    89.77171

_space_group_name_H-M_alt    "P 1"
_space_group_IT_number       1

loop_
  _space_group_symop_operation_xyz
  'x, y, z'

loop_
  _atom_site_type_symbol
  _atom_site_label
  _atom_site_symmetry_multiplicity
  _atom_site_fract_x
  _atom_site_fract_y
  _atom_site_fract_z
  _atom_site_occupancy
  Eu  Eu1       1.0  0.53425  0.50445  0.58664  1.0000
  Eu  Eu2       1.0  0.9648700000000002  0.91719  0.41365  1.0000
  Eu  Eu3       1.0  0.4657700000000001  0.4956399999999998  0.41332  1.0000
  Eu  Eu4       1.0  0.03509999999999997  0.08282999999999997  0.58636  1.0000
  H   H1        1.0  0.41583  0.22867000000000004  0.36757  1.0000
  H   H2        1.0  0.20886  0.9977499999999999  0.35457  1.0000
  H   H3        1.0  0.30103  0.22491999999999995  0.53423  1.0000
  H   H4        1.0  0.35531  0.18599  0.26367  1.0000
  H   H5        1.0  0.3747900000000001  0.10332  0.15324  1.0000
  H   H6        1.0  0.3169100000000001  0.83031  0.17719  1.0000
  H   H7        1.0  0.29751  0.9134999999999998  0.28738  1.0000
  H   H8        1.0  0.38607000000000014  0.03592999999999998  0.06368  1.0000
  H   H9        1.0  0.41547  0.9521  0.95642  1.0000
  H   H10       1.0  0.37743  0.68122  0.98665  1.0000
  H   H11       1.0  0.35025  0.7645899999999998  0.09421  1.0000
  H   H12       1.0  0.41003  0.8799199999999998  0.863  1.0000
  H   H13       1.0  0.46219  0.7948599999999998  0.75942  1.0000
  H   H14       1.0  0.47614  0.5339199999999998  0.80419  1.0000
  H   H15       1.0  0.42895  0.6173600000000001  0.9097400000000001  1.0000
  H   H16       1.0  0.08557  0.86215  0.63231  1.0000
  H   H17       1.0  0.29161999999999993  0.6414  0.64535  1.0000
  H   H18       1.0  0.1997  0.6917199999999998  0.46576  1.0000
  H   H19       1.0  0.14589000000000002  0.9217999999999997  0.73575  1.0000
  H   H20       1.0  0.12589000000000003  0.9492599999999999  0.8461400000000001  1.0000
  H   H21       1.0  0.18418  0.65258  0.82366  1.0000
  H   H22       1.0  0.20449  0.6260199999999998  0.71354  1.0000
  H   H23       1.0  0.11454  0.9715099999999999  0.9356  1.0000
  H   H24       1.0  0.08500000000000003  0.9952299999999997  0.04298  1.0000
  H   H25       1.0  0.12190000000000002  0.6944699999999998  0.01438  1.0000
  H   H26       1.0  0.14938000000000007  0.66998  0.90671  1.0000
  H   H27       1.0  0.08971  0.01666  0.13668  1.0000
  H   H28       1.0  0.036750000000000005  0.03558999999999998  0.24013  1.0000
  H   H29       1.0  0.02469000000000001  0.7310099999999998  0.19755  1.0000
  H   H30       1.0  0.07147  0.7085400000000001  0.0917  1.0000
  H   H31       1.0  0.5842  0.77141  0.63245  1.0000
  H   H32       1.0  0.7911499999999999  0.0022700000000000276  0.6455  1.0000
  H   H33       1.0  0.69902  0.77521  0.4658  1.0000
  H   H34       1.0  0.64475  0.81408  0.73635  1.0000
  H   H35       1.0  0.62524  0.8967000000000002  0.8467700000000001  1.0000
  H   H36       1.0  0.6830200000000001  0.16969999999999988  0.82283  1.0000
  H   H37       1.0  0.70247  0.08654000000000006  0.71266  1.0000
  H   H38       1.0  0.6139300000000002  0.96407  0.9363400000000001  1.0000
  H   H39       1.0  0.58451  0.0479  0.04359  1.0000
  H   H40       1.0  0.62256  0.31877  0.01337  1.0000
  H   H41       1.0  0.64975  0.23539999999999994  0.9058100000000001  1.0000
  H   H42       1.0  0.5900100000000003  0.12010999999999997  0.13703  1.0000
  H   H43       1.0  0.53788  0.20524999999999996  0.24064000000000002  1.0000
  H   H44       1.0  0.52382  0.46615  0.19575999999999996  1.0000
  H   H45       1.0  0.57094  0.3826  0.09019  1.0000
  H   H46       1.0  0.91448  0.13785999999999995  0.36769  1.0000
  H   H47       1.0  0.70839  0.35859  0.35462  1.0000
  H   H48       1.0  0.80033  0.3082199999999999  0.53422  1.0000
  H   H49       1.0  0.8540800000000001  0.07813999999999999  0.26419  1.0000
  H   H50       1.0  0.8741  0.0507  0.15379  1.0000
  H   H51       1.0  0.81587  0.34742999999999996  0.17629  1.0000
  H   H52       1.0  0.7955200000000001  0.3739999999999999  0.28642  1.0000
  H   H53       1.0  0.8854800000000003  0.028509999999999994  0.06436  1.0000
  H   H54       1.0  0.91498  0.004800000000000018  0.95696  1.0000
  H   H55       1.0  0.8780700000000002  0.30557  0.98561  1.0000
  H   H56       1.0  0.85066  0.3300100000000001  0.09328  1.0000
  H   H57       1.0  0.91022  0.98344  0.86326  1.0000
  H   H58       1.0  0.96336  0.9645399999999995  0.75989  1.0000
  H   H59       1.0  0.9756700000000001  0.2692099999999999  0.80263  1.0000
  H   H60       1.0  0.92873  0.29151999999999995  0.90841  1.0000
  C   C1        1.0  0.4251600000000001  0.3251  0.49496  1.0000
  C   C2        1.0  0.36431  0.23528999999999994  0.4544  1.0000
  C   C3        1.0  0.3687000000000001  0.19357999999999995  0.38906  1.0000
  C   C4        1.0  0.31516  0.10557999999999997  0.35214  1.0000
  C   C5        1.0  0.25401  0.06384999999999998  0.38183  1.0000
  C   C6        1.0  0.24778  0.10690999999999995  0.44674  1.0000
  C   C7        1.0  0.3044  0.19197  0.4834800000000001  1.0000
  C   C8        1.0  0.17869  0.06187999999999995  0.47574  1.0000
  C   C9        1.0  0.3243600000000001  0.05655999999999998  0.28464  1.0000
  C   C10       1.0  0.34638  0.10788  0.24473000000000003  1.0000
  C   C11       1.0  0.35739  0.060340000000000005  0.18171  1.0000
  C   C12       1.0  0.34867  0.9588999999999996  0.155  1.0000
  C   C13       1.0  0.32526  0.9082100000000001  0.19509  1.0000
  C   C14       1.0  0.31323000000000006  0.9554299999999998  0.25782  1.0000
  C   C15       1.0  0.36489  0.9084000000000001  0.08936  1.0000
  C   C16       1.0  0.38382  0.9579399999999998  0.04756  1.0000
  C   C17       1.0  0.40012000000000003  0.9098799999999998  0.98585  1.0000
  C   C18       1.0  0.3988700000000001  0.8084799999999998  0.9612200000000001  1.0000
  C   C19       1.0  0.38031  0.7591599999999998  0.0030200000000000005  1.0000
  C   C20       1.0  0.364  0.8070299999999998  0.06462  1.0000
  C   C21       1.0  0.5141700000000002  0.6090399999999998  0.71593  1.0000
  C   C22       1.0  0.4192100000000001  0.7569599999999997  0.8965300000000002  1.0000
  C   C23       1.0  0.42679  0.8047799999999998  0.8518600000000001  1.0000
  C   C24       1.0  0.4551200000000001  0.7573299999999997  0.7931800000000001  1.0000
  C   C25       1.0  0.4758400000000001  0.6599399999999999  0.7765600000000001  1.0000
  C   C26       1.0  0.4627  0.6100599999999999  0.81864  1.0000
  C   C27       1.0  0.43544000000000005  0.65759  0.87748  1.0000
  C   C28       1.0  0.07519000000000006  0.8296699999999998  0.50388  1.0000
  C   C29       1.0  0.13709  0.78181  0.54553  1.0000
  C   C30       1.0  0.13296000000000005  0.8055199999999998  0.61097  1.0000
  C   C31       1.0  0.18662  0.7536399999999998  0.64797  1.0000
  C   C32       1.0  0.24702  0.6813199999999999  0.61817  1.0000
  C   C33       1.0  0.25295  0.6594  0.55314  1.0000
  C   C34       1.0  0.19695  0.7091  0.51659  1.0000
  C   C35       1.0  0.32018  0.58355  0.52375  1.0000
  C   C36       1.0  0.17737000000000003  0.77165  0.71553  1.0000
  C   C37       1.0  0.15486000000000008  0.86265  0.755  1.0000
  C   C38       1.0  0.14352  0.8779399999999999  0.8180100000000001  1.0000
  C   C39       1.0  0.15220999999999998  0.8032599999999998  0.84512  1.0000
  C   C40       1.0  0.17595000000000002  0.71261  0.80547  1.0000
  C   C41       1.0  0.1885  0.6973499999999998  0.74277  1.0000
  C   C42       1.0  0.13554999999999998  0.81847  0.91078  1.0000
  C   C43       1.0  0.11668999999999997  0.9098099999999998  0.95214  1.0000
  C   C44       1.0  0.10029  0.9236099999999998  0.01392  1.0000
  C   C45       1.0  0.10124000000000002  0.8471  0.03909  1.0000
  C   C46       1.0  0.11951000000000002  0.7559399999999997  0.99767  1.0000
  C   C47       1.0  0.13595000000000002  0.7420499999999998  0.9359899999999999  1.0000
  C   C48       1.0  0.9842799999999999  0.8925699999999998  0.28425  1.0000
  C   C49       1.0  0.08088  0.8606799999999998  0.10393  1.0000
  C   C50       1.0  0.07303  0.9529599999999999  0.14821  1.0000
  C   C51       1.0  0.04435  0.96438  0.20692  1.0000
  C   C52       1.0  0.024089999999999993  0.8839499999999998  0.22413999999999998  1.0000
  C   C53       1.0  0.03785  0.79228  0.18254  1.0000
  C   C54       1.0  0.06499000000000002  0.7808299999999998  0.12360999999999998  1.0000
  C   C55       1.0  0.5749100000000001  0.67508  0.5051  1.0000
  C   C56       1.0  0.6357500000000001  0.7648399999999997  0.54566  1.0000
  C   C57       1.0  0.63132  0.80651  0.61098  1.0000
  C   C58       1.0  0.68486  0.8944699999999998  0.64789  1.0000
  C   C59       1.0  0.74604  0.93618  0.61823  1.0000
  C   C60       1.0  0.75227  0.89319  0.55331  1.0000
  C   C61       1.0  0.69566  0.8081499999999998  0.51657  1.0000
  C   C62       1.0  0.8214  0.93832  0.52442  1.0000
  C   C63       1.0  0.67565  0.9434899999999998  0.71538  1.0000
  C   C64       1.0  0.65365  0.89217  0.75529  1.0000
  C   C65       1.0  0.64264  0.9396699999999999  0.8183  1.0000
  C   C66       1.0  0.6513299999999999  0.04108999999999994  0.8450099999999999  1.0000
  C   C67       1.0  0.67472  0.09181000000000002  0.80494  1.0000
  C   C68       1.0  0.68677  0.04461000000000001  0.74222  1.0000
  C   C69       1.0  0.63509  0.09157999999999997  0.91064  1.0000
  C   C70       1.0  0.61617  0.04204999999999998  0.95245  1.0000
  C   C71       1.0  0.59985  0.09011  0.014150000000000001  1.0000
  C   C72       1.0  0.6011  0.19150999999999996  0.03877  1.0000
  C   C73       1.0  0.61967  0.24082  0.99698  1.0000
  C   C74       1.0  0.63598  0.19294999999999995  0.93538  1.0000
  C   C75       1.0  0.48577  0.39097  0.28404  1.0000
  C   C76       1.0  0.58078  0.24305999999999997  0.10347  1.0000
  C   C77       1.0  0.5732200000000001  0.19523999999999994  0.14815  1.0000
  C   C78       1.0  0.54488  0.24269  0.20682  1.0000
  C   C79       1.0  0.5241600000000001  0.34008  0.22341000000000003  1.0000
  C   C80       1.0  0.53722  0.38999  0.18131  1.0000
  C   C81       1.0  0.56452  0.34243  0.12249  1.0000
  C   C82       1.0  0.92483  0.17040000000000002  0.49613000000000007  1.0000
  C   C83       1.0  0.8629200000000002  0.21823999999999993  0.45445  1.0000
  C   C84       1.0  0.8670500000000001  0.19446999999999995  0.389  1.0000
  C   C85       1.0  0.81337  0.24634999999999999  0.35202  1.0000
  C   C86       1.0  0.7529900000000003  0.3186899999999999  0.38183  1.0000
  C   C87       1.0  0.74704  0.34061999999999987  0.44686  1.0000
  C   C88       1.0  0.8031000000000003  0.2909499999999998  0.48339999999999994  1.0000
  C   C89       1.0  0.67984  0.41648  0.47621  1.0000
  C   C90       1.0  0.8226000000000001  0.2283299999999999  0.28445  1.0000
  C   C91       1.0  0.84512  0.13732  0.24496  1.0000
  C   C92       1.0  0.8564799999999999  0.12202999999999997  0.18194  1.0000
  C   C93       1.0  0.84781  0.19672  0.15483  1.0000
  C   C94       1.0  0.8241  0.2874  0.1945  1.0000
  C   C95       1.0  0.8115300000000001  0.30265  0.2572  1.0000
  C   C96       1.0  0.86445  0.18152  0.08918  1.0000
  C   C97       1.0  0.8833100000000002  0.09019999999999997  0.04781  1.0000
  C   C98       1.0  0.89971  0.07642  0.98602  1.0000
  C   C99       1.0  0.89874  0.15294  0.96087  1.0000
  C   C100      1.0  0.8804900000000002  0.24407999999999994  0.0023  1.0000
  C   C101      1.0  0.86405  0.25796  0.06398  1.0000
  C   C102      1.0  0.015590000000000001  0.10740000000000001  0.71572  1.0000
  C   C103      1.0  0.91913  0.1394  0.89605  1.0000
  C   C104      1.0  0.92701  0.04714999999999999  0.8518  1.0000
  C   C105      1.0  0.9557400000000001  0.03573000000000003  0.7931100000000001  1.0000
  C   C106      1.0  0.97603  0.11615999999999993  0.77591  1.0000
  C   C107      1.0  0.96244  0.20784999999999995  0.81755  1.0000
  C   C108      1.0  0.9352  0.21927  0.87644  1.0000
  O   O1        1.0  0.4476700000000001  0.34368  0.55531  1.0000
  O   O2        1.0  0.45405  0.38161999999999996  0.46712  1.0000
  O   O3        1.0  0.17153  0.10341  0.53451  1.0000
  O   O4        1.0  0.13035  0.9844099999999998  0.43864  1.0000
  O   O5        1.0  0.51562  0.51763  0.69811  1.0000
  O   O6        1.0  0.54347  0.65864  0.68422  1.0000
  O   O7        1.0  0.05235999999999999  0.78637  0.44366  1.0000
  O   O8        1.0  0.045500000000000006  0.91405  0.53016  1.0000
  O   O9        1.0  0.32818  0.56738  0.46513  1.0000
  O   O10       1.0  0.3663400000000001  0.5406  0.56047  1.0000
  O   O11       1.0  0.98461  0.8189  0.30241  1.0000
  O   O12       1.0  0.95238  0.9728099999999997  0.3152  1.0000
  O   O13       1.0  0.55227  0.65672  0.44474  1.0000
  O   O14       1.0  0.54629  0.6183799999999998  0.53287  1.0000
  O   O15       1.0  0.8285800000000001  0.89688  0.46559000000000006  1.0000
  O   O16       1.0  0.86971  0.015720000000000005  0.5615  1.0000
  O   O17       1.0  0.48412  0.48234  0.3018  1.0000
  O   O18       1.0  0.45651  0.3413799999999999  0.31575  1.0000
  O   O19       1.0  0.9476300000000001  0.21369000000000005  0.55628  1.0000
  O   O20       1.0  0.95449  0.08594999999999998  0.4698  1.0000
  O   O21       1.0  0.67181  0.4326999999999999  0.53479  1.0000
  O   O22       1.0  0.63367  0.45948999999999995  0.43950000000000006  1.0000
  O   O23       1.0  0.015290000000000017  0.18108  0.69754  1.0000
  O   O24       1.0  0.04759  0.027209999999999995  0.68475  1.0000
