data_image0
_chemical_formula_structural       Zn4H60C64N28O16
_chemical_formula_sum              "Zn4 H60 C64 N28 O16"
_cell_length_a       9.19119
_cell_length_b       13.57394
_cell_length_c       15.54297
_cell_angle_alpha    89.88219000000001
_cell_angle_beta     93.30932
_cell_angle_gamma    90.07371

_symmetry_space_group_name_H-M    'P 1'
_symmetry_Int_Tables_number       1

loop_
  _symmetry_equiv_pos_as_xyz
  'x,y,z'

loop_
  _atom_site_type_symbol
  _atom_site_label
  _atom_site_symmetry_multiplicity
  _atom_site_fract_x
  _atom_site_fract_y
  _atom_site_fract_z
  _atom_site_occupancy
  Zn  Zn1       1.0  0.7610500000000002  0.65645  0.7987299999999998  1.0000
  Zn  Zn2       1.0  0.7413400000000002  0.15731  0.70174  1.0000
  Zn  Zn3       1.0  0.23895000000000002  0.34355  0.20126999999999995  1.0000
  Zn  Zn4       1.0  0.25865999999999995  0.84269  0.29826  1.0000
  H   H1        1.0  0.52316  0.71183  0.0307  1.0000
  H   H2        1.0  0.11447  0.60893  0.11716  1.0000
  H   H3        1.0  0.26497  0.5079  0.87472  1.0000
  H   H4        1.0  0.7483700000000002  0.35433  0.6073  1.0000
  H   H5        1.0  0.84319  0.71548  0.99808  1.0000
  H   H6        1.0  0.04588  0.55169  0.73086  1.0000
  H   H7        1.0  0.9053  0.40849999999999986  0.4785399999999999  1.0000
  H   H8        1.0  0.09119  0.41614  0.46222  1.0000
  H   H9        1.0  0.15176  0.43463  0.62  1.0000
  H   H10       1.0  0.05082  0.32607  0.59661  1.0000
  H   H11       1.0  0.1015  0.75105  0.78597  1.0000
  H   H12       1.0  0.006379999999999999  0.8312499999999998  0.10758  1.0000
  H   H13       1.0  0.16555999999999998  0.8809299999999999  0.06635999999999997  1.0000
  H   H14       1.0  0.98097  0.0089  0.09809999999999998  1.0000
  H   H15       1.0  0.8531200000000002  0.95573  0.023229999999999994  1.0000
  H   H16       1.0  0.97876  0.21266999999999997  0.46839  1.0000
  H   H17       1.0  0.38729  0.10908999999999998  0.3832  1.0000
  H   H18       1.0  0.23387  0.00795  0.62545  1.0000
  H   H19       1.0  0.7505499999999999  0.85374  0.8924599999999998  1.0000
  H   H20       1.0  0.6567400000000001  0.21606  0.50154  1.0000
  H   H21       1.0  0.45556  0.05274  0.7687999999999998  1.0000
  H   H22       1.0  0.5945400000000001  0.9085  0.02147  1.0000
  H   H23       1.0  0.40876  0.9157499999999998  0.0377  1.0000
  H   H24       1.0  0.3481700000000001  0.93488  0.8799  1.0000
  H   H25       1.0  0.44868  0.8263399999999997  0.9034999999999997  1.0000
  H   H26       1.0  0.40022  0.24982  0.7145  1.0000
  H   H27       1.0  0.49328  0.33165999999999995  0.3926099999999999  1.0000
  H   H28       1.0  0.33445  0.38102  0.43383  1.0000
  H   H29       1.0  0.5192  0.5092  0.4019199999999999  1.0000
  H   H30       1.0  0.64689  0.45603  0.47693  1.0000
  H   H31       1.0  0.47684  0.28817  0.9692999999999998  1.0000
  H   H32       1.0  0.88552  0.39107  0.88284  1.0000
  H   H33       1.0  0.73502  0.4920999999999999  0.12528  1.0000
  H   H34       1.0  0.25163  0.64567  0.3927  1.0000
  H   H35       1.0  0.15681000000000003  0.28452  0.0019099999999999996  1.0000
  H   H36       1.0  0.9541100000000001  0.44831  0.26912999999999987  1.0000
  H   H37       1.0  0.09469  0.5915  0.52146  1.0000
  H   H38       1.0  0.9088  0.58386  0.53778  1.0000
  H   H39       1.0  0.84824  0.56537  0.3799899999999999  1.0000
  H   H40       1.0  0.9491800000000001  0.6739299999999999  0.40338  1.0000
  H   H41       1.0  0.8984900000000001  0.24894999999999995  0.21402999999999994  1.0000
  H   H42       1.0  0.9936100000000001  0.16874999999999998  0.89242  1.0000
  H   H43       1.0  0.8344399999999998  0.11907  0.9336399999999998  1.0000
  H   H44       1.0  0.019019999999999974  0.9911  0.9018999999999998  1.0000
  H   H45       1.0  0.14688  0.04426999999999999  0.97677  1.0000
  H   H46       1.0  0.021239999999999978  0.78733  0.5316099999999998  1.0000
  H   H47       1.0  0.6127100000000001  0.8909099999999999  0.6168  1.0000
  H   H48       1.0  0.76612  0.99205  0.3745399999999999  1.0000
  H   H49       1.0  0.24944  0.14626  0.10754  1.0000
  H   H50       1.0  0.34325  0.7839399999999999  0.4984599999999999  1.0000
  H   H51       1.0  0.54443  0.94726  0.2312  1.0000
  H   H52       1.0  0.40545  0.09149999999999998  0.97853  1.0000
  H   H53       1.0  0.59123  0.08424  0.9623  1.0000
  H   H54       1.0  0.65182  0.06512  0.12009999999999997  1.0000
  H   H55       1.0  0.55131  0.17365999999999995  0.09649999999999997  1.0000
  H   H56       1.0  0.59977  0.75018  0.2855  1.0000
  H   H57       1.0  0.50671  0.66834  0.60739  1.0000
  H   H58       1.0  0.66554  0.61898  0.56617  1.0000
  H   H59       1.0  0.4808  0.4907999999999999  0.5980799999999997  1.0000
  H   H60       1.0  0.3531  0.54398  0.52307  1.0000
  C   C1        1.0  0.42629  0.6666  0.01972  1.0000
  C   C2        1.0  0.51  0.61827  0.87348  1.0000
  C   C3        1.0  0.32092  0.66693  0.08179  1.0000
  C   C4        1.0  0.40569  0.6110899999999999  0.94426  1.0000
  C   C5        1.0  0.34178  0.73405  0.15821  1.0000
  C   C6        1.0  0.19624000000000005  0.60929  0.06952  1.0000
  C   C7        1.0  0.17646  0.55113  0.99493  1.0000
  C   C8        1.0  0.2815  0.55166  0.9329799999999998  1.0000
  C   C9        1.0  0.7909600000000001  0.4128499999999999  0.64846  1.0000
  C   C10       1.0  0.9267100000000001  0.73992  0.9564099999999998  1.0000
  C   C11       1.0  0.94671  0.51206  0.71283  1.0000
  C   C12       1.0  0.007009999999999997  0.44384  0.50339  1.0000
  C   C13       1.0  0.04578  0.4066899999999999  0.59506  1.0000
  C   C14       1.0  0.062280000000000016  0.75819  0.85  1.0000
  C   C15       1.0  0.04844  0.87031  0.05237  1.0000
  C   C16       1.0  0.97043  0.96908  0.03655  1.0000
  C   C17       1.0  0.0753  0.16741999999999999  0.47964  1.0000
  C   C18       1.0  0.98964  0.12026999999999999  0.62542  1.0000
  C   C19       1.0  0.18083  0.16768  0.41776  1.0000
  C   C20       1.0  0.09498  0.11208999999999998  0.55538  1.0000
  C   C21       1.0  0.16099  0.2356  0.34161999999999987  1.0000
  C   C22       1.0  0.30467  0.10945  0.43034  1.0000
  C   C23       1.0  0.32356  0.05111  0.50511  1.0000
  C   C24       1.0  0.21835000000000002  0.05199  0.5671  1.0000
  C   C25       1.0  0.70865  0.91242  0.85111  1.0000
  C   C26       1.0  0.57347  0.23975999999999997  0.54352  1.0000
  C   C27       1.0  0.5542299999999999  0.01268  0.7869199999999997  1.0000
  C   C28       1.0  0.49293000000000003  0.94385  0.9965499999999998  1.0000
  C   C29       1.0  0.45411000000000007  0.90698  0.90486  1.0000
  C   C30       1.0  0.4388  0.25717  0.6502999999999998  1.0000
  C   C31       1.0  0.45152000000000003  0.37045  0.4478599999999999  1.0000
  C   C32       1.0  0.5296  0.46923  0.46353  1.0000
  C   C33       1.0  0.5737000000000002  0.3334  0.98028  1.0000
  C   C34       1.0  0.49  0.3817199999999999  0.12652  1.0000
  C   C35       1.0  0.67907  0.33307  0.9182099999999997  1.0000
  C   C36       1.0  0.5943  0.38891  0.05574999999999999  1.0000
  C   C37       1.0  0.65822  0.26596  0.84179  1.0000
  C   C38       1.0  0.80375  0.39070999999999995  0.93047  1.0000
  C   C39       1.0  0.8235300000000002  0.44887  0.005069999999999998  1.0000
  C   C40       1.0  0.71849  0.44834  0.06702  1.0000
  C   C41       1.0  0.20903000000000002  0.58715  0.35154  1.0000
  C   C42       1.0  0.07328  0.26008  0.043579999999999994  1.0000
  C   C43       1.0  0.05327999999999999  0.48794  0.28716999999999987  1.0000
  C   C44       1.0  0.99298  0.55616  0.49661  1.0000
  C   C45       1.0  0.95422  0.5933099999999998  0.4049399999999999  1.0000
  C   C46       1.0  0.9377100000000002  0.24181  0.15  1.0000
  C   C47       1.0  0.9515500000000001  0.12969  0.9476299999999998  1.0000
  C   C48       1.0  0.029560000000000006  0.030919999999999993  0.96345  1.0000
  C   C49       1.0  0.92469  0.8325799999999999  0.5203599999999999  1.0000
  C   C50       1.0  0.010349999999999998  0.87973  0.37458  1.0000
  C   C51       1.0  0.81916  0.8323199999999998  0.5822299999999998  1.0000
  C   C52       1.0  0.90501  0.88791  0.44461  1.0000
  C   C53       1.0  0.83901  0.7644  0.65838  1.0000
  C   C54       1.0  0.69533  0.89055  0.56966  1.0000
  C   C55       1.0  0.67644  0.9488899999999999  0.49489  1.0000
  C   C56       1.0  0.78165  0.94801  0.4329  1.0000
  C   C57       1.0  0.29134000000000004  0.08758  0.14888  1.0000
  C   C58       1.0  0.42652  0.76024  0.45648  1.0000
  C   C59       1.0  0.44576  0.98732  0.21308  1.0000
  C   C60       1.0  0.50706  0.05614999999999999  0.00345  1.0000
  C   C61       1.0  0.54588  0.09302  0.09513999999999997  1.0000
  C   C62       1.0  0.56119  0.74283  0.3497  1.0000
  C   C63       1.0  0.5484700000000001  0.62955  0.5521399999999997  1.0000
  C   C64       1.0  0.47039  0.53077  0.53647  1.0000
  N   N1        1.0  0.71582  0.46677  0.70034  1.0000
  N   N2        1.0  0.94103  0.70943  0.87519  1.0000
  N   N3        1.0  0.033299999999999996  0.80507  0.97755  1.0000
  N   N4        1.0  0.81574  0.52964  0.74131  1.0000
  N   N5        1.0  0.05320000000000001  0.49115  0.97651  1.0000
  N   N6        1.0  0.93574  0.43846  0.65395  1.0000
  N   N7        1.0  0.12163  0.81713  0.91039  1.0000
  N   N8        1.0  0.78457  0.96626  0.79929  1.0000
  N   N9        1.0  0.55979  0.20867  0.6247599999999998  1.0000
  N   N10       1.0  0.4668300000000001  0.30489  0.52272  1.0000
  N   N11       1.0  0.6854500000000002  0.02987  0.75841  1.0000
  N   N12       1.0  0.44681000000000004  0.9911099999999999  0.52359  1.0000
  N   N13       1.0  0.56423  0.93875  0.84577  1.0000
  N   N14       1.0  0.37899000000000005  0.31637  0.59012  1.0000
  N   N15       1.0  0.28417000000000003  0.53323  0.29965999999999987  1.0000
  N   N16       1.0  0.058960000000000005  0.29057  0.12481  1.0000
  N   N17       1.0  0.96669  0.19492999999999994  0.02245  1.0000
  N   N18       1.0  0.18425  0.47036  0.25869  1.0000
  N   N19       1.0  0.94679  0.50885  0.02349  1.0000
  N   N20       1.0  0.06425  0.56154  0.34605  1.0000
  N   N21       1.0  0.8783700000000001  0.18286999999999998  0.08960999999999997  1.0000
  N   N22       1.0  0.21543000000000007  0.03374  0.20071  1.0000
  N   N23       1.0  0.44020000000000004  0.7913399999999999  0.3752399999999999  1.0000
  N   N24       1.0  0.53317  0.69511  0.47728  1.0000
  N   N25       1.0  0.31455  0.97013  0.24158999999999994  1.0000
  N   N26       1.0  0.55319  0.00889  0.47641  1.0000
  N   N27       1.0  0.43576  0.06125  0.15422999999999995  1.0000
  N   N28       1.0  0.621  0.68363  0.40988  1.0000
  O   O1        1.0  0.62924  0.66915  0.8930899999999999  1.0000
  O   O2        1.0  0.23115  0.74165  0.20663999999999993  1.0000
  O   O3        1.0  0.45942  0.78048  0.16909  1.0000
  O   O4        1.0  0.48132  0.58038  0.8016199999999998  1.0000
  O   O5        1.0  0.8729600000000001  0.17365  0.60615  1.0000
  O   O6        1.0  0.27336  0.24556  0.2949099999999999  1.0000
  O   O7        1.0  0.04253999999999999  0.28043  0.3289999999999999  1.0000
  O   O8        1.0  0.01510000000000001  0.08038  0.69695  1.0000
  O   O9        1.0  0.37076  0.33086  0.10689999999999997  1.0000
  O   O10       1.0  0.76884  0.25835  0.7933599999999997  1.0000
  O   O11       1.0  0.54058  0.21952  0.83091  1.0000
  O   O12       1.0  0.51868  0.41962  0.19839  1.0000
  O   O13       1.0  0.12703  0.82635  0.3938499999999999  1.0000
  O   O14       1.0  0.72664  0.75443  0.70509  1.0000
  O   O15       1.0  0.95746  0.71957  0.6709999999999998  1.0000
  O   O16       1.0  0.98489  0.91962  0.30305  1.0000
