data_image0
_chemical_formula_structural       Zn4H56C80N4O16
_chemical_formula_sum              "Zn4 H56 C80 N4 O16"
_cell_length_a       4.68279
_cell_length_b       15.18567
_cell_length_c       25.47702
_cell_angle_alpha    80.47944
_cell_angle_beta     84.25795999999998
_cell_angle_gamma    80.71502

_space_group_name_H-M_alt    "P 1"
_space_group_IT_number       1

loop_
  _space_group_symop_operation_xyz
  'x, y, z'

loop_
  _atom_site_type_symbol
  _atom_site_label
  _atom_site_symmetry_multiplicity
  _atom_site_fract_x
  _atom_site_fract_y
  _atom_site_fract_z
  _atom_site_occupancy
  Zn  Zn1       1.0  0.9051  0.91409  0.95909  1.0000
  Zn  Zn2       1.0  0.77904  0.5851  0.54259  1.0000
  Zn  Zn3       1.0  0.0949  0.0859  0.04090999999999999  1.0000
  Zn  Zn4       1.0  0.22103000000000003  0.4148900000000001  0.45740999999999987  1.0000
  H   H1        1.0  0.5229900000000001  0.9304199999999999  0.79613  1.0000
  H   H2        1.0  0.6785800000000001  0.016740000000000067  0.7108499999999998  1.0000
  H   H3        1.0  0.87698  0.2007900000000001  0.7192199999999997  1.0000
  H   H4        1.0  0.7032600000000001  0.10459000000000003  0.7990199999999997  1.0000
  H   H5        1.0  0.81474  0.10130000000000002  0.64909  1.0000
  H   H6        1.0  0.015520000000000025  0.21606  0.5829  1.0000
  H   H7        1.0  0.2552400000000001  0.40751000000000004  0.60893  1.0000
  H   H8        1.0  0.053150000000000065  0.29375000000000007  0.6759699999999997  1.0000
  H   H9        1.0  0.44823  0.8417499999999999  0.9093799999999997  1.0000
  H   H10       1.0  0.2565600000000002  0.6948600000000001  0.9159499999999998  1.0000
  H   H11       1.0  0.8507299999999999  0.58521  0.03764  1.0000
  H   H12       1.0  0.023280000000000012  0.73575  0.02311  1.0000
  H   H13       1.0  0.43238000000000015  0.52095  0.9407799999999997  1.0000
  H   H14       1.0  0.18894  0.55447  0.9923699999999999  1.0000
  H   H15       1.0  0.23583000000000007  0.57196  0.7053999999999998  1.0000
  H   H16       1.0  0.39649  0.48433000000000004  0.7897  1.0000
  H   H17       1.0  0.8051  0.29795999999999995  0.78082  1.0000
  H   H18       1.0  0.60807  0.3955600000000001  0.7020899999999999  1.0000
  H   H19       1.0  0.5567500000000001  0.40037999999999996  0.8505699999999999  1.0000
  H   H20       1.0  0.8103600000000003  0.2863  0.9165499999999999  1.0000
  H   H21       1.0  0.28444000000000014  0.09283000000000004  0.8914499999999997  1.0000
  H   H22       1.0  0.03354000000000011  0.20559000000000005  0.8239799999999998  1.0000
  H   H23       1.0  0.1951100000000001  0.6586399999999999  0.59171  1.0000
  H   H24       1.0  0.8591100000000002  0.8061000000000001  0.5843499999999999  1.0000
  H   H25       1.0  0.47590000000000016  0.9132600000000001  0.4626599999999999  1.0000
  H   H26       1.0  0.78817  0.76223  0.47821999999999987  1.0000
  H   H27       1.0  0.8817999999999999  0.9790500000000001  0.55873  1.0000
  H   H28       1.0  0.7341600000000003  0.94743  0.5059699999999999  1.0000
  H   H29       1.0  0.47701000000000005  0.06958  0.20387  1.0000
  H   H30       1.0  0.32141999999999993  0.98325  0.28916  1.0000
  H   H31       1.0  0.12300999999999998  0.7992  0.28078  1.0000
  H   H32       1.0  0.29674  0.8954  0.20097999999999994  1.0000
  H   H33       1.0  0.18525999999999998  0.89869  0.35091  1.0000
  H   H34       1.0  0.98448  0.78393  0.41710999999999987  1.0000
  H   H35       1.0  0.74476  0.59248  0.39107  1.0000
  H   H36       1.0  0.94685  0.70625  0.32403  1.0000
  H   H37       1.0  0.5517699999999999  0.15825  0.09061999999999998  1.0000
  H   H38       1.0  0.7434400000000003  0.30514  0.08405999999999998  1.0000
  H   H39       1.0  0.1492700000000001  0.41478000000000004  0.96236  1.0000
  H   H40       1.0  0.97672  0.26424  0.9768999999999999  1.0000
  H   H41       1.0  0.56762  0.47905  0.05921999999999999  1.0000
  H   H42       1.0  0.8110600000000001  0.44553000000000004  0.007629999999999998  1.0000
  H   H43       1.0  0.7641800000000001  0.42803  0.2946  1.0000
  H   H44       1.0  0.6035099999999999  0.51566  0.2103  1.0000
  H   H45       1.0  0.19490000000000002  0.70204  0.21917999999999999  1.0000
  H   H46       1.0  0.3919400000000003  0.60443  0.29791  1.0000
  H   H47       1.0  0.44325  0.59962  0.14943  1.0000
  H   H48       1.0  0.18964000000000003  0.71369  0.08344999999999997  1.0000
  H   H49       1.0  0.7155500000000006  0.90716  0.10854999999999997  1.0000
  H   H50       1.0  0.9664600000000001  0.7944  0.17603  1.0000
  H   H51       1.0  0.8048600000000001  0.34136000000000005  0.4082899999999999  1.0000
  H   H52       1.0  0.14087999999999998  0.19389999999999996  0.41565  1.0000
  H   H53       1.0  0.5240899999999998  0.08674  0.53734  1.0000
  H   H54       1.0  0.21181000000000005  0.23777  0.52179  1.0000
  H   H55       1.0  0.11819000000000006  0.020950000000000024  0.4412699999999999  1.0000
  H   H56       1.0  0.26583000000000007  0.052570000000000006  0.49402999999999997  1.0000
  C   C1        1.0  0.0055199999999999225  0.9525300000000001  0.85318  1.0000
  C   C2        1.0  0.09591000000000002  0.006929999999999988  0.80103  1.0000
  C   C3        1.0  0.3714900000000002  0.9855500000000001  0.7767399999999999  1.0000
  C   C4        1.0  0.47224  0.03992999999999999  0.73111  1.0000
  C   C5        1.0  0.29703999999999997  0.12086999999999999  0.70973  1.0000
  C   C6        1.0  0.017219999999999975  0.13966000000000003  0.73396  1.0000
  C   C7        1.0  0.90878  0.08245000000000004  0.7780699999999998  1.0000
  C   C8        1.0  0.4113299999999999  0.18593  0.66669  1.0000
  C   C9        1.0  0.6879000000000003  0.16776000000000005  0.6407899999999997  1.0000
  C   C10       1.0  0.8097  0.23427000000000006  0.6044099999999999  1.0000
  C   C11       1.0  0.64821  0.32063  0.59152  1.0000
  C   C12       1.0  0.37104000000000015  0.33916  0.6164799999999999  1.0000
  C   C13       1.0  0.2507400000000001  0.27291000000000004  0.65265  1.0000
  C   C14       1.0  0.766  0.39403  0.55394  1.0000
  C   C15       1.0  0.5307100000000005  0.7824200000000001  0.9366399999999998  1.0000
  C   C16       1.0  0.41954999999999987  0.7013  0.94199  1.0000
  C   C17       1.0  0.5469700000000004  0.62526  0.9763199999999997  1.0000
  C   C18       1.0  0.76886  0.6367  0.0056  1.0000
  C   C19       1.0  0.8696600000000004  0.7205300000000001  0.9981399999999998  1.0000
  C   C20       1.0  0.42759000000000014  0.5392100000000001  0.9810099999999999  1.0000
  C   C21       1.0  0.8055999999999999  0.5494300000000001  0.64871  1.0000
  C   C22       1.0  0.89699  0.49427000000000004  0.70052  1.0000
  C   C23       1.0  0.12412000000000006  0.51599  0.72453  1.0000
  C   C24       1.0  0.2362400000000002  0.46105000000000007  0.7695599999999998  1.0000
  C   C25       1.0  0.12595000000000006  0.37938  0.7905599999999999  1.0000
  C   C26       1.0  0.8920199999999997  0.36015000000000014  0.7665599999999998  1.0000
  C   C27       1.0  0.76723  0.4179300000000001  0.72304  1.0000
  C   C28       1.0  0.26494  0.31439  0.83314  1.0000
  C   C29       1.0  0.49417000000000005  0.33343000000000006  0.8587299999999998  1.0000
  C   C30       1.0  0.64855  0.26738  0.89498  1.0000
  C   C31       1.0  0.5653300000000001  0.18078  0.90808  1.0000
  C   C32       1.0  0.33502999999999994  0.16140000000000002  0.88346  1.0000
  C   C33       1.0  0.18295000000000008  0.22705  0.84724  1.0000
  C   C34       1.0  0.7183099999999999  0.10844000000000001  0.94628  1.0000
  C   C35       1.0  0.24621  0.71757  0.5641999999999999  1.0000
  C   C36       1.0  0.05716000000000001  0.7989499999999999  0.55833  1.0000
  C   C37       1.0  0.14487  0.8743  0.52371  1.0000
  C   C38       1.0  0.4112499999999999  0.8621000000000001  0.4947299999999999  1.0000
  C   C39       1.0  0.59052  0.77821  0.50278  1.0000
  C   C40       1.0  0.9438000000000007  0.96106  0.51855  1.0000
  C   C41       1.0  0.99448  0.047459999999999995  0.14682  1.0000
  C   C42       1.0  0.9040900000000003  0.99306  0.19896999999999995  1.0000
  C   C43       1.0  0.62851  0.014440000000000014  0.22325999999999996  1.0000
  C   C44       1.0  0.52776  0.9600700000000001  0.26888999999999996  1.0000
  C   C45       1.0  0.70296  0.87913  0.29028  1.0000
  C   C46       1.0  0.98278  0.86033  0.26605  1.0000
  C   C47       1.0  0.09122000000000001  0.91754  0.22193999999999997  1.0000
  C   C48       1.0  0.5886699999999999  0.81406  0.33331  1.0000
  C   C49       1.0  0.3121  0.83223  0.35920999999999986  1.0000
  C   C50       1.0  0.19030000000000005  0.76573  0.39559  1.0000
  C   C51       1.0  0.35179999999999995  0.67936  0.40848  1.0000
  C   C52       1.0  0.6289600000000001  0.66084  0.38351999999999997  1.0000
  C   C53       1.0  0.74926  0.72708  0.3473499999999999  1.0000
  C   C54       1.0  0.2340000000000001  0.60597  0.44606  1.0000
  C   C55       1.0  0.46929  0.21757  0.06336999999999998  1.0000
  C   C56       1.0  0.58045  0.2987  0.05801  1.0000
  C   C57       1.0  0.45303  0.37473  0.02368  1.0000
  C   C58       1.0  0.23114000000000004  0.3633  0.9944099999999998  1.0000
  C   C59       1.0  0.13034  0.27947  0.00186  1.0000
  C   C60       1.0  0.5724099999999999  0.46078  0.01899  1.0000
  C   C61       1.0  0.19440000000000002  0.45055999999999996  0.35128999999999994  1.0000
  C   C62       1.0  0.10302000000000004  0.50572  0.29947999999999997  1.0000
  C   C63       1.0  0.8758900000000002  0.48400999999999994  0.27547  1.0000
  C   C64       1.0  0.76376  0.53894  0.23044  1.0000
  C   C65       1.0  0.8740600000000001  0.62061  0.20944  1.0000
  C   C66       1.0  0.10799000000000004  0.63985  0.23344  1.0000
  C   C67       1.0  0.23278000000000004  0.58207  0.27695999999999993  1.0000
  C   C68       1.0  0.7350599999999999  0.6856  0.16686  1.0000
  C   C69       1.0  0.50583  0.66657  0.14127  1.0000
  C   C70       1.0  0.35145  0.73262  0.10502  1.0000
  C   C71       1.0  0.43467000000000006  0.81921  0.09192  1.0000
  C   C72       1.0  0.6649700000000001  0.8385999999999999  0.11653999999999999  1.0000
  C   C73       1.0  0.81704  0.77295  0.15276  1.0000
  C   C74       1.0  0.28168999999999994  0.89155  0.05371999999999998  1.0000
  C   C75       1.0  0.7537799999999999  0.28242  0.4358  1.0000
  C   C76       1.0  0.9428300000000002  0.20104000000000002  0.4416699999999999  1.0000
  C   C77       1.0  0.8551200000000001  0.12569  0.47628999999999994  1.0000
  C   C78       1.0  0.5887400000000002  0.13788999999999998  0.50527  1.0000
  C   C79       1.0  0.40946999999999995  0.22178  0.49723  1.0000
  C   C80       1.0  0.05619000000000002  0.038939999999999995  0.48145  1.0000
  N   N1        1.0  0.7508999999999999  0.79214  0.96437  1.0000
  N   N2        1.0  0.5073500000000001  0.7072  0.53676  1.0000
  N   N3        1.0  0.24910000000000002  0.20785  0.03564  1.0000
  N   N4        1.0  0.49264999999999987  0.2927900000000001  0.4632399999999999  1.0000
  O   O1        1.0  0.14555000000000023  0.9600599999999999  0.8938299999999999  1.0000
  O   O2        1.0  0.8098100000000001  0.90494  0.85664  1.0000
  O   O3        1.0  0.61292  0.4719500000000001  0.5501199999999999  1.0000
  O   O4        1.0  0.011179999999999982  0.37433999999999995  0.52788  1.0000
  O   O5        1.0  0.9971600000000004  0.54075  0.6080199999999999  1.0000
  O   O6        1.0  0.5661899999999997  0.5984500000000003  0.6456899999999998  1.0000
  O   O7        1.0  0.6401999999999999  0.03069000000000008  0.9520799999999998  1.0000
  O   O8        1.0  0.9149999999999999  0.12976000000000007  0.9715099999999998  1.0000
  O   O9        1.0  0.85445  0.03993000000000001  0.10617  1.0000
  O   O10       1.0  0.19018  0.09506  0.14337  1.0000
  O   O11       1.0  0.38709999999999994  0.52805  0.44987999999999995  1.0000
  O   O12       1.0  0.98881  0.6256600000000001  0.47210999999999986  1.0000
  O   O13       1.0  0.002859999999999988  0.45924000000000004  0.39198  1.0000
  O   O14       1.0  0.4338100000000001  0.40155  0.35431  1.0000
  O   O15       1.0  0.35980000000000006  0.9693  0.04791999999999999  1.0000
  O   O16       1.0  0.08499999999999999  0.87024  0.028499999999999994  1.0000
