data_image0
_chemical_formula_structural       Ce8H36C84N12O48
_chemical_formula_sum              "Ce8 H36 C84 N12 O48"
_cell_length_a       8.17505
_cell_length_b       16.07776
_cell_length_c       30.0258
_cell_angle_alpha    90.0
_cell_angle_beta     90.0
_cell_angle_gamma    90.0086

_symmetry_space_group_name_H-M    'P 1'
_symmetry_Int_Tables_number       1

loop_
  _symmetry_equiv_pos_as_xyz
  'x,y,z'

loop_
  _atom_site_type_symbol
  _atom_site_label
  _atom_site_symmetry_multiplicity
  _atom_site_fract_x
  _atom_site_fract_y
  _atom_site_fract_z
  _atom_site_occupancy
  Ce  Ce1       1.0  0.569  0.2865  0.08815  1.0000
  Ce  Ce2       1.0  0.93235  0.78734  0.91186  1.0000
  Ce  Ce3       1.0  0.431  0.71349  0.58815  1.0000
  Ce  Ce4       1.0  0.06765  0.21266  0.41186  1.0000
  Ce  Ce5       1.0  0.43252  0.71279  0.91175  1.0000
  Ce  Ce6       1.0  0.06782  0.21262  0.08817  1.0000
  Ce  Ce7       1.0  0.56748  0.28721  0.41175  1.0000
  Ce  Ce8       1.0  0.93218  0.78738  0.58816  1.0000
  H   H1        1.0  0.01351  0.56365  0.88758  1.0000
  H   H2        1.0  0.14492  0.35273  0.95802  1.0000
  H   H3        1.0  0.20098  0.06909  0.18114  1.0000
  H   H4        1.0  0.68379  0.46952  0.98818  1.0000
  H   H5        1.0  0.48811  0.06325  0.11259  1.0000
  H   H6        1.0  0.35547  0.85284  0.04173  1.0000
  H   H7        1.0  0.29819  0.57061  0.8188899999999999  1.0000
  H   H8        1.0  0.81772  0.96919  0.01216  1.0000
  H   H9        1.0  0.9864900000000001  0.43635  0.38758  1.0000
  H   H10       1.0  0.85508  0.6472700000000002  0.45802  1.0000
  H   H11       1.0  0.79901  0.93091  0.68114  1.0000
  H   H12       1.0  0.31621  0.53048  0.48818  1.0000
  H   H13       1.0  0.51189  0.93675  0.61259  1.0000
  H   H14       1.0  0.64452  0.14716  0.54173  1.0000
  H   H15       1.0  0.70181  0.42939  0.31889  1.0000
  H   H16       1.0  0.18227  0.03081  0.51216  1.0000
  H   H17       1.0  0.98899  0.43583  0.11242  1.0000
  H   H18       1.0  0.85662  0.64672  0.042010000000000006  1.0000
  H   H19       1.0  0.79892  0.93078  0.81894  1.0000
  H   H20       1.0  0.31771  0.52996  0.01174  1.0000
  H   H21       1.0  0.5126  0.9366000000000002  0.88743  1.0000
  H   H22       1.0  0.6444  0.14725  0.95811  1.0000
  H   H23       1.0  0.70207  0.42942  0.1811  1.0000
  H   H24       1.0  0.18311  0.030490000000000007  0.98807  1.0000
  H   H25       1.0  0.01101  0.56417  0.61242  1.0000
  H   H26       1.0  0.14338  0.35328  0.54201  1.0000
  H   H27       1.0  0.20108000000000006  0.06921  0.31894  1.0000
  H   H28       1.0  0.68228  0.4700300000000001  0.51174  1.0000
  H   H29       1.0  0.4874  0.06339  0.38743999999999995  1.0000
  H   H30       1.0  0.3556  0.85275  0.45811  1.0000
  H   H31       1.0  0.29793  0.57058  0.6811  1.0000
  H   H32       1.0  0.81688  0.96951  0.48807  1.0000
  H   H33       1.0  0.45515  0.26593  0.24996  1.0000
  H   H34       1.0  0.04517  0.76776  0.74998  1.0000
  H   H35       1.0  0.54484  0.7340700000000002  0.74996  1.0000
  H   H36       1.0  0.95483  0.23224  0.24999  1.0000
  C   C1        1.0  0.38251  0.21042000000000002  0.16682  1.0000
  C   C2        1.0  0.8329  0.52555  0.93629  1.0000
  C   C3        1.0  0.9811000000000001  0.51823  0.91302  1.0000
  C   C4        1.0  0.88104  0.34391  0.01475  1.0000
  C   C5        1.0  0.71426  0.5933800000000002  0.92692  1.0000
  C   C6        1.0  0.05477  0.40148  0.9520900000000001  1.0000
  C   C7        1.0  0.33254  0.17282  0.20998  1.0000
  C   C8        1.0  0.91095  0.40395  0.97772  1.0000
  C   C9        1.0  0.23861  0.09973000000000003  0.21188000000000004  1.0000
  C   C10       1.0  0.7966800000000003  0.46638  0.96903  1.0000
  C   C11       1.0  0.11648  0.7121  0.8331  1.0000
  C   C12       1.0  0.66842  0.02491  0.06396  1.0000
  C   C13       1.0  0.52012  0.017770000000000008  0.08717  1.0000
  C   C14       1.0  0.6195  0.84385  0.98525  1.0000
  C   C15       1.0  0.78685  0.09283  0.07318  1.0000
  C   C16       1.0  0.44591  0.9014  0.0479  1.0000
  C   C17       1.0  0.16742  0.67461  0.79001  1.0000
  C   C18       1.0  0.58991  0.9037  0.02236  1.0000
  C   C19       1.0  0.26099  0.60139  0.78815  1.0000
  C   C20       1.0  0.70462  0.9659  0.03119  1.0000
  C   C21       1.0  0.61749  0.7895800000000002  0.66681  1.0000
  C   C22       1.0  0.1671  0.47445  0.43629  1.0000
  C   C23       1.0  0.0189  0.48177  0.41302  1.0000
  C   C24       1.0  0.11896  0.65609  0.51475  1.0000
  C   C25       1.0  0.28574  0.40662  0.42693  1.0000
  C   C26       1.0  0.94523  0.59852  0.45209  1.0000
  C   C27       1.0  0.66746  0.82718  0.70998  1.0000
  C   C28       1.0  0.08905  0.59605  0.47772  1.0000
  C   C29       1.0  0.7613900000000002  0.9002700000000002  0.71188  1.0000
  C   C30       1.0  0.20332  0.53362  0.46903  1.0000
  C   C31       1.0  0.88352  0.2879  0.3331  1.0000
  C   C32       1.0  0.33157  0.97509  0.56395  1.0000
  C   C33       1.0  0.47988  0.9822300000000003  0.58717  1.0000
  C   C34       1.0  0.3805  0.15615  0.48525  1.0000
  C   C35       1.0  0.21315  0.90717  0.57318  1.0000
  C   C36       1.0  0.55409  0.0986  0.54789  1.0000
  C   C37       1.0  0.83258  0.32539  0.29001  1.0000
  C   C38       1.0  0.41009  0.09630000000000002  0.52236  1.0000
  C   C39       1.0  0.73901  0.39861  0.28815  1.0000
  C   C40       1.0  0.29537  0.0341  0.53119  1.0000
  C   C41       1.0  0.61748  0.7893400000000003  0.83315  1.0000
  C   C42       1.0  0.16868  0.47401  0.06351  1.0000
  C   C43       1.0  0.02088  0.4813300000000001  0.08698  1.0000
  C   C44       1.0  0.11971  0.656  0.98526  1.0000
  C   C45       1.0  0.28641  0.40546  0.07223999999999998  1.0000
  C   C46       1.0  0.94687  0.59807  0.04801  1.0000
  C   C47       1.0  0.66746  0.82711  0.79004  1.0000
  C   C48       1.0  0.09054  0.5958500000000002  0.02233  1.0000
  C   C49       1.0  0.76135  0.9002200000000002  0.78818  1.0000
  C   C50       1.0  0.20484  0.53335  0.03088  1.0000
  C   C51       1.0  0.88373  0.2879  0.16691  1.0000
  C   C52       1.0  0.33232  0.9747200000000003  0.93618  1.0000
  C   C53       1.0  0.48052  0.982  0.91289  1.0000
  C   C54       1.0  0.38062  0.15603  0.01474  1.0000
  C   C55       1.0  0.21378  0.9068200000000002  0.92686  1.0000
  C   C56       1.0  0.55427  0.09856  0.95203  1.0000
  C   C57       1.0  0.8326500000000001  0.32539  0.20996  1.0000
  C   C58       1.0  0.41045  0.09609  0.97767  1.0000
  C   C59       1.0  0.73914  0.39863  0.21183  1.0000
  C   C60       1.0  0.29607  0.03373000000000002  0.96896  1.0000
  C   C61       1.0  0.38252  0.21066  0.33315  1.0000
  C   C62       1.0  0.83132  0.52599  0.56351  1.0000
  C   C63       1.0  0.97912  0.51867  0.58698  1.0000
  C   C64       1.0  0.88029  0.344  0.48527  1.0000
  C   C65       1.0  0.7135900000000001  0.59453  0.57224  1.0000
  C   C66       1.0  0.05313  0.40193  0.54801  1.0000
  C   C67       1.0  0.33254  0.17289  0.29004  1.0000
  C   C68       1.0  0.90946  0.40415  0.52232  1.0000
  C   C69       1.0  0.23865  0.09977  0.28818  1.0000
  C   C70       1.0  0.79516  0.46665  0.53087  1.0000
  C   C71       1.0  0.11626  0.7121  0.66691  1.0000
  C   C72       1.0  0.66768  0.025280000000000007  0.43618  1.0000
  C   C73       1.0  0.51948  0.018000000000000006  0.41289  1.0000
  C   C74       1.0  0.61938  0.84397  0.51474  1.0000
  C   C75       1.0  0.78622  0.09318  0.42686  1.0000
  C   C76       1.0  0.44573  0.90144  0.45204  1.0000
  C   C77       1.0  0.16735  0.67461  0.70996  1.0000
  C   C78       1.0  0.58955  0.90391  0.47767  1.0000
  C   C79       1.0  0.26086  0.60137  0.71183  1.0000
  C   C80       1.0  0.70393  0.9662700000000002  0.46896  1.0000
  C   C81       1.0  0.38131  0.20962  0.25  1.0000
  C   C82       1.0  0.11886000000000002  0.7114  0.74999  1.0000
  C   C83       1.0  0.61869  0.79038  0.75  1.0000
  C   C84       1.0  0.8811400000000003  0.28859  0.24999  1.0000
  N   N1        1.0  0.08998  0.45696  0.9200299999999999  1.0000
  N   N2        1.0  0.41078  0.9567200000000002  0.08002  1.0000
  N   N3        1.0  0.91002  0.54303  0.42003  1.0000
  N   N4        1.0  0.58922  0.04328000000000001  0.58002  1.0000
  N   N5        1.0  0.9118500000000003  0.54259  0.0801  1.0000
  N   N6        1.0  0.58959  0.04323  0.91991  1.0000
  N   N7        1.0  0.08815  0.45741  0.5801  1.0000
  N   N8        1.0  0.41041  0.9567700000000002  0.41992  1.0000
  N   N9        1.0  0.19229000000000002  0.06303  0.25003  1.0000
  N   N10       1.0  0.30711  0.56467  0.74999  1.0000
  N   N11       1.0  0.80771  0.9369700000000002  0.75003  1.0000
  N   N12       1.0  0.69289  0.43533  0.24999  1.0000
  O   O1        1.0  0.3259  0.18034  0.1299  1.0000
  O   O2        1.0  0.56507  0.58297  0.93723  1.0000
  O   O3        1.0  0.74628  0.34981  0.03561  1.0000
  O   O4        1.0  0.48455  0.2703  0.16709  1.0000
  O   O5        1.0  0.76175  0.66198  0.90826  1.0000
  O   O6        1.0  0.99243  0.29103  0.02417  1.0000
  O   O7        1.0  0.17432  0.68316  0.87011  1.0000
  O   O8        1.0  0.93582  0.08271  0.0627  1.0000
  O   O9        1.0  0.75424  0.8497500000000002  0.96441  1.0000
  O   O10       1.0  0.01193  0.77076  0.83277  1.0000
  O   O11       1.0  0.7390200000000002  0.16141  0.09184  1.0000
  O   O12       1.0  0.50784  0.79113  0.97576  1.0000
  O   O13       1.0  0.6741  0.81966  0.6299  1.0000
  O   O14       1.0  0.43493  0.41703  0.43723  1.0000
  O   O15       1.0  0.25371  0.65019  0.53561  1.0000
  O   O16       1.0  0.51545  0.7297  0.66709  1.0000
  O   O17       1.0  0.23825  0.33801  0.40826  1.0000
  O   O18       1.0  0.00756  0.70897  0.52417  1.0000
  O   O19       1.0  0.82568  0.31684  0.37011  1.0000
  O   O20       1.0  0.06417  0.91729  0.5627  1.0000
  O   O21       1.0  0.24576000000000003  0.15025  0.46441  1.0000
  O   O22       1.0  0.9880699999999999  0.22924  0.33277  1.0000
  O   O23       1.0  0.26098  0.8385900000000002  0.59184  1.0000
  O   O24       1.0  0.49216  0.20886  0.47576  1.0000
  O   O25       1.0  0.67421  0.81901  0.87014  1.0000
  O   O26       1.0  0.43454  0.4144000000000001  0.06053  1.0000
  O   O27       1.0  0.25437  0.6502200000000002  0.96435  1.0000
  O   O28       1.0  0.51522  0.72958  0.8328  1.0000
  O   O29       1.0  0.23872  0.3377900000000001  0.09182  1.0000
  O   O30       1.0  0.00791  0.7086700000000002  0.97587  1.0000
  O   O31       1.0  0.82593  0.3168700000000001  0.12989  1.0000
  O   O32       1.0  0.06457  0.91714  0.93716  1.0000
  O   O33       1.0  0.24579000000000004  0.15021000000000007  0.03557  1.0000
  O   O34       1.0  0.98828  0.22924  0.16725  1.0000
  O   O35       1.0  0.26154  0.83819  0.90829  1.0000
  O   O36       1.0  0.49228999999999995  0.20873  0.02419  1.0000
  O   O37       1.0  0.32579  0.18099000000000007  0.37014  1.0000
  O   O38       1.0  0.56545  0.5855900000000003  0.56053  1.0000
  O   O39       1.0  0.74563  0.34977  0.46435  1.0000
  O   O40       1.0  0.48478  0.27042  0.33281  1.0000
  O   O41       1.0  0.76127  0.6622  0.59182  1.0000
  O   O42       1.0  0.9920899999999999  0.29133  0.47587  1.0000
  O   O43       1.0  0.17406  0.6831300000000002  0.62988  1.0000
  O   O44       1.0  0.93542  0.08286  0.43716  1.0000
  O   O45       1.0  0.75421  0.8497900000000003  0.53557  1.0000
  O   O46       1.0  0.01172  0.77076  0.66725  1.0000
  O   O47       1.0  0.7384600000000001  0.16181  0.40829  1.0000
  O   O48       1.0  0.5077100000000002  0.79127  0.52419  1.0000
