data_image0
_chemical_formula_structural       Eu8H48C96O48
_chemical_formula_sum              "Eu8 H48 C96 O48"
_cell_length_a       7.89264
_cell_length_b       16.28872
_cell_length_c       29.60447
_cell_angle_alpha    89.96744
_cell_angle_beta     90.1059
_cell_angle_gamma    90.06165

_space_group_name_H-M_alt    "P 1"
_space_group_IT_number       1

loop_
  _space_group_symop_operation_xyz
  'x, y, z'

loop_
  _atom_site_type_symbol
  _atom_site_label
  _atom_site_symmetry_multiplicity
  _atom_site_fract_x
  _atom_site_fract_y
  _atom_site_fract_z
  _atom_site_occupancy
  Eu  Eu1       1.0  0.4408899999999999  0.71415  0.58574  1.0000
  Eu  Eu2       1.0  0.06222999999999999  0.21833  0.41281999999999996  1.0000
  Eu  Eu3       1.0  0.56151  0.2857900000000001  0.0868  1.0000
  Eu  Eu4       1.0  0.93864  0.7854800000000002  0.91228  1.0000
  Eu  Eu5       1.0  0.55885  0.28592  0.41414  1.0000
  Eu  Eu6       1.0  0.9382899999999997  0.7819  0.58716  1.0000
  Eu  Eu7       1.0  0.43851  0.71867  0.91289  1.0000
  Eu  Eu8       1.0  0.06283  0.21856  0.08715  1.0000
  H   H1        1.0  0.32904  0.53872  0.4768199999999999  1.0000
  H   H2        1.0  0.9708099999999997  0.43201  0.38361  1.0000
  H   H3        1.0  0.7606  0.5390900000000002  0.40383  1.0000
  H   H4        1.0  0.83406  0.64502  0.46198  1.0000
  H   H5        1.0  0.8161999999999998  0.92555  0.67702  1.0000
  H   H6        1.0  0.16853  0.03385000000000001  0.52313  1.0000
  H   H7        1.0  0.5378999999999998  0.9337800000000003  0.6156  1.0000
  H   H8        1.0  0.73749  0.04569  0.5953999999999998  1.0000
  H   H9        1.0  0.6536799999999998  0.15041000000000004  0.5375  1.0000
  H   H10       1.0  0.6862099999999998  0.42474  0.32309  1.0000
  H   H11       1.0  0.6703299999999998  0.46433000000000013  0.9774099999999998  1.0000
  H   H12       1.0  0.02731  0.56918  0.8833099999999998  1.0000
  H   H13       1.0  0.23474999999999993  0.46036  0.90274  1.0000
  H   H14       1.0  0.16077  0.35466  0.9610099999999998  1.0000
  H   H15       1.0  0.1847  0.07520000000000003  0.17702999999999994  1.0000
  H   H16       1.0  0.8308499999999998  0.96632  0.022109999999999994  1.0000
  H   H17       1.0  0.4721199999999999  0.06738  0.11674  1.0000
  H   H18       1.0  0.26644999999999996  0.9582  0.0965  1.0000
  H   H19       1.0  0.3423199999999999  0.8536200000000003  0.03797  1.0000
  H   H20       1.0  0.31598  0.57362  0.8224799999999998  1.0000
  H   H21       1.0  0.67046  0.4609200000000001  0.52349  1.0000
  H   H22       1.0  0.02897999999999999  0.5677  0.61663  1.0000
  H   H23       1.0  0.23946999999999993  0.46105  0.5960699999999998  1.0000
  H   H24       1.0  0.16645999999999994  0.35552000000000006  0.5377499999999997  1.0000
  H   H25       1.0  0.18262999999999993  0.07533  0.3227599999999999  1.0000
  H   H26       1.0  0.8309399999999998  0.96655  0.4774899999999999  1.0000
  H   H27       1.0  0.46244  0.06608  0.3845499999999999  1.0000
  H   H28       1.0  0.26343  0.9540100000000002  0.40459999999999996  1.0000
  H   H29       1.0  0.3470299999999999  0.84909  0.4624  1.0000
  H   H30       1.0  0.31599  0.5758900000000002  0.6766599999999998  1.0000
  H   H31       1.0  0.33306  0.53693  0.022129999999999993  1.0000
  H   H32       1.0  0.9712199999999998  0.4334500000000001  0.11511999999999997  1.0000
  H   H33       1.0  0.7643  0.54191  0.0942  1.0000
  H   H34       1.0  0.8414  0.64696  0.03594  1.0000
  H   H35       1.0  0.8133999999999998  0.92526  0.82273  1.0000
  H   H36       1.0  0.16606  0.036380000000000016  0.9773699999999997  1.0000
  H   H37       1.0  0.5300999999999998  0.93417  0.88466  1.0000
  H   H38       1.0  0.736  0.042860000000000016  0.9059599999999998  1.0000
  H   H39       1.0  0.6571699999999998  0.14766  0.9641199999999998  1.0000
  H   H40       1.0  0.68794  0.4263900000000001  0.17729999999999996  1.0000
  H   H41       1.0  0.9055799999999998  0.9882100000000001  0.75011  1.0000
  H   H42       1.0  0.5358799999999998  0.74068  0.7492599999999998  1.0000
  H   H43       1.0  0.59722  0.4886900000000001  0.25022  1.0000
  H   H44       1.0  0.9594999999999998  0.23908  0.25006  1.0000
  H   H45       1.0  0.09240999999999998  0.01247  0.24979999999999994  1.0000
  H   H46       1.0  0.4676  0.25812  0.25023  1.0000
  H   H47       1.0  0.40577  0.51147  0.74927  1.0000
  H   H48       1.0  0.04059  0.7601300000000002  0.75021  1.0000
  C   C1        1.0  0.12689999999999996  0.6573900000000003  0.5095  1.0000
  C   C2        1.0  0.08547999999999999  0.59813  0.4727299999999999  1.0000
  C   C3        1.0  0.20570999999999995  0.5392  0.4604699999999999  1.0000
  C   C4        1.0  0.16466999999999996  0.47937000000000013  0.4282499999999999  1.0000
  C   C5        1.0  0.0038599999999999997  0.4795  0.40784  1.0000
  C   C6        1.0  0.8854299999999998  0.5395100000000003  0.41942  1.0000
  C   C7        1.0  0.92565  0.59858  0.45193  1.0000
  C   C8        1.0  0.29102  0.4145800000000001  0.41785  1.0000
  C   C9        1.0  0.61626  0.79066  0.66538  1.0000
  C   C10       1.0  0.67066  0.82926  0.70856  1.0000
  C   C11       1.0  0.77463  0.8992200000000002  0.70893  1.0000
  C   C12       1.0  0.36120999999999986  0.15475  0.4891799999999999  1.0000
  C   C13       1.0  0.4070499999999999  0.09766000000000002  0.52668  1.0000
  C   C14       1.0  0.2919299999999999  0.03661  0.53938  1.0000
  C   C15       1.0  0.33824  0.97773  0.5717199999999998  1.0000
  C   C16       1.0  0.4996699999999999  0.98093  0.59171  1.0000
  C   C17       1.0  0.61232  0.04358  0.58  1.0000
  C   C18       1.0  0.5664799999999998  0.10194  0.5475599999999998  1.0000
  C   C19       1.0  0.21590999999999994  0.91099  0.5823599999999999  1.0000
  C   C20       1.0  0.8847099999999998  0.28871  0.33368  1.0000
  C   C21       1.0  0.82814  0.32807  0.2910099999999999  1.0000
  C   C22       1.0  0.7261899999999998  0.39857  0.2910099999999999  1.0000
  C   C23       1.0  0.8715099999999998  0.34438  0.00961  1.0000
  C   C24       1.0  0.9116299999999998  0.40346  0.9726  1.0000
  C   C25       1.0  0.79261  0.4632300000000001  0.9606099999999997  1.0000
  C   C26       1.0  0.8338299999999997  0.5229000000000003  0.92821  1.0000
  C   C27       1.0  0.9936999999999998  0.52169  0.9074599999999999  1.0000
  C   C28       1.0  0.11065999999999997  0.4607300000000001  0.9186699999999998  1.0000
  C   C29       1.0  0.07012  0.40176  0.9512299999999998  1.0000
  C   C30       1.0  0.70908  0.58866  0.9177499999999997  1.0000
  C   C31       1.0  0.3876  0.20855  0.16606  1.0000
  C   C32       1.0  0.33162  0.1704  0.20915  1.0000
  C   C33       1.0  0.22591999999999995  0.10104  0.20910999999999993  1.0000
  C   C34       1.0  0.6356  0.84487  0.9898199999999998  1.0000
  C   C35       1.0  0.5910099999999998  0.9038  0.026589999999999992  1.0000
  C   C36       1.0  0.70853  0.96419  0.038879999999999984  1.0000
  C   C37       1.0  0.66629  0.023010000000000006  0.07156  1.0000
  C   C38       1.0  0.50651  0.02057  0.09230999999999998  1.0000
  C   C39       1.0  0.3906399999999999  0.95936  0.08063  1.0000
  C   C40       1.0  0.4321599999999999  0.90111  0.047789999999999985  1.0000
  C   C41       1.0  0.7902999999999998  0.08901  0.08214999999999997  1.0000
  C   C42       1.0  0.11675999999999996  0.70938  0.8336399999999998  1.0000
  C   C43       1.0  0.17306  0.67075  0.7907599999999998  1.0000
  C   C44       1.0  0.27578  0.60041  0.7905199999999998  1.0000
  C   C45       1.0  0.87264  0.34258  0.49049  1.0000
  C   C46       1.0  0.9143299999999998  0.40192  0.52727  1.0000
  C   C47       1.0  0.7939399999999998  0.46061  0.53976  1.0000
  C   C48       1.0  0.8350899999999998  0.5204500000000002  0.57198  1.0000
  C   C49       1.0  0.9959599999999998  0.52031  0.59233  1.0000
  C   C50       1.0  0.11453  0.46056  0.58054  1.0000
  C   C51       1.0  0.07449  0.40167  0.54791  1.0000
  C   C52       1.0  0.70908  0.58544  0.58227  1.0000
  C   C53       1.0  0.3843  0.20921000000000006  0.33432999999999996  1.0000
  C   C54       1.0  0.33016  0.17068  0.29108  1.0000
  C   C55       1.0  0.22476999999999994  0.10118  0.2908  1.0000
  C   C56       1.0  0.64065  0.8449  0.51085  1.0000
  C   C57       1.0  0.5932099999999998  0.90223  0.4735899999999999  1.0000
  C   C58       1.0  0.7079599999999998  0.9635700000000003  0.46101  1.0000
  C   C59       1.0  0.66177  0.022340000000000006  0.4286099999999999  1.0000
  C   C60       1.0  0.50061  0.01896  0.4084799999999999  1.0000
  C   C61       1.0  0.38829  0.9561900000000002  0.4201399999999999  1.0000
  C   C62       1.0  0.43406  0.8977800000000002  0.45256999999999986  1.0000
  C   C63       1.0  0.78392  0.08905  0.4178099999999999  1.0000
  C   C64       1.0  0.11738999999999997  0.7116800000000002  0.66631  1.0000
  C   C65       1.0  0.17297999999999994  0.67185  0.70891  1.0000
  C   C66       1.0  0.27571  0.60158  0.7087899999999998  1.0000
  C   C67       1.0  0.1361  0.6563  0.9883199999999998  1.0000
  C   C68       1.0  0.09146  0.5980200000000002  0.02543  1.0000
  C   C69       1.0  0.20956999999999998  0.5384000000000002  0.03823999999999999  1.0000
  C   C70       1.0  0.16676  0.47933000000000003  0.07072  1.0000
  C   C71       1.0  0.0057  0.4806  0.09080999999999997  1.0000
  C   C72       1.0  0.88932  0.5413500000000002  0.07879  1.0000
  C   C73       1.0  0.9315899999999998  0.59991  0.04611999999999999  1.0000
  C   C74       1.0  0.29182999999999987  0.4143500000000001  0.08190999999999998  1.0000
  C   C75       1.0  0.61322  0.78903  0.8331199999999997  1.0000
  C   C76       1.0  0.66925  0.82886  0.7904999999999998  1.0000
  C   C77       1.0  0.773  0.8989500000000002  0.7906699999999998  1.0000
  C   C78       1.0  0.3619799999999999  0.15474000000000004  0.011799999999999998  1.0000
  C   C79       1.0  0.40738999999999986  0.09763  0.97434  1.0000
  C   C80       1.0  0.28951  0.03807  0.9611699999999997  1.0000
  C   C81       1.0  0.33309  0.97946  0.9285799999999997  1.0000
  C   C82       1.0  0.4950299999999999  0.98107  0.9089799999999998  1.0000
  C   C83       1.0  0.6107399999999997  0.04203  0.9212099999999999  1.0000
  C   C84       1.0  0.56751  0.10037  0.95383  1.0000
  C   C85       1.0  0.20840999999999996  0.9143900000000003  0.91681  1.0000
  C   C86       1.0  0.88635  0.28931  0.16649  1.0000
  C   C87       1.0  0.8295299999999998  0.32883  0.20909999999999995  1.0000
  C   C88       1.0  0.7276099999999998  0.39943  0.20924999999999994  1.0000
  C   C89       1.0  0.8249799999999998  0.93407  0.74993  1.0000
  C   C90       1.0  0.6172199999999998  0.7945600000000003  0.7493899999999998  1.0000
  C   C91       1.0  0.67633  0.4341300000000001  0.25015  1.0000
  C   C92       1.0  0.87993  0.2935300000000001  0.25006  1.0000
  C   C93       1.0  0.17383  0.06628000000000003  0.2499  1.0000
  C   C94       1.0  0.3848899999999999  0.20469  0.25016  1.0000
  C   C95       1.0  0.3263299999999999  0.56592  0.7495399999999998  1.0000
  C   C96       1.0  0.12102999999999997  0.70596  0.74993  1.0000
  O   O1        1.0  0.2682  0.65006  0.52946  1.0000
  O   O2        1.0  0.018239999999999992  0.71238  0.52011  1.0000
  O   O3        1.0  0.24153999999999995  0.34156  0.40687  1.0000
  O   O4        1.0  0.6753899999999998  0.81702  0.62735  1.0000
  O   O5        1.0  0.4487799999999999  0.42947  0.4205999999999999  1.0000
  O   O6        1.0  0.50764  0.73309  0.66611  1.0000
  O   O7        1.0  0.22365999999999994  0.14169  0.4681399999999999  1.0000
  O   O8        1.0  0.46317  0.21318000000000006  0.47925  1.0000
  O   O9        1.0  0.26783  0.83756  0.5909  1.0000
  O   O10       1.0  0.83331  0.3165300000000001  0.3723999999999999  1.0000
  O   O11       1.0  0.05789999999999999  0.9252500000000002  0.58179  1.0000
  O   O12       1.0  0.9883999999999997  0.22939  0.33197  1.0000
  O   O13       1.0  0.7297299999999998  0.35029  0.029379999999999993  1.0000
  O   O14       1.0  0.9827199999999998  0.29072  0.02048  1.0000
  O   O15       1.0  0.75988  0.66234  0.9089699999999998  1.0000
  O   O16       1.0  0.3264299999999999  0.18344  0.12794  1.0000
  O   O17       1.0  0.55129  0.57366  0.91834  1.0000
  O   O18       1.0  0.49988  0.2645  0.16714999999999994  1.0000
  O   O19       1.0  0.7762999999999998  0.8541800000000003  0.9701099999999998  1.0000
  O   O20       1.0  0.5307199999999997  0.7879  0.9794799999999998  1.0000
  O   O21       1.0  0.7393899999999998  0.16253  0.09094  1.0000
  O   O22       1.0  0.17394999999999994  0.68345  0.87203  1.0000
  O   O23       1.0  0.94816  0.07434  0.0815  1.0000
  O   O24       1.0  0.0076799999999999985  0.76662  0.8319799999999998  1.0000
  O   O25       1.0  0.7313199999999997  0.35009  0.4705399999999999  1.0000
  O   O26       1.0  0.98077  0.28751  0.4799599999999999  1.0000
  O   O27       1.0  0.75856  0.65847  0.59321  1.0000
  O   O28       1.0  0.32476  0.18306000000000006  0.37238  1.0000
  O   O29       1.0  0.55128  0.57064  0.57935  1.0000
  O   O30       1.0  0.49333  0.26663  0.33367  1.0000
  O   O31       1.0  0.7777299999999998  0.85888  0.53194  1.0000
  O   O32       1.0  0.54182  0.78493  0.5206  1.0000
  O   O33       1.0  0.7320199999999998  0.16239  0.40899999999999986  1.0000
  O   O34       1.0  0.16735999999999995  0.68363  0.6275  1.0000
  O   O35       1.0  0.9419299999999998  0.07484  0.4183399999999999  1.0000
  O   O36       1.0  0.015809999999999994  0.7717600000000002  0.66812  1.0000
  O   O37       1.0  0.2762099999999999  0.64556  0.96822  1.0000
  O   O38       1.0  0.032539999999999986  0.71319  0.9776899999999997  1.0000
  O   O39       1.0  0.24164999999999995  0.34169  0.09326  1.0000
  O   O40       1.0  0.6666899999999998  0.81666  0.8717999999999998  1.0000
  O   O41       1.0  0.44972  0.42909000000000014  0.07952  1.0000
  O   O42       1.0  0.5097399999999997  0.72958  0.8317399999999998  1.0000
  O   O43       1.0  0.22295999999999994  0.14200000000000004  0.03205  1.0000
  O   O44       1.0  0.4644399999999999  0.21255  0.022459999999999994  1.0000
  O   O45       1.0  0.25906  0.8412  0.9068399999999998  1.0000
  O   O46       1.0  0.8338299999999997  0.31667  0.12768  1.0000
  O   O47       1.0  0.05081  0.9293900000000003  0.91763  1.0000
  O   O48       1.0  0.99027  0.23009  0.16825  1.0000
