data_image0
_chemical_formula_structural       Tb4H72C102O24
_chemical_formula_sum              "Tb4 H72 C102 O24"
_cell_length_a       12.70244
_cell_length_b       13.477490000000001
_cell_length_c       24.93257
_cell_angle_alpha    86.50992
_cell_angle_beta     89.62812000000001
_cell_angle_gamma    72.50001999999999

_space_group_name_H-M_alt    "P 1"
_space_group_IT_number       1

loop_
  _space_group_symop_operation_xyz
  'x, y, z'

loop_
  _atom_site_type_symbol
  _atom_site_label
  _atom_site_symmetry_multiplicity
  _atom_site_fract_x
  _atom_site_fract_y
  _atom_site_fract_z
  _atom_site_occupancy
  Tb  Tb1       1.0  0.60036  0.29755  0.5169199999999999  1.0000
  Tb  Tb2       1.0  0.86081  0.6439099999999999  0.040719999999999985  1.0000
  Tb  Tb3       1.0  0.42592000000000013  0.70015  0.4796499999999999  1.0000
  Tb  Tb4       1.0  0.13991000000000006  0.3520599999999999  0.95768  1.0000
  H   H1        1.0  0.8395600000000002  0.88824  0.17273  1.0000
  H   H2        1.0  0.70338  0.6404  0.21843999999999994  1.0000
  H   H3        1.0  0.64462  0.71701  0.30739999999999995  1.0000
  H   H4        1.0  0.7612000000000002  0.08555  0.1945  1.0000
  H   H5        1.0  0.728  0.16315  0.2509799999999999  1.0000
  H   H6        1.0  0.6334200000000002  0.10068999999999999  0.22772999999999993  1.0000
  H   H7        1.0  0.9418500000000001  0.91795  0.30612  1.0000
  H   H8        1.0  0.9064500000000001  0.056100000000000004  0.2985  1.0000
  H   H9        1.0  0.9425700000000001  0.98054  0.24126  1.0000
  H   H10       1.0  0.5842  0.83838  0.38739  1.0000
  H   H11       1.0  0.5534600000000002  0.97364  0.4544299999999999  1.0000
  H   H12       1.0  0.73299  0.14143999999999998  0.35704  1.0000
  H   H13       1.0  0.5501000000000001  0.16814000000000004  0.7032599999999999  1.0000
  H   H14       1.0  0.8616500000000002  0.055080000000000004  0.62402  1.0000
  H   H15       1.0  0.94065  0.93551  0.70456  1.0000
  H   H16       1.0  0.56392  0.9153599999999998  0.77395  1.0000
  H   H17       1.0  0.46515000000000006  0.041420000000000005  0.7717099999999999  1.0000
  H   H18       1.0  0.50038  0.96837  0.8341599999999998  1.0000
  H   H19       1.0  0.54894  0.12297  0.87212  1.0000
  H   H20       1.0  0.51445  0.19424000000000002  0.8092199999999999  1.0000
  H   H21       1.0  0.64715  0.17469  0.8388999999999998  1.0000
  H   H22       1.0  0.9922600000000004  0.8486599999999999  0.7956599999999999  1.0000
  H   H23       1.0  0.6567600000000002  0.9274099999999998  0.9117399999999998  1.0000
  H   H24       1.0  0.0008199999999999863  0.76818  0.88987  1.0000
  H   H25       1.0  0.90804  0.37663  0.8546399999999998  1.0000
  H   H26       1.0  0.69277  0.66712  0.90636  1.0000
  H   H27       1.0  0.59914  0.70632  0.8162399999999999  1.0000
  H   H28       1.0  0.94918  0.4386399999999999  0.7189199999999999  1.0000
  H   H29       1.0  0.9337000000000001  0.32282000000000005  0.69389  1.0000
  H   H30       1.0  0.98011  0.32162999999999997  0.76093  1.0000
  H   H31       1.0  0.8222200000000002  0.25109  0.7950699999999999  1.0000
  H   H32       1.0  0.77944  0.25106000000000006  0.7273599999999998  1.0000
  H   H33       1.0  0.68347  0.31787000000000004  0.77504  1.0000
  H   H34       1.0  0.53951  0.71543  0.7161699999999998  1.0000
  H   H35       1.0  0.5134500000000002  0.68879  0.6197099999999999  1.0000
  H   H36       1.0  0.7522100000000002  0.38378  0.63529  1.0000
  H   H37       1.0  0.16384  0.11027000000000003  0.8221499999999998  1.0000
  H   H38       1.0  0.3040400000000001  0.35752  0.7808399999999999  1.0000
  H   H39       1.0  0.36648  0.2826  0.69213  1.0000
  H   H40       1.0  0.24727000000000002  0.91312  0.8006499999999999  1.0000
  H   H41       1.0  0.28099  0.83605  0.7439899999999999  1.0000
  H   H42       1.0  0.3755600000000002  0.8979  0.7678999999999999  1.0000
  H   H43       1.0  0.06867  0.08175000000000002  0.68855  1.0000
  H   H44       1.0  0.10389000000000001  0.94357  0.6956399999999999  1.0000
  H   H45       1.0  0.06667000000000001  0.01843000000000003  0.7530899999999998  1.0000
  H   H46       1.0  0.4284  0.16237  0.6100799999999998  1.0000
  H   H47       1.0  0.46028  0.02819  0.54264  1.0000
  H   H48       1.0  0.27907  0.85914  0.6379599999999999  1.0000
  H   H49       1.0  0.4630800000000002  0.83031  0.29267  1.0000
  H   H50       1.0  0.15412  0.9407799999999998  0.37437  1.0000
  H   H51       1.0  0.07127  0.059199999999999996  0.29417  1.0000
  H   H52       1.0  0.4443800000000001  0.08359999999999995  0.22104  1.0000
  H   H53       1.0  0.5443400000000002  0.9581  0.22314  1.0000
  H   H54       1.0  0.50648  0.030350000000000002  0.16062999999999997  1.0000
  H   H55       1.0  0.45874000000000004  0.8745  0.12397999999999998  1.0000
  H   H56       1.0  0.49582  0.80393  0.18691  1.0000
  H   H57       1.0  0.36252000000000006  0.8216899999999999  0.15829  1.0000
  H   H58       1.0  0.01631000000000001  0.14706  0.2027  1.0000
  H   H59       1.0  0.34845  0.06877999999999997  0.08432999999999999  1.0000
  H   H60       1.0  0.00472  0.22603  0.10813  1.0000
  H   H61       1.0  0.09669000000000001  0.61871  0.14621  1.0000
  H   H62       1.0  0.3065400000000001  0.32711  0.09345  1.0000
  H   H63       1.0  0.40248000000000006  0.28625  0.18278  1.0000
  H   H64       1.0  0.06116  0.55525  0.28303  1.0000
  H   H65       1.0  0.07809000000000009  0.6706899999999999  0.3077599999999999  1.0000
  H   H66       1.0  0.027910000000000008  0.67262  0.24133  1.0000
  H   H67       1.0  0.183  0.74312  0.20435999999999996  1.0000
  H   H68       1.0  0.2313500000000001  0.74314  0.27107  1.0000
  H   H69       1.0  0.32303  0.6762899999999998  0.22187  1.0000
  H   H70       1.0  0.46834  0.27802  0.28298  1.0000
  H   H71       1.0  0.50223  0.30751  0.3779999999999999  1.0000
  H   H72       1.0  0.2652  0.61344  0.36306  1.0000
  C   C1        1.0  0.80584  0.7178200000000001  0.13832999999999998  1.0000
  C   C2        1.0  0.7738500000000001  0.76062  0.19129999999999997  1.0000
  C   C3        1.0  0.79725  0.85276  0.20277  1.0000
  C   C4        1.0  0.71945  0.7117499999999999  0.22889  1.0000
  C   C5        1.0  0.6866100000000003  0.75461  0.27811  1.0000
  C   C6        1.0  0.70739  0.8480199999999998  0.28886  1.0000
  C   C7        1.0  0.76359  0.8960699999999998  0.25124  1.0000
  C   C8        1.0  0.7767799999999999  0.9957  0.27169999999999994  1.0000
  C   C9        1.0  0.72122  0.09211000000000001  0.23385999999999996  1.0000
  C   C10       1.0  0.8995900000000002  0.9865500000000001  0.27985  1.0000
  C   C11       1.0  0.7180800000000003  0.9999899999999999  0.32521999999999995  1.0000
  C   C12       1.0  0.6777  0.9135299999999998  0.33457  1.0000
  C   C13       1.0  0.61802  0.90327  0.3809299999999999  1.0000
  C   C14       1.0  0.60003  0.97954  0.41821  1.0000
  C   C15       1.0  0.70183  0.07472000000000001  0.36263  1.0000
  C   C16       1.0  0.64256  0.06421000000000002  0.4094399999999999  1.0000
  C   C17       1.0  0.62577  0.14426  0.44919  1.0000
  C   C18       1.0  0.66472  0.18756000000000003  0.6108299999999999  1.0000
  C   C19       1.0  0.70314  0.11850999999999999  0.65972  1.0000
  C   C20       1.0  0.63509  0.11782000000000001  0.70459  1.0000
  C   C21       1.0  0.8128800000000003  0.05284000000000002  0.6597899999999998  1.0000
  C   C22       1.0  0.8567300000000002  0.9875  0.70452  1.0000
  C   C23       1.0  0.7907700000000002  0.9903399999999999  0.7497599999999998  1.0000
  C   C24       1.0  0.6796000000000002  0.05357000000000003  0.7498499999999998  1.0000
  C   C25       1.0  0.6264600000000001  0.03666000000000001  0.8035899999999999  1.0000
  C   C26       1.0  0.5332300000000002  0.9871899999999998  0.7952899999999998  1.0000
  C   C27       1.0  0.5818499999999999  0.13851000000000002  0.8326999999999998  1.0000
  C   C28       1.0  0.7237  0.95914  0.8342299999999998  1.0000
  C   C29       1.0  0.81862  0.9341099999999999  0.8018299999999999  1.0000
  C   C30       1.0  0.91959  0.86625  0.8208999999999997  1.0000
  C   C31       1.0  0.7284  0.9123099999999998  0.88576  1.0000
  C   C32       1.0  0.9246900000000002  0.82151  0.8728899999999998  1.0000
  C   C33       1.0  0.82969  0.84291  0.90484  1.0000
  C   C34       1.0  0.83841  0.7856  0.95797  1.0000
  C   C35       1.0  0.8676900000000002  0.50355  0.9366699999999999  1.0000
  C   C36       1.0  0.8054700000000001  0.52037  0.88515  1.0000
  C   C37       1.0  0.83943  0.44690000000000013  0.8457399999999998  1.0000
  C   C38       1.0  0.7170100000000003  0.61207  0.87505  1.0000
  C   C39       1.0  0.6647800000000001  0.63372  0.8248199999999999  1.0000
  C   C40       1.0  0.6991800000000002  0.56098  0.7855499999999999  1.0000
  C   C41       1.0  0.78441  0.4664  0.7965599999999999  1.0000
  C   C42       1.0  0.80326  0.39845  0.74854  1.0000
  C   C43       1.0  0.9238800000000003  0.36899000000000004  0.7294199999999997  1.0000
  C   C44       1.0  0.7697900000000002  0.2985899999999999  0.76235  1.0000
  C   C45       1.0  0.7236900000000003  0.4705899999999999  0.70715  1.0000
  C   C46       1.0  0.6630600000000002  0.56443  0.7297799999999998  1.0000
  C   C47       1.0  0.5861900000000001  0.64329  0.6988199999999999  1.0000
  C   C48       1.0  0.57178  0.6286699999999998  0.6448499999999999  1.0000
  C   C49       1.0  0.70715  0.45522  0.65372  1.0000
  C   C50       1.0  0.6316999999999999  0.53542  0.6220699999999999  1.0000
  C   C51       1.0  0.615  0.5211300000000001  0.56457  1.0000
  C   C52       1.0  0.19563000000000005  0.28028  0.8590399999999998  1.0000
  C   C53       1.0  0.23111000000000004  0.23783  0.8061099999999998  1.0000
  C   C54       1.0  0.20847999999999997  0.14595  0.79335  1.0000
  C   C55       1.0  0.28815  0.28647000000000006  0.7696999999999999  1.0000
  C   C56       1.0  0.32332  0.24435  0.72049  1.0000
  C   C57       1.0  0.30303  0.15131999999999995  0.70843  1.0000
  C   C58       1.0  0.24513000000000001  0.10303  0.74504  1.0000
  C   C59       1.0  0.23293000000000005  0.003670000000000004  0.72373  1.0000
  C   C60       1.0  0.28778  0.90681  0.7614199999999999  1.0000
  C   C61       1.0  0.11041000000000002  0.012820000000000033  0.7147199999999998  1.0000
  C   C62       1.0  0.29313  0.00017999999999998494  0.67064  1.0000
  C   C63       1.0  0.3339000000000001  0.08665999999999999  0.6622899999999999  1.0000
  C   C64       1.0  0.39446000000000003  0.09744  0.61624  1.0000
  C   C65       1.0  0.41310000000000013  0.021709999999999997  0.57858  1.0000
  C   C66       1.0  0.31035  0.92588  0.63289  1.0000
  C   C67       1.0  0.37077000000000027  0.9366899999999999  0.58655  1.0000
  C   C68       1.0  0.3901900000000001  0.85611  0.54685  1.0000
  C   C69       1.0  0.35281  0.80934  0.3859799999999999  1.0000
  C   C70       1.0  0.31149000000000004  0.87834  0.33731999999999995  1.0000
  C   C71       1.0  0.37777  0.8797899999999998  0.29186999999999996  1.0000
  C   C72       1.0  0.2014700000000001  0.9431  0.3381  1.0000
  C   C73       1.0  0.15554  0.008079999999999999  0.29354  1.0000
  C   C74       1.0  0.21980000000000005  0.006029999999999996  0.2477  1.0000
  C   C75       1.0  0.33129  0.94374  0.24684999999999996  1.0000
  C   C76       1.0  0.38251  0.96088  0.19267  1.0000
  C   C77       1.0  0.47515000000000013  0.011549999999999998  0.19988  1.0000
  C   C78       1.0  0.42729999999999996  0.8588399999999999  0.16373  1.0000
  C   C79       1.0  0.28392000000000006  0.03742  0.16257  1.0000
  C   C80       1.0  0.18992000000000006  0.06202000000000001  0.19563999999999995  1.0000
  C   C81       1.0  0.08828000000000003  0.12936  0.17697999999999994  1.0000
  C   C82       1.0  0.27762  0.08347  0.11080999999999998  1.0000
  C   C83       1.0  0.08154  0.17326  0.12473  1.0000
  C   C84       1.0  0.17561000000000004  0.15181  0.09208  1.0000
  C   C85       1.0  0.16482000000000005  0.20761999999999997  0.03849999999999999  1.0000
  C   C86       1.0  0.13306000000000004  0.49283999999999994  0.06338999999999999  1.0000
  C   C87       1.0  0.19605  0.47453  0.11500999999999997  1.0000
  C   C88       1.0  0.16443  0.54763  0.15475  1.0000
  C   C89       1.0  0.2835800000000001  0.38195  0.12488  1.0000
  C   C90       1.0  0.3372800000000001  0.35941  0.1748  1.0000
  C   C91       1.0  0.3056  0.43224  0.21423999999999996  1.0000
  C   C92       1.0  0.22104  0.52741  0.20358999999999994  1.0000
  C   C93       1.0  0.20534000000000002  0.59578  0.2514  1.0000
  C   C94       1.0  0.08589  0.62505  0.27213999999999994  1.0000
  C   C95       1.0  0.23789000000000007  0.6956  0.23627  1.0000
  C   C96       1.0  0.28709  0.52408  0.29212  1.0000
  C   C97       1.0  0.3450800000000001  0.42936  0.26948999999999995  1.0000
  C   C98       1.0  0.4234300000000001  0.35101  0.30005  1.0000
  C   C99       1.0  0.44231  0.36716000000000004  0.3533499999999999  1.0000
  C   C100      1.0  0.30792  0.54097  0.34488  1.0000
  C   C101      1.0  0.3853700000000001  0.46144  0.37604  1.0000
  C   C102      1.0  0.4080900000000001  0.47757000000000005  0.43268  1.0000
  O   O1        1.0  0.86227  0.76016  0.10644999999999998  1.0000
  O   O2        1.0  0.7763100000000002  0.63929  0.12399  1.0000
  O   O3        1.0  0.6766200000000001  0.21478  0.44237999999999994  1.0000
  O   O4        1.0  0.56171  0.14585  0.48927999999999994  1.0000
  O   O5        1.0  0.7355500000000003  0.19023  0.57401  1.0000
  O   O6        1.0  0.56279  0.24443999999999996  0.6042299999999999  1.0000
  O   O7        1.0  0.9349700000000003  0.73145  0.9762099999999999  1.0000
  O   O8        1.0  0.7512500000000001  0.78441  0.98431  1.0000
  O   O9        1.0  0.81987  0.5446800000000002  0.9787099999999997  1.0000
  O   O10       1.0  0.96954  0.44933999999999996  0.9366299999999999  1.0000
  O   O11       1.0  0.56144  0.59992  0.5340199999999999  1.0000
  O   O12       1.0  0.6546  0.43025  0.54686  1.0000
  O   O13       1.0  0.13316  0.24101000000000003  0.88864  1.0000
  O   O14       1.0  0.2285000000000001  0.35543  0.8756099999999999  1.0000
  O   O15       1.0  0.34124  0.7842  0.5528499999999998  1.0000
  O   O16       1.0  0.45591  0.85506  0.50751  1.0000
  O   O17       1.0  0.28456000000000004  0.80456  0.42352  1.0000
  O   O18       1.0  0.4558400000000001  0.75466  0.39149  1.0000
  O   O19       1.0  0.06753000000000003  0.26048  0.0209  1.0000
  O   O20       1.0  0.2504600000000001  0.2095  0.010949999999999996  1.0000
  O   O21       1.0  0.17966  0.45001  0.02143  1.0000
  O   O22       1.0  0.03217000000000006  0.55002  0.06342999999999999  1.0000
  O   O23       1.0  0.46477000000000007  0.40010000000000007  0.46311999999999987  1.0000
  O   O24       1.0  0.37060000000000004  0.5691399999999999  0.4498299999999999  1.0000
