data_image0
_chemical_formula_structural       Gd2Cu8H48C72I8N6O12
_chemical_formula_sum              "Gd2 Cu8 H48 C72 I8 N6 O12"
_cell_length_a       9.67028
_cell_length_b       16.513299999999997
_cell_length_c       21.11453
_cell_angle_alpha    104.31771000000002
_cell_angle_beta     100.48961999999999
_cell_angle_gamma    96.94578999999999

_symmetry_space_group_name_H-M    'P 1'
_symmetry_Int_Tables_number       1

loop_
  _symmetry_equiv_pos_as_xyz
  'x,y,z'

loop_
  _atom_site_type_symbol
  _atom_site_label
  _atom_site_symmetry_multiplicity
  _atom_site_fract_x
  _atom_site_fract_y
  _atom_site_fract_z
  _atom_site_occupancy
  Gd  Gd1       1.0  0.7901300000000001  0.015209999999999994  0.49786  1.0000
  Gd  Gd2       1.0  0.20988  0.9848  0.50214  1.0000
  Cu  Cu1       1.0  0.45911  0.32151  0.09750000000000003  1.0000
  Cu  Cu2       1.0  0.50625  0.44096  0.040110000000000014  1.0000
  Cu  Cu3       1.0  0.3234  0.44468000000000013  0.11697  1.0000
  Cu  Cu4       1.0  0.25783  0.33028  0.0023200000000000004  1.0000
  Cu  Cu5       1.0  0.54091  0.6785000000000001  0.9025000000000002  1.0000
  Cu  Cu6       1.0  0.49376000000000014  0.5590400000000001  0.9598900000000002  1.0000
  Cu  Cu7       1.0  0.67662  0.55533  0.88303  1.0000
  Cu  Cu8       1.0  0.74219  0.66973  0.99768  1.0000
  H   H1        1.0  0.44145  0.18966000000000002  0.17428000000000005  1.0000
  H   H2        1.0  0.6143  0.11863000000000001  0.23413000000000006  1.0000
  H   H3        1.0  0.9471500000000002  0.25427  0.1686  1.0000
  H   H4        1.0  0.75923  0.31625  0.10929000000000001  1.0000
  H   H5        1.0  0.79871  0.14258  0.32484  1.0000
  H   H6        1.0  0.19814  0.05282000000000002  0.34665000000000007  1.0000
  H   H7        1.0  0.22794  0.07751  0.23735  1.0000
  H   H8        1.0  0.04351000000000001  0.13522  0.17233000000000004  1.0000
  H   H9        1.0  0.6162499999999997  0.38546  0.77738  1.0000
  H   H10       1.0  0.76339  0.2819100000000001  0.7301900000000002  1.0000
  H   H11       1.0  0.13742999999999997  0.4653999999999999  0.84497  1.0000
  H   H12       1.0  0.97531  0.56065  0.88673  1.0000
  H   H13       1.0  0.9201199999999999  0.24248  0.66352  1.0000
  H   H14       1.0  0.33093  0.16722  0.69265  1.0000
  H   H15       1.0  0.39985000000000004  0.2680800000000001  0.80825  1.0000
  H   H16       1.0  0.23021000000000003  0.35555000000000003  0.8501500000000001  1.0000
  H   H17       1.0  0.18946000000000002  0.17733999999999994  0.88347  1.0000
  H   H18       1.0  0.97254  0.0912800000000001  0.7996400000000002  1.0000
  H   H19       1.0  0.72754  0.26734  0.89574  1.0000
  H   H20       1.0  0.95335  0.34558  0.97469  1.0000
  H   H21       1.0  0.78287  0.10899999999999999  0.70413  1.0000
  H   H22       1.0  0.34142000000000006  0.9959  0.6694900000000001  1.0000
  H   H23       1.0  0.35242  0.043049999999999956  0.79257  1.0000
  H   H24       1.0  0.5773300000000001  0.12437000000000005  0.8707900000000001  1.0000
  H   H25       1.0  0.55857  0.81034  0.82572  1.0000
  H   H26       1.0  0.38572000000000006  0.88137  0.7658700000000003  1.0000
  H   H27       1.0  0.05286000000000005  0.7457400000000001  0.8314  1.0000
  H   H28       1.0  0.24078999999999992  0.68375  0.89071  1.0000
  H   H29       1.0  0.20131000000000002  0.8574300000000001  0.6751600000000001  1.0000
  H   H30       1.0  0.80188  0.94718  0.6533500000000001  1.0000
  H   H31       1.0  0.7720800000000001  0.9224900000000001  0.7626500000000003  1.0000
  H   H32       1.0  0.9565100000000001  0.8647900000000001  0.82767  1.0000
  H   H33       1.0  0.38377  0.61454  0.22262  1.0000
  H   H34       1.0  0.23663  0.7181  0.26981000000000005  1.0000
  H   H35       1.0  0.86258  0.53461  0.15503000000000003  1.0000
  H   H36       1.0  0.0247  0.43936  0.11327  1.0000
  H   H37       1.0  0.07989000000000004  0.75753  0.33648000000000006  1.0000
  H   H38       1.0  0.66909  0.83278  0.30735  1.0000
  H   H39       1.0  0.60017  0.73192  0.19175  1.0000
  H   H40       1.0  0.76981  0.64445  0.14985  1.0000
  H   H41       1.0  0.81056  0.82267  0.11653000000000001  1.0000
  H   H42       1.0  0.027470000000000026  0.90872  0.20036  1.0000
  H   H43       1.0  0.27248  0.73267  0.10426  1.0000
  H   H44       1.0  0.04667  0.65444  0.02531  1.0000
  H   H45       1.0  0.21715  0.891  0.29587  1.0000
  H   H46       1.0  0.6586  0.004100000000000024  0.3305100000000001  1.0000
  H   H47       1.0  0.6476000000000001  0.9569600000000003  0.20743  1.0000
  H   H48       1.0  0.42269  0.8756300000000002  0.12921  1.0000
  C   C1        1.0  0.5546  0.2012  0.1739  1.0000
  C   C2        1.0  0.65228  0.16255  0.20766000000000004  1.0000
  C   C3        1.0  0.79776  0.17996000000000004  0.20664000000000002  1.0000
  C   C4        1.0  0.83616  0.23629  0.17017  1.0000
  C   C5        1.0  0.7322  0.27192  0.13745  1.0000
  C   C6        1.0  0.9068699999999998  0.1431  0.24359000000000003  1.0000
  C   C7        1.0  0.89105  0.12777  0.30448  1.0000
  C   C8        1.0  0.9958399999999998  0.09595000000000001  0.34154000000000007  1.0000
  C   C9        1.0  0.11822999999999995  0.07823  0.31758  1.0000
  C   C10       1.0  0.13402  0.09219  0.25652  1.0000
  C   C11       1.0  0.029870000000000025  0.12464000000000001  0.21988000000000005  1.0000
  C   C12       1.0  0.9739199999999999  0.07962000000000002  0.40564000000000006  1.0000
  C   C13       1.0  0.7325699999999999  0.40019000000000005  0.7908300000000001  1.0000
  C   C14       1.0  0.8159200000000001  0.34306  0.76456  1.0000
  C   C15       1.0  0.96576  0.36386  0.78419  1.0000
  C   C16       1.0  0.022880000000000032  0.44403000000000004  0.82909  1.0000
  C   C17       1.0  0.9330199999999998  0.49784000000000006  0.85248  1.0000
  C   C18       1.0  0.06280000000000009  0.3070800000000002  0.7596700000000001  1.0000
  C   C19       1.0  0.02416000000000006  0.24853000000000006  0.6960400000000001  1.0000
  C   C20       1.0  0.12118000000000013  0.1987700000000001  0.6721600000000002  1.0000
  C   C21       1.0  0.25754  0.20642  0.71226  1.0000
  C   C22       1.0  0.2955400000000001  0.2628300000000001  0.7761200000000003  1.0000
  C   C23       1.0  0.19941  0.3129  0.79966  1.0000
  C   C24       1.0  0.07994000000000005  0.13699  0.60451  1.0000
  C   C25       1.0  0.08443000000000003  0.19457  0.88423  1.0000
  C   C26       1.0  0.9630799999999999  0.14729000000000006  0.83751  1.0000
  C   C27       1.0  0.8296199999999999  0.17140000000000008  0.8406200000000003  1.0000
  C   C28       1.0  0.8268999999999999  0.24419  0.89129  1.0000
  C   C29       1.0  0.9530299999999999  0.28850000000000003  0.9355200000000001  1.0000
  C   C30       1.0  0.6963500000000001  0.1225000000000001  0.7932500000000001  1.0000
  C   C31       1.0  0.6896399999999999  0.09465999999999994  0.7242  1.0000
  C   C32       1.0  0.56176  0.04999000000000001  0.67963  1.0000
  C   C33       1.0  0.43999  0.03092000000000003  0.7043800000000001  1.0000
  C   C34       1.0  0.4465899999999999  0.05752999999999994  0.77315  1.0000
  C   C35       1.0  0.57304  0.10354999999999999  0.81724  1.0000
  C   C36       1.0  0.55574  0.024130000000000013  0.60576  1.0000
  C   C37       1.0  0.44541  0.7988  0.8261000000000001  1.0000
  C   C38       1.0  0.34774  0.83745  0.79234  1.0000
  C   C39       1.0  0.20225999999999997  0.82004  0.79336  1.0000
  C   C40       1.0  0.1638600000000001  0.76372  0.8298300000000002  1.0000
  C   C41       1.0  0.26781  0.72809  0.8625500000000003  1.0000
  C   C42       1.0  0.09315000000000001  0.8569100000000001  0.75641  1.0000
  C   C43       1.0  0.10896000000000013  0.87224  0.6955200000000002  1.0000
  C   C44       1.0  0.004180000000000006  0.90405  0.65846  1.0000
  C   C45       1.0  0.8817900000000004  0.9217800000000002  0.68242  1.0000
  C   C46       1.0  0.866  0.9078200000000001  0.74348  1.0000
  C   C47       1.0  0.97014  0.8753700000000002  0.7801100000000001  1.0000
  C   C48       1.0  0.026089999999999943  0.9203899999999999  0.59435  1.0000
  C   C49       1.0  0.26745  0.59981  0.20916  1.0000
  C   C50       1.0  0.1841  0.65695  0.23543  1.0000
  C   C51       1.0  0.03426000000000001  0.63614  0.21581000000000003  1.0000
  C   C52       1.0  0.9771299999999999  0.55597  0.17091  1.0000
  C   C53       1.0  0.06698999999999997  0.50216  0.14752  1.0000
  C   C54       1.0  0.93722  0.69293  0.24033  1.0000
  C   C55       1.0  0.97586  0.75147  0.30395000000000005  1.0000
  C   C56       1.0  0.8788399999999997  0.8012300000000001  0.32784  1.0000
  C   C57       1.0  0.74248  0.79359  0.28774  1.0000
  C   C58       1.0  0.70448  0.7371700000000002  0.22388  1.0000
  C   C59       1.0  0.8006100000000002  0.68711  0.20034  1.0000
  C   C60       1.0  0.92007  0.86301  0.39549  1.0000
  C   C61       1.0  0.91559  0.80543  0.11577000000000001  1.0000
  C   C62       1.0  0.036939999999999994  0.85272  0.16249  1.0000
  C   C63       1.0  0.17038999999999999  0.82861  0.15938  1.0000
  C   C64       1.0  0.17312  0.75582  0.1087  1.0000
  C   C65       1.0  0.04698  0.71151  0.06447  1.0000
  C   C66       1.0  0.30367000000000005  0.8775100000000001  0.20675  1.0000
  C   C67       1.0  0.31038  0.90534  0.2758  1.0000
  C   C68       1.0  0.43825  0.95002  0.32037  1.0000
  C   C69       1.0  0.5600299999999999  0.96909  0.29562  1.0000
  C   C70       1.0  0.55343  0.94247  0.22685  1.0000
  C   C71       1.0  0.42696999999999996  0.89645  0.18276  1.0000
  C   C72       1.0  0.44428  0.97588  0.39424000000000003  1.0000
  I   I1        1.0  0.59395  0.4819800000000001  0.1782  1.0000
  I   I2        1.0  0.48795999999999995  0.27322  0.96609  1.0000
  I   I3        1.0  0.19014  0.28451  0.11137  1.0000
  I   I4        1.0  0.2604500000000001  0.4954500000000001  0.9966500000000003  1.0000
  I   I5        1.0  0.40606  0.51803  0.8218  1.0000
  I   I6        1.0  0.51206  0.72679  0.03391  1.0000
  I   I7        1.0  0.80987  0.7155  0.88862  1.0000
  I   I8        1.0  0.73957  0.50456  0.0033500000000000005  1.0000
  N   N1        1.0  0.59273  0.25561  0.13921000000000003  1.0000
  N   N2        1.0  0.78928  0.47690000000000005  0.8346300000000001  1.0000
  N   N3        1.0  0.08125000000000002  0.2647  0.93272  1.0000
  N   N4        1.0  0.40728999999999993  0.7444  0.86079  1.0000
  N   N5        1.0  0.21073999999999998  0.5231  0.16537  1.0000
  N   N6        1.0  0.91877  0.73531  0.06728  1.0000
  O   O1        1.0  0.8542399999999999  0.08790000000000006  0.4215800000000001  1.0000
  O   O2        1.0  0.07406000000000001  0.05537000000000002  0.44115000000000004  1.0000
  O   O3        1.0  0.95184  0.12726  0.57121  1.0000
  O   O4        1.0  0.1748  0.09574  0.58416  1.0000
  O   O5        1.0  0.67372  0.03169000000000002  0.58713  1.0000
  O   O6        1.0  0.43431  0.99564  0.56554  1.0000
  O   O7        1.0  0.14578999999999998  0.9121000000000001  0.5784200000000002  1.0000
  O   O8        1.0  0.9259600000000002  0.94464  0.5588500000000001  1.0000
  O   O9        1.0  0.04818000000000003  0.8727400000000001  0.4287900000000001  1.0000
  O   O10       1.0  0.8252200000000001  0.90426  0.41584  1.0000
  O   O11       1.0  0.32629  0.96832  0.41287  1.0000
  O   O12       1.0  0.5657  0.004360000000000025  0.43446000000000007  1.0000
