data_image0
_chemical_formula_structural       Zn4H64C80N24O16
_chemical_formula_sum              "Zn4 H64 C80 N24 O16"
_cell_length_a       12.89645
_cell_length_b       14.61012
_cell_length_c       14.61012
_cell_angle_alpha    90.0
_cell_angle_beta     90.0
_cell_angle_gamma    90.0

_space_group_name_H-M_alt    "P 1"
_space_group_IT_number       1

loop_
  _space_group_symop_operation_xyz
  'x, y, z'

loop_
  _atom_site_type_symbol
  _atom_site_label
  _atom_site_symmetry_multiplicity
  _atom_site_fract_x
  _atom_site_fract_y
  _atom_site_fract_z
  _atom_site_occupancy
  Zn  Zn1       1.0  0.0019400000000000003  0.5  0.0  1.0000
  Zn  Zn2       1.0  0.50193  0.0  0.5  1.0000
  Zn  Zn3       1.0  0.0019400000000000003  0.0  0.5  1.0000
  Zn  Zn4       1.0  0.50193  0.5  0.0  1.0000
  H   H1        1.0  0.99147  0.19066000000000002  0.18805000000000005  1.0000
  H   H2        1.0  0.86704  0.09060000000000003  0.276  1.0000
  H   H3        1.0  0.61215  0.25303  0.17293000000000006  1.0000
  H   H4        1.0  0.7364100000000001  0.34913  0.08641000000000003  1.0000
  H   H5        1.0  0.56353  0.06112000000000001  0.16608000000000006  1.0000
  H   H6        1.0  0.78827  0.08796000000000002  0.4544200000000001  1.0000
  H   H7        1.0  0.7562800000000001  0.19991000000000006  0.41647  1.0000
  H   H8        1.0  0.6783  0.14617  0.50253  1.0000
  H   H9        1.0  0.99147  0.8093400000000002  0.81195  1.0000
  H   H10       1.0  0.86704  0.9094000000000002  0.72399  1.0000
  H   H11       1.0  0.61215  0.74696  0.8270700000000001  1.0000
  H   H12       1.0  0.7364100000000001  0.65087  0.9135800000000002  1.0000
  H   H13       1.0  0.56353  0.93888  0.83392  1.0000
  H   H14       1.0  0.78827  0.9120300000000002  0.54557  1.0000
  H   H15       1.0  0.7562800000000001  0.8000900000000002  0.58353  1.0000
  H   H16       1.0  0.6783  0.8538300000000001  0.49747000000000013  1.0000
  H   H17       1.0  0.4914200000000001  0.6906600000000003  0.3119600000000001  1.0000
  H   H18       1.0  0.36698  0.59062  0.22400000000000006  1.0000
  H   H19       1.0  0.11211  0.7530300000000002  0.32707  1.0000
  H   H20       1.0  0.23635  0.8491400000000002  0.4135900000000001  1.0000
  H   H21       1.0  0.06353  0.5610600000000002  0.33392000000000005  1.0000
  H   H22       1.0  0.28826  0.58796  0.04561  1.0000
  H   H23       1.0  0.25629  0.69991  0.08356  1.0000
  H   H24       1.0  0.17831  0.6462  0.9974900000000002  1.0000
  H   H25       1.0  0.4914200000000001  0.3093300000000001  0.6880300000000003  1.0000
  H   H26       1.0  0.36698  0.40938  0.7760000000000002  1.0000
  H   H27       1.0  0.11211  0.24697000000000005  0.6729200000000001  1.0000
  H   H28       1.0  0.23635  0.15086000000000005  0.58641  1.0000
  H   H29       1.0  0.06353  0.43893000000000004  0.6660700000000003  1.0000
  H   H30       1.0  0.28826  0.4120300000000001  0.9543900000000002  1.0000
  H   H31       1.0  0.25629  0.30008  0.9164400000000003  1.0000
  H   H32       1.0  0.17831  0.3538000000000001  0.002510000000000001  1.0000
  H   H33       1.0  0.99147  0.81195  0.19066000000000002  1.0000
  H   H34       1.0  0.86704  0.72399  0.09060000000000003  1.0000
  H   H35       1.0  0.61215  0.8270700000000001  0.25303  1.0000
  H   H36       1.0  0.7364100000000001  0.9135800000000002  0.34913  1.0000
  H   H37       1.0  0.56353  0.83392  0.06112000000000001  1.0000
  H   H38       1.0  0.78827  0.54557  0.08796000000000002  1.0000
  H   H39       1.0  0.7562800000000001  0.58353  0.19991000000000006  1.0000
  H   H40       1.0  0.6783  0.49747000000000013  0.14617  1.0000
  H   H41       1.0  0.99147  0.18805000000000005  0.8093400000000002  1.0000
  H   H42       1.0  0.86704  0.276  0.9094000000000002  1.0000
  H   H43       1.0  0.61215  0.17293000000000006  0.74696  1.0000
  H   H44       1.0  0.7364100000000001  0.08641000000000003  0.65087  1.0000
  H   H45       1.0  0.56353  0.16608000000000006  0.93888  1.0000
  H   H46       1.0  0.78827  0.4544200000000001  0.9120300000000002  1.0000
  H   H47       1.0  0.7562800000000001  0.41647  0.8000900000000002  1.0000
  H   H48       1.0  0.6783  0.50253  0.8538300000000001  1.0000
  H   H49       1.0  0.4914200000000001  0.3119600000000001  0.3093300000000001  1.0000
  H   H50       1.0  0.36698  0.22400000000000006  0.40938  1.0000
  H   H51       1.0  0.11211  0.32707  0.24697000000000005  1.0000
  H   H52       1.0  0.23635  0.4135900000000001  0.15086000000000005  1.0000
  H   H53       1.0  0.06353  0.33392000000000005  0.43893000000000004  1.0000
  H   H54       1.0  0.28826  0.04561  0.4120300000000001  1.0000
  H   H55       1.0  0.25629  0.08356  0.30008  1.0000
  H   H56       1.0  0.17831  0.9974900000000002  0.3538000000000001  1.0000
  H   H57       1.0  0.4914200000000001  0.6880300000000003  0.6906600000000003  1.0000
  H   H58       1.0  0.36698  0.7760000000000002  0.59062  1.0000
  H   H59       1.0  0.11211  0.6729200000000001  0.7530300000000002  1.0000
  H   H60       1.0  0.23635  0.58641  0.8491400000000002  1.0000
  H   H61       1.0  0.06353  0.6660700000000003  0.5610600000000002  1.0000
  H   H62       1.0  0.28826  0.9543900000000002  0.58796  1.0000
  H   H63       1.0  0.25629  0.9164400000000003  0.69991  1.0000
  H   H64       1.0  0.17831  0.002510000000000001  0.6462  1.0000
  C   C1        1.0  0.94586  0.33733000000000013  0.08257  1.0000
  C   C2        1.0  0.87125  0.2753600000000001  0.13177000000000005  1.0000
  C   C3        1.0  0.9082700000000001  0.20277  0.18548000000000006  1.0000
  C   C4        1.0  0.8395700000000001  0.14724000000000007  0.23405  1.0000
  C   C5        1.0  0.73323  0.16551000000000002  0.22796000000000002  1.0000
  C   C6        1.0  0.69462  0.23729000000000006  0.17477  1.0000
  C   C7        1.0  0.76439  0.29183  0.12669  1.0000
  C   C8        1.0  0.57867  0.06233  0.23891  1.0000
  C   C9        1.0  0.65412  0.09555000000000002  0.36956  1.0000
  C   C10       1.0  0.72353  0.1347  0.4398200000000001  1.0000
  C   C11       1.0  0.94586  0.6626700000000002  0.91743  1.0000
  C   C12       1.0  0.87125  0.72463  0.8682300000000002  1.0000
  C   C13       1.0  0.9082700000000001  0.79723  0.81451  1.0000
  C   C14       1.0  0.8395700000000001  0.8527600000000002  0.7659500000000002  1.0000
  C   C15       1.0  0.73323  0.8344800000000002  0.77204  1.0000
  C   C16       1.0  0.69462  0.7627000000000003  0.82523  1.0000
  C   C17       1.0  0.76439  0.70816  0.8733100000000003  1.0000
  C   C18       1.0  0.57867  0.93767  0.76109  1.0000
  C   C19       1.0  0.65412  0.9044500000000002  0.63043  1.0000
  C   C20       1.0  0.72353  0.8652900000000002  0.5601800000000002  1.0000
  C   C21       1.0  0.44581000000000004  0.8373400000000002  0.41743000000000013  1.0000
  C   C22       1.0  0.37121  0.7753600000000003  0.36825000000000013  1.0000
  C   C23       1.0  0.40823000000000004  0.70277  0.31453  1.0000
  C   C24       1.0  0.33953  0.64724  0.2659700000000001  1.0000
  C   C25       1.0  0.23319  0.6655200000000001  0.27207  1.0000
  C   C26       1.0  0.19457  0.7373000000000002  0.3252600000000001  1.0000
  C   C27       1.0  0.26435  0.7918300000000003  0.37334  1.0000
  C   C28       1.0  0.07864000000000002  0.56231  0.26109000000000004  1.0000
  C   C29       1.0  0.1541  0.59556  0.13045  1.0000
  C   C30       1.0  0.22352  0.6347200000000002  0.060210000000000014  1.0000
  C   C31       1.0  0.44581000000000004  0.16266  0.5825600000000002  1.0000
  C   C32       1.0  0.37121  0.22464  0.6317500000000003  1.0000
  C   C33       1.0  0.40823000000000004  0.29723  0.6854600000000002  1.0000
  C   C34       1.0  0.33953  0.35275  0.7340300000000002  1.0000
  C   C35       1.0  0.23319  0.3344800000000001  0.72793  1.0000
  C   C36       1.0  0.19457  0.2627  0.67474  1.0000
  C   C37       1.0  0.26435  0.20816000000000004  0.62666  1.0000
  C   C38       1.0  0.07864000000000002  0.43769  0.7389000000000002  1.0000
  C   C39       1.0  0.1541  0.40443  0.86955  1.0000
  C   C40       1.0  0.22352  0.36528  0.9397900000000002  1.0000
  C   C41       1.0  0.94586  0.91743  0.33733000000000013  1.0000
  C   C42       1.0  0.87125  0.8682300000000002  0.2753600000000001  1.0000
  C   C43       1.0  0.9082700000000001  0.81451  0.20277  1.0000
  C   C44       1.0  0.8395700000000001  0.7659500000000002  0.14724000000000007  1.0000
  C   C45       1.0  0.73323  0.77204  0.16551000000000002  1.0000
  C   C46       1.0  0.69462  0.82523  0.23729000000000006  1.0000
  C   C47       1.0  0.76439  0.8733100000000003  0.29183  1.0000
  C   C48       1.0  0.57867  0.76109  0.06233  1.0000
  C   C49       1.0  0.65412  0.63043  0.09555000000000002  1.0000
  C   C50       1.0  0.72353  0.5601800000000002  0.1347  1.0000
  C   C51       1.0  0.94586  0.08257  0.6626700000000002  1.0000
  C   C52       1.0  0.87125  0.13177000000000005  0.72463  1.0000
  C   C53       1.0  0.9082700000000001  0.18548000000000006  0.79723  1.0000
  C   C54       1.0  0.8395700000000001  0.23405  0.8527600000000002  1.0000
  C   C55       1.0  0.73323  0.22796000000000002  0.8344800000000002  1.0000
  C   C56       1.0  0.69462  0.17477  0.7627000000000003  1.0000
  C   C57       1.0  0.76439  0.12669  0.70816  1.0000
  C   C58       1.0  0.57867  0.23891  0.93767  1.0000
  C   C59       1.0  0.65412  0.36956  0.9044500000000002  1.0000
  C   C60       1.0  0.72353  0.4398200000000001  0.8652900000000002  1.0000
  C   C61       1.0  0.44581000000000004  0.41743000000000013  0.16266  1.0000
  C   C62       1.0  0.37121  0.36825000000000013  0.22464  1.0000
  C   C63       1.0  0.40823000000000004  0.31453  0.29723  1.0000
  C   C64       1.0  0.33953  0.2659700000000001  0.35275  1.0000
  C   C65       1.0  0.23319  0.27207  0.3344800000000001  1.0000
  C   C66       1.0  0.19457  0.3252600000000001  0.2627  1.0000
  C   C67       1.0  0.26435  0.37334  0.20816000000000004  1.0000
  C   C68       1.0  0.07864000000000002  0.26109000000000004  0.43769  1.0000
  C   C69       1.0  0.1541  0.13045  0.40443  1.0000
  C   C70       1.0  0.22352  0.060210000000000014  0.36528  1.0000
  C   C71       1.0  0.44581000000000004  0.5825600000000002  0.8373400000000002  1.0000
  C   C72       1.0  0.37121  0.6317500000000003  0.7753600000000003  1.0000
  C   C73       1.0  0.40823000000000004  0.6854600000000002  0.7027600000000003  1.0000
  C   C74       1.0  0.33953  0.7340300000000002  0.64724  1.0000
  C   C75       1.0  0.23319  0.72793  0.6655200000000001  1.0000
  C   C76       1.0  0.19457  0.67474  0.7373000000000002  1.0000
  C   C77       1.0  0.26435  0.62666  0.7918300000000003  1.0000
  C   C78       1.0  0.07864000000000002  0.7389000000000002  0.56231  1.0000
  C   C79       1.0  0.1541  0.86955  0.59556  1.0000
  C   C80       1.0  0.22352  0.9397900000000002  0.6347200000000002  1.0000
  N   N1        1.0  0.52446  0.02038  0.3022900000000001  1.0000
  N   N2        1.0  0.57238  0.041660000000000016  0.3843300000000001  1.0000
  N   N3        1.0  0.6605600000000001  0.10967000000000003  0.27683000000000013  1.0000
  N   N4        1.0  0.52446  0.97962  0.6977100000000003  1.0000
  N   N5        1.0  0.57238  0.9583400000000002  0.6156700000000003  1.0000
  N   N6        1.0  0.6605600000000001  0.89033  0.72316  1.0000
  N   N7        1.0  0.02444  0.52037  0.19771  1.0000
  N   N8        1.0  0.07237  0.5416600000000003  0.11567000000000002  1.0000
  N   N9        1.0  0.16053  0.60967  0.22318000000000005  1.0000
  N   N10       1.0  0.02444  0.4796300000000001  0.80229  1.0000
  N   N11       1.0  0.07237  0.45833  0.8843200000000002  1.0000
  N   N12       1.0  0.16053  0.39033  0.7768200000000001  1.0000
  N   N13       1.0  0.52446  0.6977100000000003  0.02038  1.0000
  N   N14       1.0  0.57238  0.6156700000000003  0.041660000000000016  1.0000
  N   N15       1.0  0.6605600000000001  0.72316  0.10967000000000003  1.0000
  N   N16       1.0  0.52446  0.3022900000000001  0.97962  1.0000
  N   N17       1.0  0.57238  0.3843300000000001  0.9583400000000002  1.0000
  N   N18       1.0  0.6605600000000001  0.27683000000000013  0.89033  1.0000
  N   N19       1.0  0.02444  0.19771  0.4796300000000001  1.0000
  N   N20       1.0  0.07237  0.11567000000000002  0.45833  1.0000
  N   N21       1.0  0.16053  0.22318000000000005  0.39033  1.0000
  N   N22       1.0  0.02444  0.80229  0.52037  1.0000
  N   N23       1.0  0.07237  0.8843200000000002  0.5416600000000003  1.0000
  N   N24       1.0  0.16053  0.77681  0.60967  1.0000
  O   O1        1.0  0.90189  0.4033000000000001  0.036640000000000006  1.0000
  O   O2        1.0  0.04134  0.32398  0.0882  1.0000
  O   O3        1.0  0.90189  0.5967  0.96335  1.0000
  O   O4        1.0  0.04135  0.6760200000000002  0.9118000000000003  1.0000
  O   O5        1.0  0.40188  0.9033100000000002  0.4633600000000001  1.0000
  O   O6        1.0  0.54131  0.8240000000000001  0.4118000000000001  1.0000
  O   O7        1.0  0.40188  0.09669000000000001  0.53664  1.0000
  O   O8        1.0  0.54131  0.176  0.5882000000000001  1.0000
  O   O9        1.0  0.90189  0.96335  0.4033000000000001  1.0000
  O   O10       1.0  0.04135  0.9118000000000003  0.32398  1.0000
  O   O11       1.0  0.90189  0.036640000000000006  0.5967  1.0000
  O   O12       1.0  0.04135  0.0882  0.6760200000000002  1.0000
  O   O13       1.0  0.40188  0.4633600000000001  0.09669000000000001  1.0000
  O   O14       1.0  0.54131  0.4118000000000001  0.176  1.0000
  O   O15       1.0  0.40188  0.53664  0.9033100000000002  1.0000
  O   O16       1.0  0.54131  0.5882000000000001  0.8240000000000001  1.0000
