data_image0
_chemical_formula_structural       Zn8H36C76N28O24
_chemical_formula_sum              "Zn8 H36 C76 N28 O24"
_cell_length_a       10.974
_cell_length_b       10.97411
_cell_length_c       24.98862
_cell_angle_alpha    90.0
_cell_angle_beta     90.0
_cell_angle_gamma    89.89424

_symmetry_space_group_name_H-M    'P 1'
_symmetry_Int_Tables_number       1

loop_
  _symmetry_equiv_pos_as_xyz
  'x,y,z'

loop_
  _atom_site_type_symbol
  _atom_site_label
  _atom_site_symmetry_multiplicity
  _atom_site_fract_x
  _atom_site_fract_y
  _atom_site_fract_z
  _atom_site_occupancy
  Zn  Zn1       1.0  0.45717  0.46484  0.92378  1.0000
  Zn  Zn2       1.0  0.54283  0.5351500000000001  0.42378  1.0000
  Zn  Zn3       1.0  0.03880999999999999  0.95439  0.17306000000000005  1.0000
  Zn  Zn4       1.0  0.96119  0.04561  0.67306  1.0000
  Zn  Zn5       1.0  0.04561  0.9611800000000001  0.32694000000000006  1.0000
  Zn  Zn6       1.0  0.95439  0.03881  0.82694  1.0000
  Zn  Zn7       1.0  0.46484  0.45716  0.07622000000000001  1.0000
  Zn  Zn8       1.0  0.53516  0.54283  0.57622  1.0000
  H   H1        1.0  0.33456  0.32576  0.78256  1.0000
  H   H2        1.0  0.1542  0.19286  0.75801  1.0000
  H   H3        1.0  0.08677  0.13203000000000004  0.9198800000000003  1.0000
  H   H4        1.0  0.68159  0.7444  0.91586  1.0000
  H   H5        1.0  0.66544  0.6742400000000001  0.28256  1.0000
  H   H6        1.0  0.8457999999999999  0.80714  0.2580100000000001  1.0000
  H   H7        1.0  0.91323  0.8679700000000002  0.4198800000000001  1.0000
  H   H8        1.0  0.31841  0.2556  0.41586000000000006  1.0000
  H   H9        1.0  0.17387  0.8357900000000001  0.03334000000000001  1.0000
  H   H10       1.0  0.30919  0.6574100000000002  0.007100000000000001  1.0000
  H   H11       1.0  0.37356  0.58501  0.16829  1.0000
  H   H12       1.0  0.76181  0.18553  0.16521  1.0000
  H   H13       1.0  0.82613  0.16421  0.53333  1.0000
  H   H14       1.0  0.69081  0.34258  0.50709  1.0000
  H   H15       1.0  0.6264399999999999  0.41499  0.6682900000000002  1.0000
  H   H16       1.0  0.23819  0.8144600000000001  0.66521  1.0000
  H   H17       1.0  0.16421  0.8261300000000001  0.46666  1.0000
  H   H18       1.0  0.34257999999999994  0.69081  0.49290000000000006  1.0000
  H   H19       1.0  0.4149899999999999  0.62643  0.33170000000000005  1.0000
  H   H20       1.0  0.81447  0.23819000000000004  0.33479000000000003  1.0000
  H   H21       1.0  0.8357899999999999  0.17387000000000002  0.9666600000000002  1.0000
  H   H22       1.0  0.6574199999999999  0.30919  0.9929000000000002  1.0000
  H   H23       1.0  0.58501  0.37356  0.8317000000000002  1.0000
  H   H24       1.0  0.18552999999999994  0.7618100000000001  0.83479  1.0000
  H   H25       1.0  0.32576  0.33456  0.21744000000000005  1.0000
  H   H26       1.0  0.19286  0.1542  0.24199  1.0000
  H   H27       1.0  0.13203  0.08677  0.08012  1.0000
  H   H28       1.0  0.7444  0.68159  0.08414000000000002  1.0000
  H   H29       1.0  0.67424  0.66544  0.71743  1.0000
  H   H30       1.0  0.80714  0.8458  0.74199  1.0000
  H   H31       1.0  0.86797  0.91322  0.58012  1.0000
  H   H32       1.0  0.2556  0.31841  0.58414  1.0000
  H   H33       1.0  0.9526199999999999  0.95262  0.0  1.0000
  H   H34       1.0  0.04738  0.04738  0.5  1.0000
  H   H35       1.0  0.54802  0.45198  0.25  1.0000
  H   H36       1.0  0.45197999999999994  0.54802  0.7500000000000002  1.0000
  C   C1        1.0  0.27898  0.28259  0.81332  1.0000
  C   C2        1.0  0.17920999999999998  0.20972  0.7995800000000002  1.0000
  C   C3        1.0  0.14152  0.17642  0.8893  1.0000
  C   C4        1.0  0.24103999999999995  0.25062  0.90226  1.0000
  C   C5        1.0  0.27158999999999994  0.27466  0.9579800000000002  1.0000
  C   C6        1.0  0.7312299999999998  0.7654600000000003  0.9524000000000002  1.0000
  C   C7        1.0  0.8240299999999999  0.8527600000000001  0.9520900000000002  1.0000
  C   C8        1.0  0.86235  0.91517  0.9017800000000002  1.0000
  C   C9        1.0  0.72102  0.71741  0.31332  1.0000
  C   C10       1.0  0.82079  0.7902700000000003  0.29958  1.0000
  C   C11       1.0  0.8584799999999998  0.82357  0.3893  1.0000
  C   C12       1.0  0.75896  0.74938  0.40226000000000006  1.0000
  C   C13       1.0  0.72841  0.72533  0.45798  1.0000
  C   C14       1.0  0.26877  0.23453  0.45240000000000014  1.0000
  C   C15       1.0  0.17596999999999996  0.14723  0.4520900000000001  1.0000
  C   C16       1.0  0.13765  0.08483000000000002  0.4017800000000001  1.0000
  C   C17       1.0  0.21895  0.77987  0.06349  1.0000
  C   C18       1.0  0.29267  0.68113  0.04887000000000001  1.0000
  C   C19       1.0  0.32804999999999995  0.6409900000000001  0.13838000000000003  1.0000
  C   C20       1.0  0.25344  0.73979  0.15216  1.0000
  C   C21       1.0  0.22938  0.7690500000000001  0.20800000000000005  1.0000
  C   C22       1.0  0.7382999999999997  0.23298  0.20204000000000005  1.0000
  C   C23       1.0  0.6504799999999998  0.32561  0.20173000000000002  1.0000
  C   C24       1.0  0.58954  0.36466  0.15104000000000004  1.0000
  C   C25       1.0  0.78105  0.22012  0.56349  1.0000
  C   C26       1.0  0.70733  0.31887  0.54886  1.0000
  C   C27       1.0  0.6719499999999999  0.35901  0.6383800000000001  1.0000
  C   C28       1.0  0.74656  0.26021  0.65216  1.0000
  C   C29       1.0  0.77062  0.23095  0.708  1.0000
  C   C30       1.0  0.2617  0.76702  0.70204  1.0000
  C   C31       1.0  0.34952  0.6743900000000002  0.70173  1.0000
  C   C32       1.0  0.41046  0.6353300000000001  0.6510400000000002  1.0000
  C   C33       1.0  0.22012  0.7810500000000001  0.4365100000000001  1.0000
  C   C34       1.0  0.31887  0.70733  0.45113  1.0000
  C   C35       1.0  0.35901  0.6719400000000001  0.3616100000000001  1.0000
  C   C36       1.0  0.26021  0.74655  0.34784  1.0000
  C   C37       1.0  0.23094999999999996  0.77062  0.292  1.0000
  C   C38       1.0  0.76702  0.2617  0.29795000000000005  1.0000
  C   C39       1.0  0.6743899999999999  0.34952  0.2982600000000001  1.0000
  C   C40       1.0  0.63534  0.41046  0.34896000000000005  1.0000
  C   C41       1.0  0.7798799999999999  0.21895  0.9365100000000002  1.0000
  C   C42       1.0  0.68113  0.29267  0.9511300000000003  1.0000
  C   C43       1.0  0.64099  0.32805  0.8616100000000002  1.0000
  C   C44       1.0  0.73979  0.25344  0.8478300000000001  1.0000
  C   C45       1.0  0.76905  0.22938000000000003  0.792  1.0000
  C   C46       1.0  0.23298  0.7383  0.79795  1.0000
  C   C47       1.0  0.32561  0.65048  0.79826  1.0000
  C   C48       1.0  0.36466  0.58954  0.8489600000000002  1.0000
  C   C49       1.0  0.28259  0.27897  0.18668  1.0000
  C   C50       1.0  0.20971999999999996  0.17921  0.20042000000000004  1.0000
  C   C51       1.0  0.17642  0.14152  0.1107  1.0000
  C   C52       1.0  0.25062  0.24104000000000003  0.09774000000000002  1.0000
  C   C53       1.0  0.27466  0.27159  0.04202  1.0000
  C   C54       1.0  0.76547  0.7312300000000002  0.04760000000000002  1.0000
  C   C55       1.0  0.8527699999999999  0.8240300000000002  0.04791  1.0000
  C   C56       1.0  0.9151699999999999  0.8623500000000001  0.09822000000000003  1.0000
  C   C57       1.0  0.71741  0.7210200000000001  0.68668  1.0000
  C   C58       1.0  0.7902799999999999  0.82079  0.7004200000000002  1.0000
  C   C59       1.0  0.82358  0.85848  0.6107000000000001  1.0000
  C   C60       1.0  0.74938  0.75896  0.59774  1.0000
  C   C61       1.0  0.72534  0.7284100000000001  0.54202  1.0000
  C   C62       1.0  0.23453  0.26877  0.5476  1.0000
  C   C63       1.0  0.14723  0.17597  0.54791  1.0000
  C   C64       1.0  0.08483  0.13765000000000002  0.59822  1.0000
  C   C65       1.0  0.60763  0.60763  0.0  1.0000
  C   C66       1.0  0.7036  0.7036  0.0  1.0000
  C   C67       1.0  0.88268  0.8826800000000001  0.0  1.0000
  C   C68       1.0  0.39236999999999994  0.39237  0.5  1.0000
  C   C69       1.0  0.2964  0.2964  0.5  1.0000
  C   C70       1.0  0.11732  0.11732000000000001  0.5  1.0000
  C   C71       1.0  0.8936899999999998  0.10631  0.25  1.0000
  C   C72       1.0  0.7974699999999999  0.20253  0.25  1.0000
  C   C73       1.0  0.61808  0.38192  0.25  1.0000
  C   C74       1.0  0.10630999999999999  0.89369  0.7500000000000002  1.0000
  C   C75       1.0  0.20252999999999996  0.79747  0.7500000000000002  1.0000
  C   C76       1.0  0.38192  0.61808  0.7500000000000002  1.0000
  N   N1        1.0  0.11107  0.15650000000000003  0.83802  1.0000
  N   N2        1.0  0.31065  0.30279  0.8643400000000002  1.0000
  N   N3        1.0  0.35588  0.35808000000000006  0.9728600000000001  1.0000
  N   N4        1.0  0.88893  0.8435  0.3380200000000001  1.0000
  N   N5        1.0  0.68935  0.69721  0.36434000000000005  1.0000
  N   N6        1.0  0.64412  0.64191  0.4728600000000001  1.0000
  N   N7        1.0  0.34729  0.61252  0.08683000000000003  1.0000
  N   N8        1.0  0.19996  0.8100700000000001  0.11477  1.0000
  N   N9        1.0  0.14551  0.8533200000000001  0.22287  1.0000
  N   N10       1.0  0.65271  0.38747000000000004  0.58682  1.0000
  N   N11       1.0  0.80004  0.18993000000000002  0.61476  1.0000
  N   N12       1.0  0.8544899999999999  0.14668  0.72287  1.0000
  N   N13       1.0  0.3874699999999999  0.6527  0.41317  1.0000
  N   N14       1.0  0.18992999999999996  0.80004  0.38523  1.0000
  N   N15       1.0  0.14668  0.8544900000000001  0.27713000000000004  1.0000
  N   N16       1.0  0.61253  0.34729  0.9131700000000003  1.0000
  N   N17       1.0  0.81007  0.19996  0.88523  1.0000
  N   N18       1.0  0.8533199999999997  0.14551  0.77713  1.0000
  N   N19       1.0  0.15649999999999997  0.11107000000000002  0.16198  1.0000
  N   N20       1.0  0.30279  0.31065  0.13566000000000003  1.0000
  N   N21       1.0  0.35807999999999995  0.35588000000000003  0.02713  1.0000
  N   N22       1.0  0.8435  0.8889300000000001  0.66198  1.0000
  N   N23       1.0  0.6972099999999999  0.68935  0.63565  1.0000
  N   N24       1.0  0.64192  0.64412  0.52713  1.0000
  N   N25       1.0  0.21879  0.21879  0.0  1.0000
  N   N26       1.0  0.78121  0.78121  0.5  1.0000
  N   N27       1.0  0.2846699999999999  0.71533  0.25  1.0000
  N   N28       1.0  0.71533  0.28467  0.7500000000000002  1.0000
  O   O1        1.0  0.53364  0.60643  0.9605600000000002  1.0000
  O   O2        1.0  0.7994299999999999  0.9095500000000001  0.85957  1.0000
  O   O3        1.0  0.9630899999999999  0.9766900000000002  0.90382  1.0000
  O   O4        1.0  0.46635999999999994  0.3935700000000001  0.4605700000000001  1.0000
  O   O5        1.0  0.20057  0.09044  0.3595700000000001  1.0000
  O   O6        1.0  0.03691  0.02331  0.4038200000000001  1.0000
  O   O7        1.0  0.8977099999999998  0.0355  0.20947000000000005  1.0000
  O   O8        1.0  0.5970199999999999  0.30248  0.10865  1.0000
  O   O9        1.0  0.5267899999999999  0.46496  0.15304000000000004  1.0000
  O   O10       1.0  0.10229  0.9645  0.70947  1.0000
  O   O11       1.0  0.40298  0.69752  0.6086500000000001  1.0000
  O   O12       1.0  0.47321  0.53504  0.6530400000000001  1.0000
  O   O13       1.0  0.9645  0.10229  0.29053  1.0000
  O   O14       1.0  0.69752  0.40298  0.39134  1.0000
  O   O15       1.0  0.53504  0.47321  0.3469600000000001  1.0000
  O   O16       1.0  0.03549999999999999  0.8977100000000001  0.79053  1.0000
  O   O17       1.0  0.30247999999999997  0.5970200000000001  0.8913400000000001  1.0000
  O   O18       1.0  0.46496  0.52679  0.8469600000000003  1.0000
  O   O19       1.0  0.60643  0.5336400000000001  0.03943000000000001  1.0000
  O   O20       1.0  0.9095599999999999  0.7994300000000001  0.14043  1.0000
  O   O21       1.0  0.97669  0.96309  0.09618000000000003  1.0000
  O   O22       1.0  0.3935699999999999  0.46636  0.53943  1.0000
  O   O23       1.0  0.09044  0.20057000000000003  0.64043  1.0000
  O   O24       1.0  0.023309999999999994  0.03691  0.59618  1.0000
