data_image0
_chemical_formula_structural       Zn8H56C104N8O32
_chemical_formula_sum              "Zn8 H56 C104 N8 O32"
_cell_length_a       13.96025
_cell_length_b       14.66346
_cell_length_c       18.67154
_cell_angle_alpha    69.34546
_cell_angle_beta     67.9789
_cell_angle_gamma    61.52699

_symmetry_space_group_name_H-M    'P 1'
_symmetry_Int_Tables_number       1

loop_
  _symmetry_equiv_pos_as_xyz
  'x,y,z'

loop_
  _atom_site_type_symbol
  _atom_site_label
  _atom_site_symmetry_multiplicity
  _atom_site_fract_x
  _atom_site_fract_y
  _atom_site_fract_z
  _atom_site_occupancy
  Zn  Zn1       1.0  0.37984  0.4374700000000001  0.09919  1.0000
  Zn  Zn2       1.0  0.5678800000000002  0.24124000000000004  0.30843  1.0000
  Zn  Zn3       1.0  0.9158600000000005  0.06264  0.40096  1.0000
  Zn  Zn4       1.0  0.11829999999999997  0.25872  0.19224  1.0000
  Zn  Zn5       1.0  0.6201500000000001  0.56253  0.90081  1.0000
  Zn  Zn6       1.0  0.43212000000000006  0.75876  0.69157  1.0000
  Zn  Zn7       1.0  0.08414000000000005  0.93736  0.59904  1.0000
  Zn  Zn8       1.0  0.8817000000000002  0.74128  0.8077599999999998  1.0000
  H   H1        1.0  0.4759300000000001  0.59502  0.21042  1.0000
  H   H2        1.0  0.5889399999999999  0.6543600000000002  0.24818  1.0000
  H   H3        1.0  0.79449  0.54104  0.23699999999999996  1.0000
  H   H4        1.0  0.89869  0.021229999999999995  0.18477  1.0000
  H   H5        1.0  0.91095  0.04754  0.04199  1.0000
  H   H6        1.0  0.8347100000000001  0.23331999999999997  0.96299  1.0000
  H   H7        1.0  0.37309  0.37410000000000004  0.9684299999999999  1.0000
  H   H8        1.0  0.47923000000000004  0.21970999999999996  0.90199  1.0000
  H   H9        1.0  0.68038  0.06571000000000002  0.07279  1.0000
  H   H10       1.0  0.5692900000000001  0.2266  0.13009  1.0000
  H   H11       1.0  0.9247300000000002  0.85513  0.89022  1.0000
  H   H12       1.0  0.8173300000000004  0.012259999999999988  0.95373  1.0000
  H   H13       1.0  0.51533  0.03370999999999998  0.92289  1.0000
  H   H14       1.0  0.63425  0.87506  0.86201  1.0000
  H   H15       1.0  0.28155000000000013  0.9052599999999998  0.2894  1.0000
  H   H16       1.0  0.4918199999999999  0.8456400000000001  0.25168  1.0000
  H   H17       1.0  0.5727800000000001  0.95878  0.26335  1.0000
  H   H18       1.0  0.10449999999999991  0.4787500000000001  0.31554  1.0000
  H   H19       1.0  0.0001800000000000348  0.45269  0.4584799999999999  1.0000
  H   H20       1.0  0.03062999999999998  0.26681  0.53748  1.0000
  H   H21       1.0  0.71573  0.12604000000000004  0.53139  1.0000
  H   H22       1.0  0.6012600000000001  0.28012  0.5982  1.0000
  H   H23       1.0  0.8195300000000003  0.4339100000000001  0.42726  1.0000
  H   H24       1.0  0.9262400000000004  0.27351  0.3696599999999999  1.0000
  H   H25       1.0  0.67031  0.6446400000000002  0.60954  1.0000
  H   H26       1.0  0.78346  0.48727  0.54626  1.0000
  H   H27       1.0  0.47129000000000004  0.46668  0.5775  1.0000
  H   H28       1.0  0.37099999999999994  0.62528  0.63831  1.0000
  H   H29       1.0  0.52406  0.40498000000000006  0.78958  1.0000
  H   H30       1.0  0.4110599999999999  0.34564000000000006  0.75182  1.0000
  H   H31       1.0  0.20550000000000007  0.45896  0.7629999999999999  1.0000
  H   H32       1.0  0.10129999999999995  0.97877  0.81523  1.0000
  H   H33       1.0  0.08905000000000013  0.95246  0.9580099999999999  1.0000
  H   H34       1.0  0.16527999999999998  0.76669  0.03701  1.0000
  H   H35       1.0  0.62691  0.6259  0.03157  1.0000
  H   H36       1.0  0.52077  0.78029  0.09800999999999997  1.0000
  H   H37       1.0  0.31961999999999996  0.93429  0.92721  1.0000
  H   H38       1.0  0.43071000000000015  0.7734000000000001  0.86991  1.0000
  H   H39       1.0  0.07527000000000002  0.14487  0.10978  1.0000
  H   H40       1.0  0.18267000000000003  0.9877400000000001  0.04627  1.0000
  H   H41       1.0  0.48467000000000005  0.9663  0.07710999999999998  1.0000
  H   H42       1.0  0.36575  0.12494  0.13799  1.0000
  H   H43       1.0  0.7184400000000003  0.09474000000000009  0.7105999999999998  1.0000
  H   H44       1.0  0.5081800000000001  0.15435999999999997  0.74832  1.0000
  H   H45       1.0  0.42722000000000004  0.04123  0.73665  1.0000
  H   H46       1.0  0.89549  0.5212499999999999  0.68446  1.0000
  H   H47       1.0  0.99982  0.5473099999999999  0.54152  1.0000
  H   H48       1.0  0.9693699999999998  0.7332  0.46252  1.0000
  H   H49       1.0  0.28427  0.87397  0.46861  1.0000
  H   H50       1.0  0.39873  0.71988  0.40179  1.0000
  H   H51       1.0  0.18047000000000002  0.5661  0.57274  1.0000
  H   H52       1.0  0.07374999999999994  0.72649  0.63034  1.0000
  H   H53       1.0  0.3296800000000001  0.3553700000000001  0.39046  1.0000
  H   H54       1.0  0.21653999999999995  0.51273  0.45374  1.0000
  H   H55       1.0  0.5287000000000002  0.53332  0.4225  1.0000
  H   H56       1.0  0.629  0.37472000000000005  0.36169  1.0000
  C   C1        1.0  0.54297  0.41827  0.16494  1.0000
  C   C2        1.0  0.61611  0.45217  0.18181999999999998  1.0000
  C   C3        1.0  0.56534  0.54822  0.20646  1.0000
  C   C4        1.0  0.6282900000000001  0.5808  0.22743  1.0000
  C   C5        1.0  0.7423300000000002  0.51803  0.22168  1.0000
  C   C6        1.0  0.79525  0.42375  0.19372  1.0000
  C   C7        1.0  0.73232  0.38866  0.17333  1.0000
  C   C8        1.0  0.9194899999999998  0.3663600000000001  0.18463  1.0000
  C   C9        1.0  0.81374  0.1631  0.26975  1.0000
  C   C10       1.0  0.82074  0.18784  0.18346  1.0000
  C   C11       1.0  0.8686900000000001  0.10052  0.14826  1.0000
  C   C12       1.0  0.87481  0.11558999999999998  0.06888  1.0000
  C   C13       1.0  0.83359  0.21841  0.02458  1.0000
  C   C14       1.0  0.78952  0.30671  0.058049999999999984  1.0000
  C   C15       1.0  0.78298  0.29268  0.13841  1.0000
  C   C16       1.0  0.74932  0.41541000000000006  0.00542  1.0000
  C   C17       1.0  0.4430600000000002  0.30424  0.98821  1.0000
  C   C18       1.0  0.5016599999999999  0.21722000000000005  0.9527299999999999  1.0000
  C   C19       1.0  0.59031  0.12924  0.98127  1.0000
  C   C20       1.0  0.6146  0.13244  0.04654  1.0000
  C   C21       1.0  0.5525800000000002  0.22188000000000005  0.07934  1.0000
  C   C22       1.0  0.8338600000000002  0.8967500000000003  0.8995299999999999  1.0000
  C   C23       1.0  0.7732700000000003  0.9838200000000001  0.93499  1.0000
  C   C24       1.0  0.6563800000000003  0.03620000000000006  0.9442099999999998  1.0000
  C   C25       1.0  0.6055800000000005  0.99678  0.91693  1.0000
  C   C26       1.0  0.6711100000000004  0.9080599999999999  0.8833399999999998  1.0000
  C   C27       1.0  0.1261000000000001  0.08152  0.33536  1.0000
  C   C28       1.0  0.25016999999999995  0.04790000000000001  0.31827  1.0000
  C   C29       1.0  0.32022  0.95206  0.29327  1.0000
  C   C30       1.0  0.43685000000000007  0.9192  0.27251  1.0000
  C   C31       1.0  0.48227  0.98186  0.27848  1.0000
  C   C32       1.0  0.41291  0.07585000000000001  0.30685  1.0000
  C   C33       1.0  0.29436  0.11116  0.32701  1.0000
  C   C34       1.0  0.4704700000000001  0.13277000000000003  0.31666999999999995  1.0000
  C   C35       1.0  0.2472100000000001  0.33661  0.23076  1.0000
  C   C36       1.0  0.1919400000000001  0.31221  0.31687  1.0000
  C   C37       1.0  0.11716000000000003  0.39952  0.3521  1.0000
  C   C38       1.0  0.05904999999999996  0.38458  0.43159  1.0000
  C   C39       1.0  0.07620999999999999  0.2817  0.47583  1.0000
  C   C40       1.0  0.15391  0.1935300000000001  0.44208999999999987  1.0000
  C   C41       1.0  0.21400000000000002  0.20736999999999994  0.36179  1.0000
  C   C42       1.0  0.17003000000000001  0.08466999999999998  0.4942  1.0000
  C   C43       1.0  0.7356500000000002  0.19584  0.5117  1.0000
  C   C44       1.0  0.6717900000000002  0.28274000000000005  0.5473  1.0000
  C   C45       1.0  0.7009199999999999  0.37074  0.51873  1.0000
  C   C46       1.0  0.7938700000000003  0.3674299999999999  0.45346  1.0000
  C   C47       1.0  0.85408  0.27812  0.42051  1.0000
  C   C48       1.0  0.6303300000000004  0.60296  0.60043  1.0000
  C   C49       1.0  0.6921400000000001  0.51594  0.5649699999999998  1.0000
  C   C50       1.0  0.6366300000000001  0.4637800000000001  0.55584  1.0000
  C   C51       1.0  0.51898  0.5034  0.58325  1.0000
  C   C52       1.0  0.46230000000000004  0.5920299999999998  0.61694  1.0000
  C   C53       1.0  0.45702000000000004  0.58173  0.83506  1.0000
  C   C54       1.0  0.38388000000000017  0.54783  0.81818  1.0000
  C   C55       1.0  0.43466000000000005  0.45178000000000007  0.7935399999999998  1.0000
  C   C56       1.0  0.3717  0.4192  0.77257  1.0000
  C   C57       1.0  0.25765999999999994  0.48197000000000007  0.77832  1.0000
  C   C58       1.0  0.20474000000000006  0.57625  0.80628  1.0000
  C   C59       1.0  0.2676800000000002  0.61134  0.8266699999999998  1.0000
  C   C60       1.0  0.08050999999999993  0.63364  0.81537  1.0000
  C   C61       1.0  0.18626  0.8369  0.73025  1.0000
  C   C62       1.0  0.1792499999999999  0.8121600000000001  0.81654  1.0000
  C   C63       1.0  0.13129999999999994  0.8994800000000001  0.85174  1.0000
  C   C64       1.0  0.1251800000000002  0.88441  0.93112  1.0000
  C   C65       1.0  0.16641000000000006  0.78159  0.9754199999999998  1.0000
  C   C66       1.0  0.21047999999999997  0.69329  0.94195  1.0000
  C   C67       1.0  0.21701000000000006  0.70732  0.86159  1.0000
  C   C68       1.0  0.25066999999999995  0.58459  0.99458  1.0000
  C   C69       1.0  0.55694  0.69576  0.01179  1.0000
  C   C70       1.0  0.49834000000000006  0.78278  0.04727  1.0000
  C   C71       1.0  0.40969  0.87076  0.01872  1.0000
  C   C72       1.0  0.38540000000000035  0.8675600000000002  0.9534599999999999  1.0000
  C   C73       1.0  0.44741000000000003  0.7781200000000001  0.92066  1.0000
  C   C74       1.0  0.16614000000000004  0.10324999999999997  0.10047  1.0000
  C   C75       1.0  0.22672  0.01619  0.06501  1.0000
  C   C76       1.0  0.34361  0.9638100000000001  0.05579  1.0000
  C   C77       1.0  0.39441  0.0032199999999999976  0.08307  1.0000
  C   C78       1.0  0.32888  0.09194000000000002  0.11665999999999997  1.0000
  C   C79       1.0  0.8738999999999998  0.91848  0.66464  1.0000
  C   C80       1.0  0.7498300000000002  0.9521000000000001  0.68173  1.0000
  C   C81       1.0  0.67978  0.04794  0.70673  1.0000
  C   C82       1.0  0.56314  0.0808  0.72749  1.0000
  C   C83       1.0  0.51773  0.01813999999999999  0.72151  1.0000
  C   C84       1.0  0.5870900000000004  0.92415  0.69315  1.0000
  C   C85       1.0  0.70563  0.88884  0.6729899999999999  1.0000
  C   C86       1.0  0.5295199999999998  0.86723  0.68333  1.0000
  C   C87       1.0  0.75279  0.6633900000000001  0.76924  1.0000
  C   C88       1.0  0.8080600000000001  0.68779  0.68313  1.0000
  C   C89       1.0  0.8828400000000001  0.60048  0.6479  1.0000
  C   C90       1.0  0.9409500000000004  0.61542  0.56841  1.0000
  C   C91       1.0  0.9237800000000002  0.7182999999999999  0.52417  1.0000
  C   C92       1.0  0.8460900000000001  0.8064700000000001  0.55791  1.0000
  C   C93       1.0  0.7859999999999999  0.79263  0.63821  1.0000
  C   C94       1.0  0.8299600000000001  0.91533  0.5058  1.0000
  C   C95       1.0  0.2643399999999999  0.80416  0.48830000000000007  1.0000
  C   C96       1.0  0.32821000000000006  0.71726  0.4527  1.0000
  C   C97       1.0  0.29908  0.62926  0.4812699999999999  1.0000
  C   C98       1.0  0.20613000000000015  0.6325800000000001  0.54654  1.0000
  C   C99       1.0  0.14592000000000005  0.72188  0.57949  1.0000
  C   C100      1.0  0.36966  0.39704000000000006  0.39956999999999987  1.0000
  C   C101      1.0  0.30786000000000024  0.48406  0.43503  1.0000
  C   C102      1.0  0.3633600000000001  0.53622  0.44415999999999994  1.0000
  C   C103      1.0  0.4810100000000002  0.4966  0.41675  1.0000
  C   C104      1.0  0.53769  0.40797  0.38306  1.0000
  N   N1        1.0  0.46859999999999996  0.3068500000000001  0.05036  1.0000
  N   N2        1.0  0.78342  0.85886  0.87435  1.0000
  N   N3        1.0  0.8258199999999999  0.19336  0.44935  1.0000
  N   N4        1.0  0.51675  0.64096  0.62577  1.0000
  N   N5        1.0  0.5314000000000002  0.69315  0.9496399999999999  1.0000
  N   N6        1.0  0.21657  0.14114  0.12565  1.0000
  N   N7        1.0  0.17416999999999988  0.8066400000000001  0.55065  1.0000
  N   N8        1.0  0.48324000000000006  0.35904  0.37423  1.0000
  O   O1        1.0  0.48546999999999996  0.48315  0.11538  1.0000
  O   O2        1.0  0.5400800000000001  0.32724  0.20071  1.0000
  O   O3        1.0  0.72083  0.20523000000000005  0.3186999999999999  1.0000
  O   O4        1.0  0.90428  0.09728999999999997  0.29046  1.0000
  O   O5        1.0  0.9667400000000002  0.39088  0.21838  1.0000
  O   O6        1.0  0.97679  0.29365  0.14546  1.0000
  O   O7        1.0  0.7622300000000002  0.49044  0.01158  1.0000
  O   O8        1.0  0.70112  0.42019  0.9556500000000001  1.0000
  O   O9        1.0  0.08373000000000001  0.01726  0.38578  1.0000
  O   O10       1.0  0.06793999999999999  0.1717  0.29857  1.0000
  O   O11       1.0  0.24529  0.29463  0.18184  1.0000
  O   O12       1.0  0.29363000000000006  0.40147  0.21028  1.0000
  O   O13       1.0  0.5761600000000001  0.10849000000000002  0.28315  1.0000
  O   O14       1.0  0.4153400000000001  0.20528999999999997  0.35609  1.0000
  O   O15       1.0  0.2647100000000001  0.01022  0.48824  1.0000
  O   O16       1.0  0.07646999999999998  0.07938000000000003  0.54311  1.0000
  O   O17       1.0  0.51452  0.51685  0.88462  1.0000
  O   O18       1.0  0.4599099999999998  0.67276  0.79929  1.0000
  O   O19       1.0  0.27917000000000003  0.7947699999999999  0.6813  1.0000
  O   O20       1.0  0.09571999999999999  0.90271  0.70954  1.0000
  O   O21       1.0  0.03324999999999991  0.60912  0.78162  1.0000
  O   O22       1.0  0.023210000000000064  0.70635  0.85454  1.0000
  O   O23       1.0  0.23775999999999992  0.5095600000000001  0.98842  1.0000
  O   O24       1.0  0.2988700000000001  0.57982  0.04435  1.0000
  O   O25       1.0  0.91626  0.9827399999999998  0.61422  1.0000
  O   O26       1.0  0.93205  0.8283  0.7014299999999999  1.0000
  O   O27       1.0  0.75471  0.70538  0.81816  1.0000
  O   O28       1.0  0.7063700000000004  0.59854  0.78972  1.0000
  O   O29       1.0  0.42383000000000004  0.89151  0.71685  1.0000
  O   O30       1.0  0.5846499999999999  0.79471  0.64391  1.0000
  O   O31       1.0  0.7352900000000002  0.98979  0.51176  1.0000
  O   O32       1.0  0.9235199999999999  0.92063  0.45689  1.0000
