data_image0
_chemical_formula_structural       Co12H24C72N96
_chemical_formula_sum              "Co12 H24 C72 N96"
_cell_length_a       18.6493
_cell_length_b       18.64101
_cell_length_c       18.64916
_cell_angle_alpha    89.99776
_cell_angle_beta     90.00759999999998
_cell_angle_gamma    89.99597

_space_group_name_H-M_alt    "P 1"
_space_group_IT_number       1

loop_
  _space_group_symop_operation_xyz
  'x, y, z'

loop_
  _atom_site_type_symbol
  _atom_site_label
  _atom_site_symmetry_multiplicity
  _atom_site_fract_x
  _atom_site_fract_y
  _atom_site_fract_z
  _atom_site_occupancy
  Co  Co1       1.0  0.36219  0.4999199999999999  0.9998999999999999  1.0000
  Co  Co2       1.0  0.6379  0.50012  2e-05  1.0000
  Co  Co3       1.0  0.99996  0.3621  0.5000699999999999  1.0000
  Co  Co4       1.0  7.000000000000002e-05  0.6379399999999998  0.49996  1.0000
  Co  Co5       1.0  0.50021  4.999999999999998e-05  0.36211  1.0000
  Co  Co6       1.0  0.50027  0.9999799999999999  0.6378399999999999  1.0000
  Co  Co7       1.0  0.50007  0.36211  5.999999999999999e-05  1.0000
  Co  Co8       1.0  0.49997  0.63803  0.9999399999999999  1.0000
  Co  Co9       1.0  0.36216  8.000000000000002e-05  0.50016  1.0000
  Co  Co10      1.0  0.63791  0.9999  0.49996999999999997  1.0000
  Co  Co11      1.0  7e-05  0.49995999999999996  0.63781  1.0000
  Co  Co12      1.0  0.9999900000000002  0.49986  0.36218  1.0000
  H   H1        1.0  0.23349  0.39717  0.23345  1.0000
  H   H2        1.0  0.76669  0.60294  0.23331  1.0000
  H   H3        1.0  0.76665  0.3973  0.76669  1.0000
  H   H4        1.0  0.23337  0.60274  0.76642  1.0000
  H   H5        1.0  0.23354000000000003  0.23341999999999996  0.3969599999999999  1.0000
  H   H6        1.0  0.23344  0.7665199999999998  0.60294  1.0000
  H   H7        1.0  0.76649  0.76654  0.3969599999999999  1.0000
  H   H8        1.0  0.76665  0.23367999999999997  0.60309  1.0000
  H   H9        1.0  0.39704  0.23345999999999997  0.23333  1.0000
  H   H10       1.0  0.60299  0.23367999999999997  0.7666099999999999  1.0000
  H   H11       1.0  0.39699  0.7662899999999999  0.7666099999999999  1.0000
  H   H12       1.0  0.60288  0.76639  0.23341999999999996  1.0000
  H   H13       1.0  0.39705  0.23348999999999998  0.76648  1.0000
  H   H14       1.0  0.60289  0.76636  0.7664599999999999  1.0000
  H   H15       1.0  0.397  0.76664  0.23333  1.0000
  H   H16       1.0  0.60287  0.23363999999999996  0.23331999999999997  1.0000
  H   H17       1.0  0.2335  0.23351999999999998  0.60282  1.0000
  H   H18       1.0  0.76641  0.23348  0.39699  1.0000
  H   H19       1.0  0.76655  0.76649  0.6030199999999998  1.0000
  H   H20       1.0  0.23345999999999997  0.76669  0.39692999999999995  1.0000
  H   H21       1.0  0.23344  0.39717  0.7663599999999998  1.0000
  H   H22       1.0  0.23356  0.60288  0.23349999999999999  1.0000
  H   H23       1.0  0.76658  0.39717  0.23339  1.0000
  H   H24       1.0  0.76669  0.6028899999999999  0.7667199999999998  1.0000
  C   C1        1.0  0.35091  0.3509699999999999  0.16275999999999996  1.0000
  C   C2        1.0  0.31851  0.31857  0.22633  1.0000
  C   C3        1.0  0.6491  0.6489999999999998  0.16282  1.0000
  C   C4        1.0  0.68155  0.6814199999999998  0.22633999999999996  1.0000
  C   C5        1.0  0.64918  0.35118  0.83723  1.0000
  C   C6        1.0  0.68159  0.31872999999999996  0.7737  1.0000
  C   C7        1.0  0.35077  0.64895  0.83716  1.0000
  C   C8        1.0  0.3184  0.6813099999999997  0.7735599999999999  1.0000
  C   C9        1.0  0.16284  0.35086  0.3508899999999999  1.0000
  C   C10       1.0  0.22643000000000002  0.31852  0.31844  1.0000
  C   C11       1.0  0.16282  0.64901  0.6489999999999999  1.0000
  C   C12       1.0  0.2264  0.6813799999999999  0.6814  1.0000
  C   C13       1.0  0.83705  0.64893  0.35101999999999994  1.0000
  C   C14       1.0  0.77356  0.6814  0.31849999999999995  1.0000
  C   C15       1.0  0.8371800000000001  0.35111  0.64919  1.0000
  C   C16       1.0  0.77364  0.31872999999999996  0.68164  1.0000
  C   C17       1.0  0.35116  0.16295999999999997  0.35096999999999995  1.0000
  C   C18       1.0  0.31865  0.22647999999999993  0.31849  1.0000
  C   C19       1.0  0.64911  0.16304  0.6490599999999999  1.0000
  C   C20       1.0  0.68152  0.22660999999999998  0.6815799999999999  1.0000
  C   C21       1.0  0.3511  0.8370499999999998  0.64917  1.0000
  C   C22       1.0  0.31856  0.77345  0.68145  1.0000
  C   C23       1.0  0.64904  0.8370999999999997  0.35080999999999996  1.0000
  C   C24       1.0  0.68146  0.7735399999999999  0.3184  1.0000
  C   C25       1.0  0.35095  0.35101  0.83707  1.0000
  C   C26       1.0  0.31853  0.31861  0.7735099999999998  1.0000
  C   C27       1.0  0.64914  0.64901  0.83717  1.0000
  C   C28       1.0  0.68157  0.6814  0.77363  1.0000
  C   C29       1.0  0.35095  0.64908  0.16282  1.0000
  C   C30       1.0  0.3185  0.6815299999999997  0.22635  1.0000
  C   C31       1.0  0.64914  0.35111  0.16279999999999997  1.0000
  C   C32       1.0  0.68153  0.31865  0.22633  1.0000
  C   C33       1.0  0.35107  0.16298999999999994  0.6489499999999999  1.0000
  C   C34       1.0  0.31858  0.22652  0.68136  1.0000
  C   C35       1.0  0.64897  0.16295999999999997  0.35088  1.0000
  C   C36       1.0  0.68138  0.22650999999999996  0.31839  1.0000
  C   C37       1.0  0.64909  0.8370799999999999  0.6491  1.0000
  C   C38       1.0  0.68149  0.7735099999999998  0.68152  1.0000
  C   C39       1.0  0.35119  0.83707  0.3510499999999999  1.0000
  C   C40       1.0  0.31861  0.7736099999999999  0.31851  1.0000
  C   C41       1.0  0.1628  0.3509  0.64907  1.0000
  C   C42       1.0  0.22642  0.31856  0.68141  1.0000
  C   C43       1.0  0.16285  0.64917  0.3509  1.0000
  C   C44       1.0  0.22642  0.6815599999999999  0.31846  1.0000
  C   C45       1.0  0.83707  0.35094  0.35103  1.0000
  C   C46       1.0  0.77353  0.31859999999999994  0.31849  1.0000
  C   C47       1.0  0.83709  0.64893  0.64902  1.0000
  C   C48       1.0  0.77358  0.68135  0.68151  1.0000
  C   C49       1.0  0.25711  0.34931  0.25705  1.0000
  C   C50       1.0  0.74298  0.65069  0.25701  1.0000
  C   C51       1.0  0.74302  0.3494899999999999  0.74305  1.0000
  C   C52       1.0  0.25702  0.65056  0.74283  1.0000
  C   C53       1.0  0.25718  0.25709  0.3492  1.0000
  C   C54       1.0  0.25711  0.74283  0.65069  1.0000
  C   C55       1.0  0.74288  0.74287  0.34919  1.0000
  C   C56       1.0  0.74298  0.2572899999999999  0.65086  1.0000
  C   C57       1.0  0.3493  0.25712  0.25701  1.0000
  C   C58       1.0  0.65082  0.2573  0.743  1.0000
  C   C59       1.0  0.34921  0.74272  0.7429  1.0000
  C   C60       1.0  0.65073  0.7428199999999998  0.25702  1.0000
  C   C61       1.0  0.34928  0.25715999999999994  0.74284  1.0000
  C   C62       1.0  0.65074  0.7427899999999997  0.7429  1.0000
  C   C63       1.0  0.34926  0.74298  0.25702  1.0000
  C   C64       1.0  0.6507  0.25722  0.25697999999999993  1.0000
  C   C65       1.0  0.25713  0.25715999999999994  0.65063  1.0000
  C   C66       1.0  0.74281  0.25715  0.34921  1.0000
  C   C67       1.0  0.74291  0.7428199999999998  0.6507799999999999  1.0000
  C   C68       1.0  0.25714  0.7429999999999999  0.34919  1.0000
  C   C69       1.0  0.25711  0.34933999999999993  0.7428099999999999  1.0000
  C   C70       1.0  0.25713  0.65075  0.25708  1.0000
  C   C71       1.0  0.74295  0.3493599999999999  0.25705  1.0000
  C   C72       1.0  0.743  0.65065  0.74299  1.0000
  N   N1        1.0  0.36953  0.42094  0.07517  1.0000
  N   N2        1.0  0.32522  0.41039  0.12959999999999997  1.0000
  N   N3        1.0  0.6304  0.579  0.0753  1.0000
  N   N4        1.0  0.67476  0.5895899999999998  0.12968999999999997  1.0000
  N   N5        1.0  0.63043  0.42118  0.9247499999999998  1.0000
  N   N6        1.0  0.67478  0.41064  0.87033  1.0000
  N   N7        1.0  0.36941  0.57895  0.9247299999999999  1.0000
  N   N8        1.0  0.32509  0.5895499999999999  0.8702999999999999  1.0000
  N   N9        1.0  0.07536  0.3693599999999999  0.42103  1.0000
  N   N10       1.0  0.12986  0.32512999999999986  0.41034999999999994  1.0000
  N   N11       1.0  0.07539  0.63027  0.57887  1.0000
  N   N12       1.0  0.12986  0.67456  0.58945  1.0000
  N   N13       1.0  0.9245200000000001  0.63024  0.4211299999999999  1.0000
  N   N14       1.0  0.8700500000000001  0.67453  0.41052  1.0000
  N   N15       1.0  0.92463  0.36955999999999994  0.57905  1.0000
  N   N16       1.0  0.8701  0.32538  0.5897099999999998  1.0000
  N   N17       1.0  0.42123  0.07539999999999997  0.36959  1.0000
  N   N18       1.0  0.4106  0.12988  0.32531  1.0000
  N   N19       1.0  0.5791  0.0755  0.63029  1.0000
  N   N20       1.0  0.58959  0.13001  0.67456  1.0000
  N   N21       1.0  0.42121  0.92463  0.6309  1.0000
  N   N22       1.0  0.41042  0.8701199999999999  0.67512  1.0000
  N   N23       1.0  0.57906  0.92469  0.36944999999999995  1.0000
  N   N24       1.0  0.58967  0.8702899999999999  0.3250799999999999  1.0000
  N   N25       1.0  0.42109  0.36952  0.92457  1.0000
  N   N26       1.0  0.41042  0.32528999999999997  0.87007  1.0000
  N   N27       1.0  0.57894  0.63041  0.9245499999999999  1.0000
  N   N28       1.0  0.58956  0.6746099999999999  0.87002  1.0000
  N   N29       1.0  0.421  0.63048  0.0753  1.0000
  N   N30       1.0  0.41032  0.6748299999999999  0.1297  1.0000
  N   N31       1.0  0.57901  0.36965  0.07534  1.0000
  N   N32       1.0  0.58969  0.32539999999999997  0.12982  1.0000
  N   N33       1.0  0.36979  0.07544999999999998  0.57894  1.0000
  N   N34       1.0  0.32543  0.12987  0.58954  1.0000
  N   N35       1.0  0.63042  0.07553  0.4211299999999999  1.0000
  N   N36       1.0  0.67459  0.13009  0.41046  1.0000
  N   N37       1.0  0.63047  0.9245299999999999  0.57892  1.0000
  N   N38       1.0  0.67465  0.8699799999999999  0.58952  1.0000
  N   N39       1.0  0.37  0.92446  0.42128  1.0000
  N   N40       1.0  0.32573  0.8699699999999999  0.41067  1.0000
  N   N41       1.0  0.07525  0.4209099999999999  0.6304199999999999  1.0000
  N   N42       1.0  0.12966  0.41029999999999994  0.67476  1.0000
  N   N43       1.0  0.0754  0.579  0.3695799999999999  1.0000
  N   N44       1.0  0.12993  0.58956  0.32538  1.0000
  N   N45       1.0  0.9247  0.4208199999999999  0.3697899999999999  1.0000
  N   N46       1.0  0.87028  0.41033999999999987  0.32543  1.0000
  N   N47       1.0  0.9246600000000001  0.5789399999999999  0.6303699999999999  1.0000
  N   N48       1.0  0.87023  0.58951  0.67468  1.0000
  N   N49       1.0  0.63047  0.5790499999999998  0.9247299999999999  1.0000
  N   N50       1.0  0.67483  0.5896299999999998  0.8703499999999998  1.0000
  N   N51       1.0  0.36971  0.42103  0.92458  1.0000
  N   N52       1.0  0.32539  0.41051  0.87013  1.0000
  N   N53       1.0  0.36974  0.57886  0.07544  1.0000
  N   N54       1.0  0.32549  0.58943  0.12993  1.0000
  N   N55       1.0  0.63036  0.4211699999999999  0.07532  1.0000
  N   N56       1.0  0.67469  0.41063  0.12976  1.0000
  N   N57       1.0  0.9245800000000001  0.6303699999999998  0.57892  1.0000
  N   N58       1.0  0.87006  0.6746  0.58953  1.0000
  N   N59       1.0  0.92451  0.36937  0.42122  1.0000
  N   N60       1.0  0.8699500000000001  0.32523  0.4105599999999999  1.0000
  N   N61       1.0  0.07537  0.36953  0.57893  1.0000
  N   N62       1.0  0.12989  0.3253  0.58953  1.0000
  N   N63       1.0  0.07527  0.6306199999999998  0.42088  1.0000
  N   N64       1.0  0.12969  0.67494  0.41024  1.0000
  N   N65       1.0  0.57913  0.9246799999999998  0.63044  1.0000
  N   N66       1.0  0.58971  0.87025  0.67478  1.0000
  N   N67       1.0  0.42127  0.9246  0.36967999999999995  1.0000
  N   N68       1.0  0.41054  0.87022  0.3253  1.0000
  N   N69       1.0  0.57904  0.07537  0.36965  1.0000
  N   N70       1.0  0.58959  0.12977  0.32525  1.0000
  N   N71       1.0  0.42127  0.07553  0.63033  1.0000
  N   N72       1.0  0.41061  0.13002999999999998  0.67456  1.0000
  N   N73       1.0  0.57889  0.63039  0.07542  1.0000
  N   N74       1.0  0.58953  0.6746  0.12994  1.0000
  N   N75       1.0  0.42103  0.36955999999999994  0.07531  1.0000
  N   N76       1.0  0.41046  0.3253699999999999  0.12985999999999998  1.0000
  N   N77       1.0  0.57901  0.36972  0.9246499999999999  1.0000
  N   N78       1.0  0.58967  0.32551  0.87014  1.0000
  N   N79       1.0  0.42094  0.63031  0.9245999999999999  1.0000
  N   N80       1.0  0.41034  0.67453  0.87008  1.0000
  N   N81       1.0  0.63037  0.9245099999999998  0.42101  1.0000
  N   N82       1.0  0.67456  0.86996  0.41042  1.0000
  N   N83       1.0  0.37003  0.9246199999999999  0.5792  1.0000
  N   N84       1.0  0.32574  0.8701099999999999  0.58959  1.0000
  N   N85       1.0  0.36982  0.07542  0.4210499999999999  1.0000
  N   N86       1.0  0.32557  0.12992999999999996  0.41046  1.0000
  N   N87       1.0  0.63067  0.07544999999999998  0.57899  1.0000
  N   N88       1.0  0.67489  0.12995  0.58968  1.0000
  N   N89       1.0  0.9245600000000002  0.5788299999999998  0.3696599999999999  1.0000
  N   N90       1.0  0.8701200000000001  0.5894699999999999  0.32536  1.0000
  N   N91       1.0  0.92474  0.42105  0.63043  1.0000
  N   N92       1.0  0.87031  0.41057  0.67476  1.0000
  N   N93       1.0  0.07533  0.57892  0.6304199999999999  1.0000
  N   N94       1.0  0.12973  0.5895899999999998  0.67473  1.0000
  N   N95       1.0  0.07532  0.42088999999999993  0.36965  1.0000
  N   N96       1.0  0.12976  0.41037  0.3253399999999999  1.0000
