data_image0
_chemical_formula_structural       Mn7H42C112O42
_chemical_formula_sum              "Mn7 H42 C112 O42"
_cell_length_a       14.18595
_cell_length_b       14.50731
_cell_length_c       17.41016
_cell_angle_alpha    99.68681
_cell_angle_beta     93.51518
_cell_angle_gamma    117.31164999999999

_space_group_name_H-M_alt    "P 1"
_space_group_IT_number       1

loop_
  _space_group_symop_operation_xyz
  'x, y, z'

loop_
  _atom_site_type_symbol
  _atom_site_label
  _atom_site_symmetry_multiplicity
  _atom_site_fract_x
  _atom_site_fract_y
  _atom_site_fract_z
  _atom_site_occupancy
  Mn  Mn1       1.0  0.95704  0.011939999999999996  0.21154  1.0000
  Mn  Mn2       1.0  0.75949  0.75842  0.25986  1.0000
  Mn  Mn3       1.0  0.52697  0.56096  0.28269  1.0000
  Mn  Mn4       1.0  0.043050000000000005  0.98811  0.78853  1.0000
  Mn  Mn5       1.0  0.24053  0.24159  0.74012  1.0000
  Mn  Mn6       1.0  0.47304  0.43905  0.71731  1.0000
  Mn  Mn7       1.0  0.9999999999999999  0.9999799999999999  0.00010000000000000003  1.0000
  H   H1        1.0  0.15697000000000005  0.7291700000000001  0.98707  1.0000
  H   H2        1.0  0.014390000000000009  0.31969  0.19115000000000004  1.0000
  H   H3        1.0  0.07151000000000003  0.8365  0.04432  1.0000
  H   H4        1.0  0.72359  0.8416499999999999  0.54806  1.0000
  H   H5        1.0  0.5638300000000003  0.23444000000000007  0.5601800000000002  1.0000
  H   H6        1.0  0.73297  0.37131  0.53163  1.0000
  H   H7        1.0  0.25347000000000003  0.44688000000000005  0.9914700000000001  1.0000
  H   H8        1.0  0.45886000000000005  0.93902  0.81527  1.0000
  H   H9        1.0  0.22168  0.27835  0.03443  1.0000
  H   H10       1.0  0.83462  0.8608000000000001  0.43918  1.0000
  H   H11       1.0  0.4933100000000001  0.9417  0.69952  1.0000
  H   H12       1.0  0.92511  0.61319  0.19152000000000002  1.0000
  H   H13       1.0  0.79277  0.12748  0.40161  1.0000
  H   H14       1.0  0.66368  0.68184  0.0479  1.0000
  H   H15       1.0  0.65001  0.77858  0.94282  1.0000
  H   H16       1.0  0.25339000000000006  0.9193599999999998  0.03862  1.0000
  H   H17       1.0  0.31593000000000004  0.9976000000000002  0.81335  1.0000
  H   H18       1.0  0.93639  0.63867  0.3773100000000001  1.0000
  H   H19       1.0  0.40819999999999995  0.060279999999999986  0.73217  1.0000
  H   H20       1.0  0.40131  0.70869  0.14143000000000003  1.0000
  H   H21       1.0  0.63687  0.43772000000000005  0.44893  1.0000
  H   H22       1.0  0.84305  0.27082  0.01291  1.0000
  H   H23       1.0  0.9856399999999998  0.68033  0.80888  1.0000
  H   H24       1.0  0.92853  0.16350000000000003  0.9556500000000001  1.0000
  H   H25       1.0  0.2764  0.15835  0.45195  1.0000
  H   H26       1.0  0.43617  0.76556  0.43981  1.0000
  H   H27       1.0  0.26703  0.62869  0.46837  1.0000
  H   H28       1.0  0.7464800000000001  0.55309  0.00851  1.0000
  H   H29       1.0  0.54109  0.061  0.18474  1.0000
  H   H30       1.0  0.77834  0.72165  0.9655900000000001  1.0000
  H   H31       1.0  0.16537  0.1392  0.56083  1.0000
  H   H32       1.0  0.50668  0.0583  0.30049  1.0000
  H   H33       1.0  0.07491  0.38684  0.80847  1.0000
  H   H34       1.0  0.20722999999999991  0.87252  0.5984  1.0000
  H   H35       1.0  0.33633  0.31816  0.95208  1.0000
  H   H36       1.0  0.35  0.22142  0.05717000000000001  1.0000
  H   H37       1.0  0.74664  0.08062000000000005  0.9614300000000001  1.0000
  H   H38       1.0  0.68402  0.002400000000000003  0.1867  1.0000
  H   H39       1.0  0.06361  0.36133000000000004  0.62269  1.0000
  H   H40       1.0  0.59179  0.9397199999999999  0.26783  1.0000
  H   H41       1.0  0.5987100000000001  0.29131  0.8585700000000003  1.0000
  H   H42       1.0  0.36314  0.56229  0.55107  1.0000
  C   C1        1.0  0.08059  0.43752  0.12155  1.0000
  C   C2        1.0  0.03322000000000001  0.58656  0.12114  1.0000
  C   C3        1.0  0.09950000000000002  0.62024  0.06339  1.0000
  C   C4        1.0  0.50823  0.84968  0.92106  1.0000
  C   C5        1.0  0.69552  0.9715  0.53434  1.0000
  C   C6        1.0  0.10907  0.70761  0.03378  1.0000
  C   C7        1.0  0.06724000000000002  0.34682  0.14784  1.0000
  C   C8        1.0  0.45309  0.78287  0.043970000000000016  1.0000
  C   C9        1.0  0.36804000000000003  0.88133  0.98651  1.0000
  C   C10       1.0  0.99382  0.7325800000000001  0.12215000000000001  1.0000
  C   C11       1.0  0.66426  0.12281  0.50999  1.0000
  C   C12       1.0  0.59653  0.10655999999999997  0.57373  1.0000
  C   C13       1.0  0.05967000000000001  0.76563  0.06464  1.0000
  C   C14       1.0  0.48173  0.15504000000000004  0.64936  1.0000
  C   C15       1.0  0.74064  0.90396  0.5156000000000002  1.0000
  C   C16       1.0  0.71544  0.05341000000000003  0.49379000000000006  1.0000
  C   C17       1.0  0.54922  0.17203  0.59207  1.0000
  C   C18       1.0  0.77593  0.43041  0.49809  1.0000
  C   C19       1.0  0.018969999999999963  0.4922  0.15215  1.0000
  C   C20       1.0  0.62269  0.95096  0.59453  1.0000
  C   C21       1.0  0.09282  0.18504  0.1346  1.0000
  C   C22       1.0  0.42649  0.88717  0.92321  1.0000
  C   C23       1.0  0.20229000000000005  0.41774000000000017  0.03535000000000001  1.0000
  C   C24       1.0  0.40982  0.93189  0.8617500000000001  1.0000
  C   C25       1.0  0.14836  0.47303  0.06494  1.0000
  C   C26       1.0  0.57644  0.024059999999999998  0.61382  1.0000
  C   C27       1.0  0.81989  0.99486  0.4131700000000001  1.0000
  C   C28       1.0  0.11778  0.28955  0.11572  1.0000
  C   C29       1.0  0.42979  0.22298  0.66958  1.0000
  C   C30       1.0  0.18536  0.32568  0.05952  1.0000
  C   C31       1.0  0.9437  0.54082  0.45499  1.0000
  C   C32       1.0  0.80201  0.91498  0.4552600000000001  1.0000
  C   C33       1.0  0.5085500000000001  0.007300000000000018  0.67098  1.0000
  C   C34       1.0  0.06004000000000008  0.5780600000000001  0.45272  1.0000
  C   C35       1.0  0.53092  0.62251  0.15637000000000006  1.0000
  C   C36       1.0  0.97814  0.6414000000000001  0.14857  1.0000
  C   C37       1.0  0.51964  0.79777  0.9853  1.0000
  C   C38       1.0  0.78044  0.54365  0.40886  1.0000
  C   C39       1.0  0.8751199999999999  0.9996399999999999  0.34305000000000013  1.0000
  C   C40       1.0  0.77888  0.06537000000000003  0.4337800000000001  1.0000
  C   C41       1.0  0.5289999999999999  0.6837499999999999  0.09727  1.0000
  C   C42       1.0  0.60293  0.70755  0.043760000000000014  1.0000
  C   C43       1.0  0.72235  0.58144  0.35898000000000013  1.0000
  C   C44       1.0  0.38242000000000004  0.8330500000000001  0.05189  1.0000
  C   C45       1.0  0.5963400000000001  0.76188  0.9867300000000001  1.0000
  C   C46       1.0  0.16096  0.56623  0.0334  1.0000
  C   C47       1.0  0.88625  0.46586  0.49952  1.0000
  C   C48       1.0  0.29422  0.92025  0.9877500000000001  1.0000
  C   C49       1.0  0.3325999999999999  0.96558  0.86147  1.0000
  C   C50       1.0  0.8907799999999999  0.5806899999999999  0.41097  1.0000
  C   C51       1.0  0.46156  0.07215000000000002  0.68847  1.0000
  C   C52       1.0  0.94053  0.79515  0.15475  1.0000
  C   C53       1.0  0.45549000000000006  0.7228100000000001  0.09805  1.0000
  C   C54       1.0  0.723  0.46743  0.45221  1.0000
  C   C55       1.0  0.27337000000000006  0.9588900000000001  0.9240900000000001  1.0000
  C   C56       1.0  0.1861  0.98915  0.91982  1.0000
  C   C57       1.0  0.91941  0.5624900000000002  0.8784500000000002  1.0000
  C   C58       1.0  0.9667900000000001  0.41345  0.87886  1.0000
  C   C59       1.0  0.90051  0.37975  0.9366000000000002  1.0000
  C   C60       1.0  0.49177  0.15032  0.07894000000000002  1.0000
  C   C61       1.0  0.30447  0.028500000000000008  0.46567  1.0000
  C   C62       1.0  0.89095  0.29238  0.96621  1.0000
  C   C63       1.0  0.93278  0.65321  0.85219  1.0000
  C   C64       1.0  0.5469300000000001  0.21713000000000002  0.9560200000000001  1.0000
  C   C65       1.0  0.63197  0.11866  0.013500000000000003  1.0000
  C   C66       1.0  0.0062200000000000285  0.26744000000000007  0.8778300000000002  1.0000
  C   C67       1.0  0.33573000000000003  0.87719  0.49001  1.0000
  C   C68       1.0  0.40346  0.89344  0.42627  1.0000
  C   C69       1.0  0.9403599999999999  0.23437  0.9353400000000002  1.0000
  C   C70       1.0  0.51826  0.8449700000000001  0.3506400000000001  1.0000
  C   C71       1.0  0.25935  0.09604  0.48441  1.0000
  C   C72       1.0  0.28455000000000014  0.9465900000000002  0.5062200000000002  1.0000
  C   C73       1.0  0.45078  0.82798  0.4079300000000001  1.0000
  C   C74       1.0  0.22408000000000003  0.5696  0.5019100000000002  1.0000
  C   C75       1.0  0.98103  0.50781  0.84785  1.0000
  C   C76       1.0  0.37731  0.04903  0.40547  1.0000
  C   C77       1.0  0.90718  0.81501  0.86553  1.0000
  C   C78       1.0  0.57351  0.11283  0.0768  1.0000
  C   C79       1.0  0.79769  0.58223  0.9646500000000001  1.0000
  C   C80       1.0  0.5901500000000002  0.06811  0.13827  1.0000
  C   C81       1.0  0.85164  0.52696  0.93506  1.0000
  C   C82       1.0  0.4235499999999999  0.9759399999999999  0.38618  1.0000
  C   C83       1.0  0.18010000000000004  0.005130000000000036  0.5868400000000003  1.0000
  C   C84       1.0  0.88223  0.71046  0.88432  1.0000
  C   C85       1.0  0.5702100000000001  0.77703  0.33041  1.0000
  C   C86       1.0  0.81464  0.6742999999999999  0.9405100000000001  1.0000
  C   C87       1.0  0.05631000000000001  0.45918  0.54501  1.0000
  C   C88       1.0  0.19798  0.08501000000000003  0.5447500000000002  1.0000
  C   C89       1.0  0.49144  0.9927  0.32902  1.0000
  C   C90       1.0  0.93996  0.42195  0.54728  1.0000
  C   C91       1.0  0.46909000000000006  0.3774800000000001  0.8436200000000003  1.0000
  C   C92       1.0  0.021880000000000045  0.35862  0.85143  1.0000
  C   C93       1.0  0.48037  0.20222999999999997  0.014690000000000003  1.0000
  C   C94       1.0  0.21957000000000002  0.45636  0.59114  1.0000
  C   C95       1.0  0.12487999999999999  0.00035999999999997893  0.65698  1.0000
  C   C96       1.0  0.2211200000000002  0.9346200000000002  0.5662300000000002  1.0000
  C   C97       1.0  0.47101  0.31624  0.90272  1.0000
  C   C98       1.0  0.39708999999999994  0.29245  0.95623  1.0000
  C   C99       1.0  0.27765  0.41856  0.64101  1.0000
  C   C100      1.0  0.6176  0.16693000000000002  0.9481200000000001  1.0000
  C   C101      1.0  0.40368000000000004  0.23812  0.01326  1.0000
  C   C102      1.0  0.8390500000000001  0.43375  0.96659  1.0000
  C   C103      1.0  0.11375000000000002  0.53414  0.50047  1.0000
  C   C104      1.0  0.7057900000000001  0.07973  0.01229  1.0000
  C   C105      1.0  0.6673700000000001  0.03441000000000002  0.13856000000000004  1.0000
  C   C106      1.0  0.10922  0.41931  0.58903  1.0000
  C   C107      1.0  0.53843  0.92785  0.31153  1.0000
  C   C108      1.0  0.059520000000000024  0.20489000000000004  0.8452400000000002  1.0000
  C   C109      1.0  0.54453  0.27719  0.90195  1.0000
  C   C110      1.0  0.277  0.53258  0.54779  1.0000
  C   C111      1.0  0.72661  0.0411  0.07596  1.0000
  C   C112      1.0  0.8139  0.010869999999999996  0.08029  1.0000
  O   O1        1.0  0.88087  0.91586  0.30772  1.0000
  O   O2        1.0  0.61949  0.52116  0.341  1.0000
  O   O3        1.0  0.9578900000000001  0.45913999999999994  0.20025  1.0000
  O   O4        1.0  0.11012999999999999  0.12045999999999998  0.08469  1.0000
  O   O5        1.0  0.35572  0.19276999999999997  0.71221  1.0000
  O   O6        1.0  0.8516  0.7447  0.17885  1.0000
  O   O7        1.0  0.5628  0.85959  0.8674  1.0000
  O   O8        1.0  0.59981  0.87465  0.62592  1.0000
  O   O9        1.0  0.4637800000000001  0.30951  0.64439  1.0000
  O   O10       1.0  0.33877999999999997  0.83505  0.11093000000000003  1.0000
  O   O11       1.0  0.22083  0.59787  0.98406  1.0000
  O   O12       1.0  0.05252999999999999  0.16299  0.19669  1.0000
  O   O13       1.0  0.67478  0.18888999999999997  0.47028  1.0000
  O   O14       1.0  0.7747300000000001  0.6681700000000002  0.33696  1.0000
  O   O15       1.0  0.10985000000000004  0.64234  0.41278  1.0000
  O   O16       1.0  0.91485  0.08256  0.3156  1.0000
  O   O17       1.0  0.9876599999999999  0.8947799999999999  0.15535000000000004  1.0000
  O   O18       1.0  0.44603  0.57255  0.18636  1.0000
  O   O19       1.0  0.61865  0.62258  0.18187  1.0000
  O   O20       1.0  0.18042  0.03571000000000002  0.86492  1.0000
  O   O21       1.0  0.1204000000000001  0.9636000000000001  0.9692800000000001  1.0000
  O   O22       1.0  0.11915000000000002  0.08415000000000004  0.69229  1.0000
  O   O23       1.0  0.38052  0.47885  0.65899  1.0000
  O   O24       1.0  0.0421  0.54086  0.79974  1.0000
  O   O25       1.0  0.88987  0.87952  0.91553  1.0000
  O   O26       1.0  0.6442800000000001  0.80724  0.28779  1.0000
  O   O27       1.0  0.14844  0.25533  0.82112  1.0000
  O   O28       1.0  0.4372  0.14043  0.13259  1.0000
  O   O29       1.0  0.40019  0.12534  0.3740900000000001  1.0000
  O   O30       1.0  0.53622  0.6904999999999999  0.35561  1.0000
  O   O31       1.0  0.66122  0.16491000000000003  0.88908  1.0000
  O   O32       1.0  0.7791800000000001  0.4021  0.01594  1.0000
  O   O33       1.0  0.94743  0.83713  0.80343  1.0000
  O   O34       1.0  0.32521  0.81111  0.52972  1.0000
  O   O35       1.0  0.22527  0.33184  0.66304  1.0000
  O   O36       1.0  0.89016  0.35767  0.5872100000000002  1.0000
  O   O37       1.0  0.08518999999999997  0.9174599999999999  0.68446  1.0000
  O   O38       1.0  0.012400000000000008  0.10526000000000005  0.84464  1.0000
  O   O39       1.0  0.55398  0.42745  0.8136300000000002  1.0000
  O   O40       1.0  0.3813599999999999  0.37740999999999997  0.81813  1.0000
  O   O41       1.0  0.81961  0.9643899999999999  0.13525  1.0000
  O   O42       1.0  0.87959  0.03638  0.030810000000000004  1.0000
