data_image0
_chemical_formula_structural       Mn12H36C84N12O48
_chemical_formula_sum              "Mn12 H36 C84 N12 O48"
_cell_length_a       11.25061
_cell_length_b       13.88435
_cell_length_c       28.14728
_cell_angle_alpha    100.25572
_cell_angle_beta     90.02353
_cell_angle_gamma    89.99037000000001

_space_group_name_H-M_alt    "P 1"
_space_group_IT_number       1

loop_
  _space_group_symop_operation_xyz
  'x, y, z'

loop_
  _atom_site_type_symbol
  _atom_site_label
  _atom_site_symmetry_multiplicity
  _atom_site_fract_x
  _atom_site_fract_y
  _atom_site_fract_z
  _atom_site_occupancy
  Mn  Mn1       1.0  0.45561  0.03352000000000001  0.32718  1.0000
  Mn  Mn2       1.0  0.18432  0.88016  0.35544999999999993  1.0000
  Mn  Mn3       1.0  0.20826000000000003  0.30592  0.14443  1.0000
  Mn  Mn4       1.0  0.95574  0.46578999999999987  0.17255  1.0000
  Mn  Mn5       1.0  0.68383  0.61989  0.14395  1.0000
  Mn  Mn6       1.0  0.70662  0.1937699999999999  0.3556999999999999  1.0000
  Mn  Mn7       1.0  0.54438  0.9664699999999999  0.67282  1.0000
  Mn  Mn8       1.0  0.81567  0.11982999999999991  0.6445499999999997  1.0000
  Mn  Mn9       1.0  0.7917300000000002  0.69407  0.85557  1.0000
  Mn  Mn10      1.0  0.04425  0.5342  0.8274499999999998  1.0000
  Mn  Mn11      1.0  0.31616  0.3800999999999999  0.8560499999999998  1.0000
  Mn  Mn12      1.0  0.29337  0.80622  0.6443  1.0000
  H   H1        1.0  0.20206  0.6863199999999998  0.23186999999999997  1.0000
  H   H2        1.0  0.9529999999999998  0.13657  0.38407  1.0000
  H   H3        1.0  0.33147  0.82403  0.49019  1.0000
  H   H4        1.0  0.44176  0.54052  0.12399999999999997  1.0000
  H   H5        1.0  0.54426  0.8070799999999998  0.20683  1.0000
  H   H6        1.0  0.20184  0.19195  0.27611  1.0000
  H   H7        1.0  0.8464499999999999  0.30999  0.28552  1.0000
  H   H8        1.0  0.67055  0.8650999999999998  0.56222  1.0000
  H   H9        1.0  0.63727  0.93608  0.42589  1.0000
  H   H10       1.0  0.70065  0.81351  0.26825  1.0000
  H   H11       1.0  0.4523  0.36258  0.11558999999999998  1.0000
  H   H12       1.0  0.831  0.67594  0.01023  1.0000
  H   H13       1.0  0.9416200000000001  0.9591699999999999  0.37581  1.0000
  H   H14       1.0  0.04399  0.6933  0.29232  1.0000
  H   H15       1.0  0.70173  0.309  0.22375  1.0000
  H   H16       1.0  0.3478  0.18786999999999995  0.21388  1.0000
  H   H17       1.0  0.16856  0.6354399999999999  0.9370499999999999  1.0000
  H   H18       1.0  0.13896  0.56404  0.07337  1.0000
  H   H19       1.0  0.79794  0.3136699999999999  0.76813  1.0000
  H   H20       1.0  0.04699  0.8634199999999997  0.61593  1.0000
  H   H21       1.0  0.66852  0.17597  0.50981  1.0000
  H   H22       1.0  0.55823  0.45946999999999993  0.8759999999999999  1.0000
  H   H23       1.0  0.4557300000000001  0.19292  0.79316  1.0000
  H   H24       1.0  0.79815  0.80804  0.72389  1.0000
  H   H25       1.0  0.15353999999999998  0.6899999999999998  0.7144799999999999  1.0000
  H   H26       1.0  0.32944  0.13489  0.43778  1.0000
  H   H27       1.0  0.36271999999999993  0.06391000000000001  0.57411  1.0000
  H   H28       1.0  0.29934  0.18647999999999998  0.73174  1.0000
  H   H29       1.0  0.54769  0.63741  0.8844099999999999  1.0000
  H   H30       1.0  0.16899  0.32404999999999995  0.9897699999999999  1.0000
  H   H31       1.0  0.05838  0.040819999999999974  0.62419  1.0000
  H   H32       1.0  0.9559999999999998  0.30669999999999986  0.7076799999999998  1.0000
  H   H33       1.0  0.29827  0.69099  0.7762499999999998  1.0000
  H   H34       1.0  0.65219  0.81212  0.78611  1.0000
  H   H35       1.0  0.83143  0.36455  0.06294999999999999  1.0000
  H   H36       1.0  0.8610299999999999  0.43594999999999995  0.92663  1.0000
  C   C1        1.0  0.08879  0.15755  0.33262  1.0000
  C   C2        1.0  0.31022  0.60424  0.17579999999999996  1.0000
  C   C3        1.0  0.36856  0.75902  0.22323  1.0000
  C   C4        1.0  0.47561  0.88009  0.4521399999999999  1.0000
  C   C5        1.0  0.28526  0.68383  0.21209  1.0000
  C   C6        1.0  0.17686  0.08908999999999999  0.34875  1.0000
  C   C7        1.0  0.9765400000000001  0.17140999999999995  0.3536999999999999  1.0000
  C   C8        1.0  0.42466  0.84484  0.49091  1.0000
  C   C9        1.0  0.40274000000000004  0.89267  0.40936999999999996  1.0000
  C   C10       1.0  0.41905000000000003  0.6022  0.15193  1.0000
  C   C11       1.0  0.43827  0.81439  0.5752  1.0000
  C   C12       1.0  0.02757  0.25822  0.27547  1.0000
  C   C13       1.0  0.47665  0.7505999999999998  0.19813999999999996  1.0000
  C   C14       1.0  0.34239  0.8437899999999999  0.2632  1.0000
  C   C15       1.0  0.11492  0.20240999999999992  0.2931599999999999  1.0000
  C   C16       1.0  0.9171400000000001  0.2682699999999999  0.29870999999999986  1.0000
  C   C17       1.0  0.22718  0.51845  0.16635  1.0000
  C   C18       1.0  0.49433  0.8405999999999999  0.53157  1.0000
  C   C19       1.0  0.61439  0.86823  0.53095  1.0000
  C   C20       1.0  0.04857  0.3037699999999998  0.23145999999999994  1.0000
  C   C21       1.0  0.59601  0.907  0.45539  1.0000
  C   C22       1.0  0.58832  0.3426599999999999  0.16721  1.0000
  C   C23       1.0  0.80929  0.89531  0.32416  1.0000
  C   C24       1.0  0.8678699999999999  0.74094  0.27613  1.0000
  C   C25       1.0  0.97642  0.6197199999999997  0.04763999999999999  1.0000
  C   C26       1.0  0.78432  0.81585  0.28773  1.0000
  C   C27       1.0  0.67527  0.41214  0.15124  1.0000
  C   C28       1.0  0.4763  0.32787  0.14595  1.0000
  C   C29       1.0  0.9243  0.65517  0.00916  1.0000
  C   C30       1.0  0.90471  0.60691  0.09063999999999997  1.0000
  C   C31       1.0  0.9186700000000001  0.89771  0.3477399999999999  1.0000
  C   C32       1.0  0.9358599999999999  0.6857399999999998  0.92483  1.0000
  C   C33       1.0  0.52823  0.24105  0.22406  1.0000
  C   C34       1.0  0.97626  0.74964  0.3011  1.0000
  C   C35       1.0  0.84229  0.65574  0.23610999999999993  1.0000
  C   C36       1.0  0.6149  0.29782  0.20663  1.0000
  C   C37       1.0  0.41791999999999996  0.23026  0.20075999999999994  1.0000
  C   C38       1.0  0.7254899999999999  0.98068  0.33377  1.0000
  C   C39       1.0  0.99293  0.6595899999999998  0.9682799999999998  1.0000
  C   C40       1.0  0.11316  0.63209  0.9684699999999999  1.0000
  C   C41       1.0  0.54897  0.19461999999999993  0.26775  1.0000
  C   C42       1.0  0.09696  0.5931599999999999  0.04403  1.0000
  C   C43       1.0  0.9111999999999999  0.8424399999999997  0.66738  1.0000
  C   C44       1.0  0.68977  0.39574999999999994  0.8241999999999998  1.0000
  C   C45       1.0  0.63143  0.24096999999999996  0.77677  1.0000
  C   C46       1.0  0.52439  0.11989999999999998  0.5478499999999998  1.0000
  C   C47       1.0  0.7147299999999999  0.31616  0.78791  1.0000
  C   C48       1.0  0.82313  0.9109  0.65125  1.0000
  C   C49       1.0  0.023450000000000002  0.8285800000000001  0.6463  1.0000
  C   C50       1.0  0.57533  0.15514999999999995  0.50909  1.0000
  C   C51       1.0  0.59725  0.10732  0.59062  1.0000
  C   C52       1.0  0.58094  0.39779  0.84807  1.0000
  C   C53       1.0  0.56172  0.18559999999999993  0.4248  1.0000
  C   C54       1.0  0.97242  0.74177  0.72453  1.0000
  C   C55       1.0  0.52334  0.24938999999999995  0.80185  1.0000
  C   C56       1.0  0.6576  0.15619999999999995  0.7368  1.0000
  C   C57       1.0  0.8850700000000001  0.79758  0.7068399999999998  1.0000
  C   C58       1.0  0.08285  0.73172  0.70128  1.0000
  C   C59       1.0  0.7728100000000001  0.4815399999999999  0.8336499999999998  1.0000
  C   C60       1.0  0.50566  0.15938999999999998  0.4684299999999999  1.0000
  C   C61       1.0  0.38561  0.1317599999999999  0.4690499999999999  1.0000
  C   C62       1.0  0.9514200000000002  0.69622  0.76854  1.0000
  C   C63       1.0  0.40398  0.09299  0.54461  1.0000
  C   C64       1.0  0.41168000000000005  0.65733  0.83279  1.0000
  C   C65       1.0  0.1907  0.1046799999999999  0.6758399999999998  1.0000
  C   C66       1.0  0.13212  0.2590499999999999  0.7238699999999998  1.0000
  C   C67       1.0  0.023569999999999997  0.38026999999999994  0.9523599999999999  1.0000
  C   C68       1.0  0.21568000000000004  0.18414  0.71227  1.0000
  C   C69       1.0  0.32473  0.58786  0.84876  1.0000
  C   C70       1.0  0.5237  0.6721199999999999  0.8540499999999998  1.0000
  C   C71       1.0  0.07569  0.3448199999999999  0.99084  1.0000
  C   C72       1.0  0.09528  0.39307999999999993  0.9093599999999998  1.0000
  C   C73       1.0  0.08132  0.10227999999999991  0.6522599999999998  1.0000
  C   C74       1.0  0.06413  0.3142599999999999  0.07517  1.0000
  C   C75       1.0  0.47176  0.7589399999999997  0.77593  1.0000
  C   C76       1.0  0.02374  0.25035  0.6989  1.0000
  C   C77       1.0  0.1577  0.34424999999999994  0.7638899999999998  1.0000
  C   C78       1.0  0.38509  0.70217  0.79336  1.0000
  C   C79       1.0  0.58207  0.7697299999999998  0.7992399999999998  1.0000
  C   C80       1.0  0.2745  0.019309999999999997  0.66623  1.0000
  C   C81       1.0  0.007069999999999999  0.3404  0.03171  1.0000
  C   C82       1.0  0.8868299999999999  0.3679  0.03152  1.0000
  C   C83       1.0  0.45102  0.8053699999999998  0.73224  1.0000
  C   C84       1.0  0.90303  0.40682999999999986  0.9559599999999998  1.0000
  N   N1        1.0  0.8911499999999999  0.22551999999999994  0.3370599999999999  1.0000
  N   N2        1.0  0.50309  0.67252  0.16335999999999995  1.0000
  N   N3        1.0  0.66573  0.8997299999999998  0.4934099999999999  1.0000
  N   N4        1.0  0.3916299999999999  0.27296  0.16246  1.0000
  N   N5        1.0  0.00291  0.82767  0.3359  1.0000
  N   N6        1.0  0.16568  0.6006599999999997  0.0057799999999999995  1.0000
  N   N7        1.0  0.10883999999999999  0.77447  0.6629399999999999  1.0000
  N   N8        1.0  0.49691  0.32747  0.83663  1.0000
  N   N9        1.0  0.33426  0.10025999999999996  0.50659  1.0000
  N   N10       1.0  0.60836  0.72703  0.83754  1.0000
  N   N11       1.0  0.9970800000000001  0.17232  0.6641  1.0000
  N   N12       1.0  0.8343099999999999  0.39932999999999996  0.9942099999999998  1.0000
  O   O1        1.0  0.13407  0.02323999999999997  0.37098999999999993  1.0000
  O   O2        1.0  0.26145  0.4440799999999999  0.13556  1.0000
  O   O3        1.0  0.48495  0.8430699999999998  0.6169799999999999  1.0000
  O   O4        1.0  0.44802999999999993  0.93712  0.37825999999999993  1.0000
  O   O5        1.0  0.28406  0.09901999999999997  0.33804999999999996  1.0000
  O   O6        1.0  0.97154  0.36325  0.22184  1.0000
  O   O7        1.0  0.3398  0.76702  0.5713699999999999  1.0000
  O   O8        1.0  0.13257  0.5235  0.19074999999999995  1.0000
  O   O9        1.0  0.40591000000000005  0.9192499999999998  0.26685999999999993  1.0000
  O   O10       1.0  0.2541  0.82963  0.29031  1.0000
  O   O11       1.0  0.29652  0.8568599999999998  0.40723  1.0000
  O   O12       1.0  0.14392  0.27628  0.20747  1.0000
  O   O13       1.0  0.63155  0.47697000000000006  0.12862  1.0000
  O   O14       1.0  0.75909  0.05503999999999994  0.3646599999999999  1.0000
  O   O15       1.0  0.98217  0.6570999999999999  0.8829699999999998  1.0000
  O   O16       1.0  0.95087  0.56231  0.12148999999999999  1.0000
  O   O17       1.0  0.78246  0.40450999999999987  0.16245  1.0000
  O   O18       1.0  0.47348  0.13288  0.27614  1.0000
  O   O19       1.0  0.83724  0.7328799999999998  0.9287  1.0000
  O   O20       1.0  0.6307  0.9756099999999998  0.3094  1.0000
  O   O21       1.0  0.90921  0.58211  0.23152999999999996  1.0000
  O   O22       1.0  0.75135  0.6670299999999999  0.20981999999999995  1.0000
  O   O23       1.0  0.79849  0.64288  0.09303  1.0000
  O   O24       1.0  0.64233  0.22364999999999988  0.2927499999999999  1.0000
  O   O25       1.0  0.86592  0.9767499999999999  0.629  1.0000
  O   O26       1.0  0.73854  0.5559099999999999  0.8644299999999998  1.0000
  O   O27       1.0  0.51504  0.15691999999999998  0.3830199999999999  1.0000
  O   O28       1.0  0.55196  0.06286999999999991  0.6217399999999997  1.0000
  O   O29       1.0  0.71593  0.90097  0.66195  1.0000
  O   O30       1.0  0.02845  0.63674  0.7781499999999999  1.0000
  O   O31       1.0  0.6602  0.23297  0.42862999999999996  1.0000
  O   O32       1.0  0.8674199999999999  0.47648999999999997  0.8092499999999998  1.0000
  O   O33       1.0  0.59409  0.08073999999999999  0.73313  1.0000
  O   O34       1.0  0.7459  0.17035999999999987  0.7096799999999998  1.0000
  O   O35       1.0  0.70347  0.14313  0.59277  1.0000
  O   O36       1.0  0.8560800000000001  0.7237099999999997  0.79252  1.0000
  O   O37       1.0  0.36844  0.5230199999999999  0.8713799999999999  1.0000
  O   O38       1.0  0.2409  0.94495  0.6353299999999997  1.0000
  O   O39       1.0  0.01782  0.34288999999999986  0.11701999999999999  1.0000
  O   O40       1.0  0.049120000000000004  0.43767999999999985  0.8784999999999997  1.0000
  O   O41       1.0  0.21753  0.59548  0.8375499999999999  1.0000
  O   O42       1.0  0.52651  0.86711  0.7238499999999999  1.0000
  O   O43       1.0  0.16275  0.26711  0.0713  1.0000
  O   O44       1.0  0.36929  0.024379999999999926  0.6905899999999998  1.0000
  O   O45       1.0  0.09079  0.4178799999999998  0.7684599999999998  1.0000
  O   O46       1.0  0.24864  0.3329599999999999  0.79018  1.0000
  O   O47       1.0  0.20151  0.35710999999999987  0.9069699999999998  1.0000
  O   O48       1.0  0.3576599999999999  0.7763399999999999  0.7072499999999998  1.0000
