data_image0
_chemical_formula_structural       Cu4H72C72N16O16
_chemical_formula_sum              "Cu4 H72 C72 N16 O16"
_cell_length_a       9.01552
_cell_length_b       15.49113
_cell_length_c       16.98433
_cell_angle_alpha    89.99822
_cell_angle_beta     90.00765
_cell_angle_gamma    89.89014

_space_group_name_H-M_alt    "P 1"
_space_group_IT_number       1

loop_
  _space_group_symop_operation_xyz
  'x, y, z'

loop_
  _atom_site_type_symbol
  _atom_site_label
  _atom_site_symmetry_multiplicity
  _atom_site_fract_x
  _atom_site_fract_y
  _atom_site_fract_z
  _atom_site_occupancy
  Cu  Cu1       1.0  0.57137  0.26997  0.78412  1.0000
  Cu  Cu2       1.0  0.06843  0.72993  0.21599  1.0000
  Cu  Cu3       1.0  0.57184  0.7691  0.7134500000000001  1.0000
  Cu  Cu4       1.0  0.07003  0.23091  0.28439  1.0000
  H   H1        1.0  0.26299999999999996  0.6820999999999998  0.6579500000000003  1.0000
  H   H2        1.0  0.40137  0.77375  0.87965  1.0000
  H   H3        1.0  0.11058999999999998  0.71358  0.89274  1.0000
  H   H4        1.0  0.95941  0.6720499999999999  0.6963400000000002  1.0000
  H   H5        1.0  0.9307  0.65676  0.79809  1.0000
  H   H6        1.0  0.07526999999999999  0.53087  0.68157  1.0000
  H   H7        1.0  0.9109599999999999  0.5180999999999998  0.73729  1.0000
  H   H8        1.0  0.07113999999999998  0.51866  0.86249  1.0000
  H   H9        1.0  0.22978  0.52897  0.80258  1.0000
  H   H10       1.0  0.14949  0.38549  0.73499  1.0000
  H   H11       1.0  0.22377999999999998  0.38045  0.83081  1.0000
  H   H12       1.0  0.86061  0.35755  0.71886  1.0000
  H   H13       1.0  0.05664999999999999  0.33453  0.94449  1.0000
  H   H14       1.0  0.77065  0.26151  0.9456800000000001  1.0000
  H   H15       1.0  0.8224699999999999  0.228  0.56925  1.0000
  H   H16       1.0  0.8815999999999998  0.01394  0.41183  1.0000
  H   H17       1.0  0.73157  0.921  0.5013  1.0000
  H   H18       1.0  0.6345799999999999  0.98105  0.62771  1.0000
  H   H19       1.0  0.76144  0.3174  0.34152  1.0000
  H   H20       1.0  0.8976  0.22546  0.11943  1.0000
  H   H21       1.0  0.6071699999999998  0.28682  0.10688  1.0000
  H   H22       1.0  0.45718  0.3285099999999999  0.30344  1.0000
  H   H23       1.0  0.42832  0.34429  0.20174  1.0000
  H   H24       1.0  0.57368  0.46916  0.31859  1.0000
  H   H25       1.0  0.4094  0.4827299999999999  0.26287  1.0000
  H   H26       1.0  0.56988  0.48173  0.13771  1.0000
  H   H27       1.0  0.7283799999999999  0.47122999999999987  0.19781  1.0000
  H   H28       1.0  0.64757  0.6147499999999998  0.26533  1.0000
  H   H29       1.0  0.72167  0.61984  0.16951  1.0000
  H   H30       1.0  0.35815  0.64264  0.28137  1.0000
  H   H31       1.0  0.55437  0.6657  0.05589  1.0000
  H   H32       1.0  0.26766  0.7385399999999999  0.05446000000000001  1.0000
  H   H33       1.0  0.32256  0.77181  0.42977  1.0000
  H   H34       1.0  0.38233  0.98579  0.58716  1.0000
  H   H35       1.0  0.23139  0.07901  0.49810999999999994  1.0000
  H   H36       1.0  0.13279  0.019  0.37212  1.0000
  H   H37       1.0  0.26423999999999986  0.18272999999999995  0.84087  1.0000
  H   H38       1.0  0.3986099999999999  0.27439  0.6185  1.0000
  H   H39       1.0  0.10802  0.21329  0.60668  1.0000
  H   H40       1.0  0.95969  0.17207  0.80342  1.0000
  H   H41       1.0  0.93009  0.15643  0.70178  1.0000
  H   H42       1.0  0.07533  0.03089  0.8183600000000002  1.0000
  H   H43       1.0  0.9110599999999999  0.017969999999999993  0.76259  1.0000
  H   H44       1.0  0.07137  0.018539999999999994  0.63745  1.0000
  H   H45       1.0  0.22992999999999994  0.02884  0.6974500000000002  1.0000
  H   H46       1.0  0.14884  0.88523  0.76494  1.0000
  H   H47       1.0  0.22428999999999996  0.88039  0.6694  1.0000
  H   H48       1.0  0.85944  0.85722  0.7797800000000003  1.0000
  H   H49       1.0  0.058969999999999995  0.83471  0.55502  1.0000
  H   H50       1.0  0.77313  0.76159  0.55241  1.0000
  H   H51       1.0  0.82294  0.72805  0.92915  1.0000
  H   H52       1.0  0.8812699999999998  0.51549  0.08821  1.0000
  H   H53       1.0  0.73282  0.42117  0.9989100000000001  1.0000
  H   H54       1.0  0.63592  0.48042  0.87196  1.0000
  H   H55       1.0  0.76156  0.81763  0.1595  1.0000
  H   H56       1.0  0.89635  0.7260499999999998  0.38193  1.0000
  H   H57       1.0  0.60571  0.78714  0.39381  1.0000
  H   H58       1.0  0.45704  0.82852  0.19684000000000004  1.0000
  H   H59       1.0  0.4275  0.84465  0.29844  1.0000
  H   H60       1.0  0.5732299999999999  0.96929  0.18154  1.0000
  H   H61       1.0  0.40908  0.9830299999999997  0.23728  1.0000
  H   H62       1.0  0.5696999999999998  0.98195  0.36244  1.0000
  H   H63       1.0  0.72807  0.9711  0.30234  1.0000
  H   H64       1.0  0.64835  0.11486  0.2349  1.0000
  H   H65       1.0  0.72255  0.1196  0.33075  1.0000
  H   H66       1.0  0.36016  0.14405  0.21845000000000006  1.0000
  H   H67       1.0  0.55474  0.16557  0.44455  1.0000
  H   H68       1.0  0.26894  0.23953  0.44540000000000013  1.0000
  H   H69       1.0  0.3230899999999999  0.27268  0.07035  1.0000
  H   H70       1.0  0.3839  0.48545  0.9118300000000001  1.0000
  H   H71       1.0  0.23345999999999997  0.5795  0.00037  1.0000
  H   H72       1.0  0.13412  0.52046  0.12663  1.0000
  C   C1        1.0  0.26252999999999993  0.6992  0.71972  1.0000
  C   C2        1.0  0.32876999999999995  0.7459699999999999  0.83579  1.0000
  C   C3        1.0  0.18598  0.7158099999999998  0.8429700000000002  1.0000
  C   C4        1.0  0.00615  0.64251  0.74948  1.0000
  C   C5        1.0  0.024069999999999998  0.5448  0.73898  1.0000
  C   C6        1.0  0.11646  0.50277  0.80415  1.0000
  C   C7        1.0  0.12972  0.40464  0.79634  1.0000
  C   C8        1.0  0.87262  0.34266  0.78072  1.0000
  C   C9        1.0  0.9732899999999999  0.32763  0.89896  1.0000
  C   C10       1.0  0.8331599999999999  0.29258999999999996  0.89924  1.0000
  C   C11       1.0  0.72061  0.10845  0.606  1.0000
  C   C12       1.0  0.80376  0.16042999999999993  0.55512  1.0000
  C   C13       1.0  0.86379  0.12644  0.48577  1.0000
  C   C14       1.0  0.83618  0.0399  0.46621  1.0000
  C   C15       1.0  0.7525899999999999  0.9879999999999998  0.5166000000000001  1.0000
  C   C16       1.0  0.69704  0.0214  0.58708  1.0000
  C   C17       1.0  0.66088  0.14455  0.6818100000000002  1.0000
  C   C18       1.0  0.95338  0.18468  0.43342  1.0000
  C   C19       1.0  0.76027  0.3004  0.27972  1.0000
  C   C20       1.0  0.82542  0.25347  0.16343  1.0000
  C   C21       1.0  0.6827599999999999  0.28419  0.15656  1.0000
  C   C22       1.0  0.50394  0.3580399999999999  0.25037000000000004  1.0000
  C   C23       1.0  0.5224  0.45562  0.26114  1.0000
  C   C24       1.0  0.61496  0.49754  0.19611  1.0000
  C   C25       1.0  0.62779  0.5956499999999998  0.20398  1.0000
  C   C26       1.0  0.37016999999999994  0.65759  0.21953  1.0000
  C   C27       1.0  0.47089  0.67263  0.10135  1.0000
  C   C28       1.0  0.33047  0.70759  0.10095  1.0000
  C   C29       1.0  0.21932999999999997  0.89147  0.39365  1.0000
  C   C30       1.0  0.3037299999999999  0.83938  0.44412  1.0000
  C   C31       1.0  0.3644899999999999  0.87351  0.5132  1.0000
  C   C32       1.0  0.33674  0.96005  0.5328  1.0000
  C   C33       1.0  0.2524499999999999  0.01201  0.48273  1.0000
  C   C34       1.0  0.19591  0.9785999999999998  0.41254000000000013  1.0000
  C   C35       1.0  0.15807  0.85539  0.31816  1.0000
  C   C36       1.0  0.45575999999999994  0.8164  0.5657600000000003  1.0000
  C   C37       1.0  0.26259  0.19976  0.77908  1.0000
  C   C38       1.0  0.3267199999999999  0.24654  0.66264  1.0000
  C   C39       1.0  0.18418  0.21584  0.6560900000000002  1.0000
  C   C40       1.0  0.00603  0.1424  0.75025  1.0000
  C   C41       1.0  0.02415  0.04471  0.76091  1.0000
  C   C42       1.0  0.11660999999999999  0.00264  0.6958100000000003  1.0000
  C   C43       1.0  0.12978  0.9044899999999998  0.70355  1.0000
  C   C44       1.0  0.8724399999999998  0.84233  0.71797  1.0000
  C   C45       1.0  0.97495  0.82767  0.60016  1.0000
  C   C46       1.0  0.8349499999999997  0.79248  0.5992  1.0000
  C   C47       1.0  0.72132  0.60801  0.89318  1.0000
  C   C48       1.0  0.8041499999999998  0.6606  0.9438  1.0000
  C   C49       1.0  0.8636699999999998  0.6271  0.01352  1.0000
  C   C50       1.0  0.83608  0.54068  0.03349  1.0000
  C   C51       1.0  0.75332  0.48815  0.9832800000000002  1.0000
  C   C52       1.0  0.69797  0.52103  0.91256  1.0000
  C   C53       1.0  0.6612599999999997  0.64299  0.81688  1.0000
  C   C54       1.0  0.95325  0.68514  0.06611  1.0000
  C   C55       1.0  0.75991  0.8005  0.22126  1.0000
  C   C56       1.0  0.8242999999999998  0.7538  0.33772  1.0000
  C   C57       1.0  0.68162  0.78458  0.3442800000000001  1.0000
  C   C58       1.0  0.50344  0.85824  0.24992999999999999  1.0000
  C   C59       1.0  0.52202  0.95584  0.23902  1.0000
  C   C60       1.0  0.61483  0.99766  0.30404  1.0000
  C   C61       1.0  0.62848  0.09574  0.29624  1.0000
  C   C62       1.0  0.37189999999999995  0.15879  0.28036  1.0000
  C   C63       1.0  0.4717199999999999  0.1729  0.3988900000000001  1.0000
  C   C64       1.0  0.33171  0.20843999999999993  0.39899  1.0000
  C   C65       1.0  0.22046999999999994  0.39276  0.10593000000000002  1.0000
  C   C66       1.0  0.30457  0.3401899999999999  0.05569  1.0000
  C   C67       1.0  0.36525999999999986  0.37351  0.98623  1.0000
  C   C68       1.0  0.33794  0.46003  0.96624  1.0000
  C   C69       1.0  0.254  0.51253  0.01606  1.0000
  C   C70       1.0  0.1972  0.4797399999999999  0.08645  1.0000
  C   C71       1.0  0.15857  0.35726  0.18162  1.0000
  C   C72       1.0  0.45594  0.31525  0.9340200000000002  1.0000
  N   N1        1.0  0.37457999999999997  0.73549  0.7587500000000003  1.0000
  N   N2        1.0  0.14568  0.68648  0.76888  1.0000
  N   N3        1.0  0.99659  0.35898  0.82355  1.0000
  N   N4        1.0  0.77162  0.30263  0.82518  1.0000
  N   N5        1.0  0.8718199999999998  0.2637099999999999  0.24039  1.0000
  N   N6        1.0  0.64316  0.31361  0.23076  1.0000
  N   N7        1.0  0.49436  0.6413199999999998  0.17679  1.0000
  N   N8        1.0  0.26892  0.69753  0.17499  1.0000
  N   N9        1.0  0.37365  0.23641  0.7395000000000003  1.0000
  N   N10       1.0  0.14523  0.18647  0.73037  1.0000
  N   N11       1.0  0.99702  0.85887  0.6757300000000002  1.0000
  N   N12       1.0  0.77229  0.80224  0.67301  1.0000
  N   N13       1.0  0.87111  0.76379  0.26085  1.0000
  N   N14       1.0  0.64251  0.81386  0.26995000000000013  1.0000
  N   N15       1.0  0.49547  0.14183  0.3234  1.0000
  N   N16       1.0  0.27087999999999995  0.19904  0.32475  1.0000
  O   O1        1.0  0.6660099999999998  0.22891999999999998  0.68636  1.0000
  O   O2        1.0  0.6147599999999999  0.09555999999999998  0.7345900000000001  1.0000
  O   O3        1.0  0.9703499999999999  0.15575999999999995  0.36186  1.0000
  O   O4        1.0  0.00178  0.25476  0.45935  1.0000
  O   O5        1.0  0.16287  0.77102  0.31368  1.0000
  O   O6        1.0  0.11115  0.90446  0.26556  1.0000
  O   O7        1.0  0.4672  0.84425  0.6379  1.0000
  O   O8        1.0  0.51138  0.74816  0.53966  1.0000
  O   O9        1.0  0.6667  0.72719  0.81079  1.0000
  O   O10       1.0  0.61449  0.59306  0.76511  1.0000
  O   O11       1.0  0.96356  0.65775  0.13851000000000005  1.0000
  O   O12       1.0  0.008209999999999999  0.75333  0.03977  1.0000
  O   O13       1.0  0.16271  0.27289  0.1864  1.0000
  O   O14       1.0  0.11165  0.40664999999999996  0.23395000000000005  1.0000
  O   O15       1.0  0.46684  0.3422999999999999  0.86159  1.0000
  O   O16       1.0  0.51109  0.24702  0.9604900000000001  1.0000
