data_image0
_chemical_formula_structural       Cd8H56C96N16O32
_chemical_formula_sum              "Cd8 H56 C96 N16 O32"
_cell_length_a       13.33854
_cell_length_b       13.41451
_cell_length_c       26.73932
_cell_angle_alpha    90.0
_cell_angle_beta     90.0018
_cell_angle_gamma    90.0

_symmetry_space_group_name_H-M    'P 1'
_symmetry_Int_Tables_number       1

loop_
  _symmetry_equiv_pos_as_xyz
  'x,y,z'

loop_
  _atom_site_type_symbol
  _atom_site_label
  _atom_site_symmetry_multiplicity
  _atom_site_fract_x
  _atom_site_fract_y
  _atom_site_fract_z
  _atom_site_occupancy
  Cd  Cd1       1.0  0.81411  0.81027  0.82344  1.0000
  Cd  Cd2       1.0  0.18590999999999994  0.68973  0.32344999999999996  1.0000
  Cd  Cd3       1.0  0.31409  0.18973  0.67655  1.0000
  Cd  Cd4       1.0  0.6858999999999998  0.31027  0.17656  1.0000
  Cd  Cd5       1.0  0.18589999999999998  0.18973  0.17656  1.0000
  Cd  Cd6       1.0  0.8141  0.31027  0.67655  1.0000
  Cd  Cd7       1.0  0.68591  0.8102599999999999  0.32344999999999996  1.0000
  Cd  Cd8       1.0  0.31411  0.68973  0.82344  1.0000
  H   H1        1.0  0.81632  0.99715  0.75128  1.0000
  H   H2        1.0  0.047409999999999994  0.80422  0.7902  1.0000
  H   H3        1.0  0.67255  0.09275999999999998  0.7546  1.0000
  H   H4        1.0  0.78279  0.99572  0.8949  1.0000
  H   H5        1.0  0.8622799999999998  0.08784000000000002  0.96453  1.0000
  H   H6        1.0  0.07149  0.84219  0.97823  1.0000
  H   H7        1.0  0.98446  0.7629999999999999  0.90648  1.0000
  H   H8        1.0  0.1837  0.50285  0.25128  1.0000
  H   H9        1.0  0.95261  0.69578  0.2902  1.0000
  H   H10       1.0  0.32745  0.40724  0.25459  1.0000
  H   H11       1.0  0.21722  0.50428  0.3949  1.0000
  H   H12       1.0  0.13772999999999996  0.41215  0.46453  1.0000
  H   H13       1.0  0.9285199999999998  0.65781  0.47822  1.0000
  H   H14       1.0  0.01555  0.7370000000000001  0.40648  1.0000
  H   H15       1.0  0.31631  0.00285  0.74872  1.0000
  H   H16       1.0  0.5473999999999999  0.19578000000000004  0.7098  1.0000
  H   H17       1.0  0.17256  0.90724  0.74541  1.0000
  H   H18       1.0  0.2827799999999999  0.00428  0.6051  1.0000
  H   H19       1.0  0.36228  0.91215  0.53547  1.0000
  H   H20       1.0  0.57149  0.15781  0.52178  1.0000
  H   H21       1.0  0.48445  0.237  0.59352  1.0000
  H   H22       1.0  0.68369  0.49715  0.24872  1.0000
  H   H23       1.0  0.4526  0.30422  0.2098  1.0000
  H   H24       1.0  0.82745  0.59277  0.24541  1.0000
  H   H25       1.0  0.71722  0.49572  0.1051  1.0000
  H   H26       1.0  0.63773  0.58784  0.03547  1.0000
  H   H27       1.0  0.42852  0.34219  0.02178  1.0000
  H   H28       1.0  0.51555  0.263  0.09352  1.0000
  H   H29       1.0  0.18368999999999996  0.00285  0.24872  1.0000
  H   H30       1.0  0.9525999999999998  0.19578000000000004  0.2098  1.0000
  H   H31       1.0  0.32745  0.9072300000000001  0.24541  1.0000
  H   H32       1.0  0.21722  0.00428  0.1051  1.0000
  H   H33       1.0  0.13772999999999996  0.91216  0.03547  1.0000
  H   H34       1.0  0.9285199999999998  0.15781  0.02178  1.0000
  H   H35       1.0  0.01555  0.237  0.09352  1.0000
  H   H36       1.0  0.81631  0.49715  0.74872  1.0000
  H   H37       1.0  0.0474  0.30422  0.7098  1.0000
  H   H38       1.0  0.6725599999999998  0.59276  0.74541  1.0000
  H   H39       1.0  0.78279  0.49572  0.6051  1.0000
  H   H40       1.0  0.8622799999999998  0.58785  0.53547  1.0000
  H   H41       1.0  0.07148  0.34219  0.52178  1.0000
  H   H42       1.0  0.9844499999999998  0.263  0.59352  1.0000
  H   H43       1.0  0.6836999999999998  0.99715  0.25128  1.0000
  H   H44       1.0  0.45261  0.80421  0.2902  1.0000
  H   H45       1.0  0.82745  0.09275999999999998  0.25459  1.0000
  H   H46       1.0  0.71722  0.99572  0.3949  1.0000
  H   H47       1.0  0.63773  0.08785  0.46453  1.0000
  H   H48       1.0  0.42852  0.84219  0.47822  1.0000
  H   H49       1.0  0.51555  0.7629999999999999  0.40648  1.0000
  H   H50       1.0  0.3163199999999999  0.50285  0.75128  1.0000
  H   H51       1.0  0.54741  0.69578  0.7902  1.0000
  H   H52       1.0  0.17255  0.40724  0.7546  1.0000
  H   H53       1.0  0.28279  0.50428  0.8949  1.0000
  H   H54       1.0  0.36228  0.41216  0.96453  1.0000
  H   H55       1.0  0.57149  0.65781  0.97823  1.0000
  H   H56       1.0  0.48446  0.7370000000000001  0.90648  1.0000
  C   C1        1.0  0.64211  0.91717  0.80165  1.0000
  C   C2        1.0  0.56263  0.98213  0.77859  1.0000
  C   C3        1.0  0.45991  0.95835  0.7776900000000001  1.0000
  C   C4        1.0  0.41726999999999986  0.86876  0.80378  1.0000
  C   C5        1.0  0.8956899999999999  0.9792400000000001  0.74918  1.0000
  C   C6        1.0  0.02494  0.87234  0.7710800000000001  1.0000
  C   C7        1.0  0.59424  0.06957  0.75446  1.0000
  C   C8        1.0  0.8471  0.9651  0.91467  1.0000
  C   C9        1.0  0.8925  0.01563  0.95399  1.0000
  C   C10       1.0  0.97513  0.97385  0.9789  1.0000
  C   C11       1.0  0.008  0.88039  0.96145  1.0000
  C   C12       1.0  0.9595699999999999  0.83433  0.92153  1.0000
  C   C13       1.0  0.3579  0.58283  0.30166  1.0000
  C   C14       1.0  0.43736999999999987  0.51787  0.2786  1.0000
  C   C15       1.0  0.5401  0.54165  0.27769  1.0000
  C   C16       1.0  0.58274  0.63124  0.30378  1.0000
  C   C17       1.0  0.10431999999999998  0.52076  0.24919  1.0000
  C   C18       1.0  0.97508  0.62765  0.27109  1.0000
  C   C19       1.0  0.40575999999999995  0.43043  0.25447  1.0000
  C   C20       1.0  0.15291  0.5349  0.41467  1.0000
  C   C21       1.0  0.10750999999999998  0.48437  0.45399  1.0000
  C   C22       1.0  0.02488  0.52615  0.4789  1.0000
  C   C23       1.0  0.9920099999999997  0.61961  0.46145  1.0000
  C   C24       1.0  0.040449999999999986  0.66567  0.42153  1.0000
  C   C25       1.0  0.14211  0.08283  0.69835  1.0000
  C   C26       1.0  0.06263  0.01787  0.72141  1.0000
  C   C27       1.0  0.9599099999999998  0.04165  0.72231  1.0000
  C   C28       1.0  0.91727  0.13124  0.69623  1.0000
  C   C29       1.0  0.3956799999999999  0.02076  0.75081  1.0000
  C   C30       1.0  0.52493  0.12765  0.72892  1.0000
  C   C31       1.0  0.09425  0.93043  0.74554  1.0000
  C   C32       1.0  0.34709  0.0349  0.58533  1.0000
  C   C33       1.0  0.3924999999999999  0.98436  0.54601  1.0000
  C   C34       1.0  0.47513  0.02615  0.5211  1.0000
  C   C35       1.0  0.50799  0.11961  0.53855  1.0000
  C   C36       1.0  0.45955999999999997  0.16567  0.57847  1.0000
  C   C37       1.0  0.8579  0.41717  0.19835  1.0000
  C   C38       1.0  0.93738  0.48213  0.22141  1.0000
  C   C39       1.0  0.04009999999999999  0.45835  0.22232  1.0000
  C   C40       1.0  0.08273999999999997  0.3687599999999999  0.19622  1.0000
  C   C41       1.0  0.60432  0.47924  0.25082  1.0000
  C   C42       1.0  0.47507  0.37235  0.22892  1.0000
  C   C43       1.0  0.9057599999999998  0.56957  0.24554  1.0000
  C   C44       1.0  0.65291  0.46509999999999996  0.08533  1.0000
  C   C45       1.0  0.60751  0.51563  0.04601  1.0000
  C   C46       1.0  0.52488  0.47385  0.0211  1.0000
  C   C47       1.0  0.4920099999999999  0.38039  0.03855  1.0000
  C   C48       1.0  0.54044  0.33433  0.07847  1.0000
  C   C49       1.0  0.3579  0.08283  0.19835  1.0000
  C   C50       1.0  0.43737999999999994  0.01787  0.22141  1.0000
  C   C51       1.0  0.5401  0.04165  0.22232  1.0000
  C   C52       1.0  0.58274  0.13124  0.19622  1.0000
  C   C53       1.0  0.10431999999999998  0.02076  0.25082  1.0000
  C   C54       1.0  0.97507  0.12765  0.22892  1.0000
  C   C55       1.0  0.40575999999999995  0.93043  0.24554  1.0000
  C   C56       1.0  0.15291  0.0349  0.08533  1.0000
  C   C57       1.0  0.10750999999999998  0.98437  0.04601  1.0000
  C   C58       1.0  0.02488  0.02615  0.0211  1.0000
  C   C59       1.0  0.9920099999999997  0.11961  0.03855  1.0000
  C   C60       1.0  0.04044  0.16567  0.07847  1.0000
  C   C61       1.0  0.64211  0.41717  0.69835  1.0000
  C   C62       1.0  0.56264  0.48213  0.72141  1.0000
  C   C63       1.0  0.45991  0.45835  0.72231  1.0000
  C   C64       1.0  0.41726999999999986  0.3687599999999999  0.69623  1.0000
  C   C65       1.0  0.89568  0.47924  0.75081  1.0000
  C   C66       1.0  0.024929999999999994  0.37235  0.72892  1.0000
  C   C67       1.0  0.59425  0.56957  0.74554  1.0000
  C   C68       1.0  0.84709  0.46509999999999996  0.58533  1.0000
  C   C69       1.0  0.8925  0.51563  0.54601  1.0000
  C   C70       1.0  0.97513  0.47385  0.5211  1.0000
  C   C71       1.0  0.00799  0.38039  0.53855  1.0000
  C   C72       1.0  0.95956  0.33433  0.57847  1.0000
  C   C73       1.0  0.8579  0.91717  0.30166  1.0000
  C   C74       1.0  0.93738  0.98213  0.2786  1.0000
  C   C75       1.0  0.04009999999999999  0.95835  0.27769  1.0000
  C   C76       1.0  0.08273999999999997  0.86876  0.30378  1.0000
  C   C77       1.0  0.60432  0.9792400000000001  0.24919  1.0000
  C   C78       1.0  0.47508  0.87234  0.27109  1.0000
  C   C79       1.0  0.9057599999999998  0.06957  0.25447  1.0000
  C   C80       1.0  0.6529199999999998  0.9651  0.41467  1.0000
  C   C81       1.0  0.60751  0.01563  0.45399  1.0000
  C   C82       1.0  0.52488  0.97385  0.4789  1.0000
  C   C83       1.0  0.4920099999999999  0.88039  0.46145  1.0000
  C   C84       1.0  0.54045  0.83433  0.42153  1.0000
  C   C85       1.0  0.14211  0.58283  0.80165  1.0000
  C   C86       1.0  0.06263  0.51787  0.77859  1.0000
  C   C87       1.0  0.9599099999999998  0.54165  0.7776900000000001  1.0000
  C   C88       1.0  0.91727  0.63124  0.80378  1.0000
  C   C89       1.0  0.39569  0.52075  0.74918  1.0000
  C   C90       1.0  0.52494  0.62765  0.7710800000000001  1.0000
  C   C91       1.0  0.09424  0.43043  0.75446  1.0000
  C   C92       1.0  0.3471  0.5349  0.91467  1.0000
  C   C93       1.0  0.3924999999999999  0.48437  0.95399  1.0000
  C   C94       1.0  0.47513  0.52615  0.9789  1.0000
  C   C95       1.0  0.508  0.61961  0.96145  1.0000
  C   C96       1.0  0.45957  0.66567  0.92153  1.0000
  N   N1        1.0  0.9266499999999999  0.89711  0.7735  1.0000
  N   N2        1.0  0.87967  0.87547  0.89842  1.0000
  N   N3        1.0  0.07337  0.60289  0.27351  1.0000
  N   N4        1.0  0.12033999999999999  0.62454  0.39843  1.0000
  N   N5        1.0  0.42663999999999996  0.10289  0.72649  1.0000
  N   N6        1.0  0.37967  0.12454  0.60157  1.0000
  N   N7        1.0  0.57336  0.39710999999999996  0.22650000000000003  1.0000
  N   N8        1.0  0.62034  0.37547  0.10157999999999999  1.0000
  N   N9        1.0  0.07336  0.10289  0.22650000000000003  1.0000
  N   N10       1.0  0.12033999999999999  0.12453  0.10157999999999999  1.0000
  N   N11       1.0  0.92664  0.39710999999999996  0.72649  1.0000
  N   N12       1.0  0.87967  0.37546  0.60157  1.0000
  N   N13       1.0  0.57337  0.89711  0.27351  1.0000
  N   N14       1.0  0.62034  0.87546  0.39843  1.0000
  N   N15       1.0  0.42665  0.60289  0.7735  1.0000
  N   N16       1.0  0.37967  0.62453  0.89842  1.0000
  O   O1        1.0  0.68705  0.94924  0.8401  1.0000
  O   O2        1.0  0.66682  0.8385  0.77779  1.0000
  O   O3        1.0  0.46936  0.82312  0.83571  1.0000
  O   O4        1.0  0.32767999999999997  0.8433  0.79066  1.0000
  O   O5        1.0  0.31297  0.55076  0.34012  1.0000
  O   O6        1.0  0.33318  0.66149  0.27779  1.0000
  O   O7        1.0  0.53066  0.67688  0.33571000000000006  1.0000
  O   O8        1.0  0.6723199999999998  0.65671  0.29065  1.0000
  O   O9        1.0  0.18703999999999996  0.05077000000000001  0.65989  1.0000
  O   O10       1.0  0.16682  0.16149  0.72221  1.0000
  O   O11       1.0  0.96935  0.17687999999999998  0.6643  1.0000
  O   O12       1.0  0.82769  0.1567  0.70934  1.0000
  O   O13       1.0  0.8129599999999999  0.44924  0.1599  1.0000
  O   O14       1.0  0.8331899999999998  0.33849999999999997  0.22222  1.0000
  O   O15       1.0  0.03064  0.32312  0.1643  1.0000
  O   O16       1.0  0.17233  0.34329999999999994  0.20933  1.0000
  O   O17       1.0  0.31296  0.05076  0.1599  1.0000
  O   O18       1.0  0.33318  0.1615  0.22222  1.0000
  O   O19       1.0  0.53064  0.17687  0.1643  1.0000
  O   O20       1.0  0.67233  0.1567  0.20933  1.0000
  O   O21       1.0  0.68704  0.44922999999999996  0.65989  1.0000
  O   O22       1.0  0.66683  0.33851  0.72221  1.0000
  O   O23       1.0  0.46935  0.32312  0.6643  1.0000
  O   O24       1.0  0.32769  0.34329  0.70934  1.0000
  O   O25       1.0  0.8129699999999997  0.94923  0.34012  1.0000
  O   O26       1.0  0.8331799999999999  0.83851  0.27779  1.0000
  O   O27       1.0  0.030659999999999993  0.82312  0.33571000000000006  1.0000
  O   O28       1.0  0.17232  0.8432899999999999  0.29065  1.0000
  O   O29       1.0  0.18705  0.55076  0.8401  1.0000
  O   O30       1.0  0.16682  0.6615  0.77779  1.0000
  O   O31       1.0  0.9693599999999999  0.67687  0.83571  1.0000
  O   O32       1.0  0.8276799999999997  0.6567  0.79066  1.0000
