data_image0
_chemical_formula_structural       Zn20H32C72O56
_chemical_formula_sum              "Zn20 H32 C72 O56"
_cell_length_a       17.48995
_cell_length_b       17.36532
_cell_length_c       17.12047
_cell_angle_alpha    104.88218
_cell_angle_beta     106.15581999999999
_cell_angle_gamma    117.39783

_space_group_name_H-M_alt    "P 1"
_space_group_IT_number       1

loop_
  _space_group_symop_operation_xyz
  'x, y, z'

loop_
  _atom_site_type_symbol
  _atom_site_label
  _atom_site_symmetry_multiplicity
  _atom_site_fract_x
  _atom_site_fract_y
  _atom_site_fract_z
  _atom_site_occupancy
  Zn  Zn1       1.0  0.5922100000000001  0.21142  0.11889000000000002  1.0000
  Zn  Zn2       1.0  0.6595300000000001  0.24656000000000008  0.32545000000000013  1.0000
  Zn  Zn3       1.0  0.09253000000000008  0.47434  0.8833100000000003  1.0000
  Zn  Zn4       1.0  0.88664  0.31284  0.65992  1.0000
  Zn  Zn5       1.0  0.16315000000000002  0.09401999999999999  0.6093  1.0000
  Zn  Zn6       1.0  0.24584000000000011  0.9760400000000001  0.56269  1.0000
  Zn  Zn7       1.0  0.4759700000000001  0.5887100000000001  0.3790800000000001  1.0000
  Zn  Zn8       1.0  0.33691  0.6595699999999998  0.40168  1.0000
  Zn  Zn9       1.0  0.09039000000000007  0.9758800000000002  0.38662000000000013  1.0000
  Zn  Zn10      1.0  0.15614999999999998  0.8171399999999999  0.4500300000000001  1.0000
  Zn  Zn11      1.0  0.5905700000000003  0.66805  0.6093200000000002  1.0000
  Zn  Zn12      1.0  0.46940000000000004  0.74585  0.54652  1.0000
  Zn  Zn13      1.0  0.6699000000000002  0.06294000000000002  0.07467000000000003  1.0000
  Zn  Zn14      1.0  0.74322  0.18805  0.27708  1.0000
  Zn  Zn15      1.0  0.9848700000000002  0.5974000000000002  0.9175500000000002  1.0000
  Zn  Zn16      1.0  0.9231100000000001  0.46837999999999996  0.72172  1.0000
  Zn  Zn17      1.0  0.79881  0.29317  0.15581  1.0000
  Zn  Zn18      1.0  0.14319000000000004  0.64887  0.8470300000000002  1.0000
  Zn  Zn19      1.0  0.29806  0.15009  0.50985  1.0000
  Zn  Zn20      1.0  0.6483  0.79386  0.50476  1.0000
  H   H1        1.0  0.39643000000000017  0.12701  0.31632  1.0000
  H   H2        1.0  0.12415000000000005  0.84609  0.15882000000000002  1.0000
  H   H3        1.0  0.31649  0.94752  0.04142  1.0000
  H   H4        1.0  0.8088500000000002  0.09258999999999995  0.6776  1.0000
  H   H5        1.0  0.6566  0.97226  0.81969  1.0000
  H   H6        1.0  0.9081899999999999  0.26894  0.9601  1.0000
  H   H7        1.0  0.1156499999999999  0.8093999999999998  0.69984  1.0000
  H   H8        1.0  0.8346599999999998  0.6525999999999997  0.68826  1.0000
  H   H9        1.0  0.92551  0.9012699999999999  0.6344300000000002  1.0000
  H   H10       1.0  0.08918  0.40542  0.28185000000000004  1.0000
  H   H11       1.0  0.9809100000000001  0.15324000000000004  0.3304100000000001  1.0000
  H   H12       1.0  0.2773700000000001  0.3193500000000001  0.3782300000000001  1.0000
  H   H13       1.0  0.9028000000000003  0.58591  0.28395  1.0000
  H   H14       1.0  0.6338099999999998  0.47017  0.30007  1.0000
  H   H15       1.0  0.8277700000000001  0.77818  0.39259  1.0000
  H   H16       1.0  0.296  0.6186599999999998  0.69893  1.0000
  H   H17       1.0  0.17648000000000008  0.34853000000000006  0.7155200000000003  1.0000
  H   H18       1.0  0.38765  0.43228  0.61617  1.0000
  H   H19       1.0  0.61862  0.9051200000000003  0.3127100000000001  1.0000
  H   H20       1.0  0.33913999999999994  0.6296099999999998  0.16083  1.0000
  H   H21       1.0  0.4261000000000001  0.82171  0.03900000000000001  1.0000
  H   H22       1.0  0.6034500000000002  0.30596  0.6831  1.0000
  H   H23       1.0  0.47973  0.16203000000000004  0.8299800000000002  1.0000
  H   H24       1.0  0.7826200000000002  0.39775  0.9642300000000003  1.0000
  H   H25       1.0  0.5416100000000003  0.07915000000000003  0.39966  1.0000
  H   H26       1.0  0.62034  0.07936000000000003  0.3744400000000001  1.0000
  H   H27       1.0  0.6869600000000002  0.16984000000000002  0.54183  1.0000
  H   H28       1.0  0.71377  0.24514  0.6362  1.0000
  H   H29       1.0  0.15713000000000005  0.6743  0.49963000000000013  1.0000
  H   H30       1.0  0.1223099999999999  0.7297399999999998  0.55066  1.0000
  H   H31       1.0  0.16732999999999995  0.5451599999999998  0.48132000000000014  1.0000
  H   H32       1.0  0.27517000000000014  0.6317800000000001  0.5470800000000002  1.0000
  C   C1        1.0  0.45924000000000004  0.12554  0.19028  1.0000
  C   C2        1.0  0.3658600000000002  0.04638  0.17941  1.0000
  C   C3        1.0  0.34524  0.05978999999999999  0.25333  1.0000
  C   C4        1.0  0.25807999999999987  0.9882299999999998  0.24580000000000002  1.0000
  C   C5        1.0  0.19209000000000004  0.9017  0.16476  1.0000
  C   C6        1.0  0.21386000000000005  0.88614  0.09175000000000003  1.0000
  C   C7        1.0  0.30028  0.95912  0.09852000000000001  1.0000
  C   C8        1.0  0.2353500000000001  0.006460000000000017  0.3240100000000001  1.0000
  C   C9        1.0  0.14579  0.79058  0.007760000000000002  1.0000
  C   C10       1.0  0.9420700000000002  0.27390000000000003  0.8131300000000001  1.0000
  C   C11       1.0  0.8669700000000002  0.18999999999999997  0.81851  1.0000
  C   C12       1.0  0.80164  0.10082999999999996  0.73969  1.0000
  C   C13       1.0  0.72582  0.022510000000000013  0.7399  1.0000
  C   C14       1.0  0.71591  0.03280000000000002  0.81957  1.0000
  C   C15       1.0  0.7822600000000004  0.12108000000000008  0.8992800000000002  1.0000
  C   C16       1.0  0.8576400000000001  0.19997  0.89868  1.0000
  C   C17       1.0  0.6557099999999999  0.9286799999999997  0.65494  1.0000
  C   C18       1.0  0.7699600000000002  0.13108999999999998  0.98351  1.0000
  C   C19       1.0  0.10056999999999995  0.9403199999999999  0.65088  1.0000
  C   C20       1.0  0.027520000000000062  0.8624200000000001  0.66363  1.0000
  C   C21       1.0  0.046499999999999896  0.7993999999999998  0.68727  1.0000
  C   C22       1.0  0.97717  0.7241399999999999  0.6963900000000002  1.0000
  C   C23       1.0  0.8886900000000002  0.71173  0.68194  1.0000
  C   C24       1.0  0.87048  0.77614  0.66053  1.0000
  C   C25       1.0  0.9399299999999998  0.8515899999999997  0.6514500000000002  1.0000
  C   C26       1.0  0.9982800000000002  0.65821  0.72334  1.0000
  C   C27       1.0  0.7766599999999999  0.7634899999999999  0.64559  1.0000
  C   C28       1.0  0.27309999999999995  0.4591899999999999  0.33326  1.0000
  C   C29       1.0  0.1922200000000001  0.37171000000000004  0.32970000000000005  1.0000
  C   C30       1.0  0.10107  0.3563699999999999  0.30305  1.0000
  C   C31       1.0  0.025210000000000038  0.2786  0.30404  1.0000
  C   C32       1.0  0.03976999999999998  0.21412999999999996  0.33006  1.0000
  C   C33       1.0  0.13055  0.22858999999999996  0.3562  1.0000
  C   C34       1.0  0.20676000000000008  0.30776  0.3565200000000001  1.0000
  C   C35       1.0  0.9299100000000001  0.2667  0.27719  1.0000
  C   C36       1.0  0.14914  0.16221  0.38682  1.0000
  C   C37       1.0  0.9652500000000002  0.7744499999999997  0.3482  1.0000
  C   C38       1.0  0.8738900000000003  0.6910300000000001  0.3370200000000001  1.0000
  C   C39       1.0  0.8526600000000002  0.59733  0.30186  1.0000
  C   C40       1.0  0.76612  0.51763  0.2878100000000001  1.0000
  C   C41       1.0  0.7015  0.5319799999999998  0.31169000000000013  1.0000
  C   C42       1.0  0.72518  0.62634  0.3519000000000001  1.0000
  C   C43       1.0  0.8106099999999999  0.7053999999999999  0.36312  1.0000
  C   C44       1.0  0.7439700000000002  0.41809999999999997  0.24533000000000005  1.0000
  C   C45       1.0  0.6617400000000001  0.6457899999999998  0.38457  1.0000
  C   C46       1.0  0.42002000000000006  0.6055999999999999  0.63553  1.0000
  C   C47       1.0  0.3489600000000002  0.5332000000000001  0.6543000000000002  1.0000
  C   C48       1.0  0.29148  0.5518  0.68767  1.0000
  C   C49       1.0  0.23121999999999995  0.4861099999999999  0.71184  1.0000
  C   C50       1.0  0.22388000000000005  0.39953  0.6972400000000002  1.0000
  C   C51       1.0  0.27826000000000006  0.37909  0.66046  1.0000
  C   C52       1.0  0.3429700000000001  0.44711  0.6415  1.0000
  C   C53       1.0  0.1787100000000001  0.51021  0.7583  1.0000
  C   C54       1.0  0.2670800000000001  0.2847800000000001  0.6417300000000002  1.0000
  C   C55       1.0  0.6037500000000001  0.9657099999999997  0.17911000000000005  1.0000
  C   C56       1.0  0.5305500000000002  0.8740100000000001  0.17629000000000006  1.0000
  C   C57       1.0  0.5498399999999998  0.8539899999999998  0.25077  1.0000
  C   C58       1.0  0.48148  0.76501  0.24427000000000004  1.0000
  C   C59       1.0  0.39207000000000003  0.69834  0.16539  1.0000
  C   C60       1.0  0.37128  0.7203  0.09247  1.0000
  C   C61       1.0  0.4416799999999999  0.8068399999999998  0.0972  1.0000
  C   C62       1.0  0.5064500000000001  0.7409899999999998  0.3212200000000001  1.0000
  C   C63       1.0  0.2749399999999999  0.6535699999999998  0.00848  1.0000
  C   C64       1.0  0.7904200000000001  0.4326700000000001  0.8211000000000003  1.0000
  C   C65       1.0  0.70279  0.35986999999999997  0.82351  1.0000
  C   C66       1.0  0.61232  0.29872  0.74573  1.0000
  C   C67       1.0  0.5318900000000002  0.2282800000000001  0.7485000000000003  1.0000
  C   C68       1.0  0.5422000000000002  0.21775  0.82869  1.0000
  C   C69       1.0  0.6328700000000002  0.2785800000000001  0.9063100000000002  1.0000
  C   C70       1.0  0.71257  0.35033  0.90372  1.0000
  C   C71       1.0  0.43517  0.16369999999999996  0.66525  1.0000
  C   C72       1.0  0.64891  0.26776000000000005  0.99234  1.0000
  O   O1        1.0  0.47331000000000006  0.11697  0.11991000000000002  1.0000
  O   O2        1.0  0.5197600000000002  0.19674  0.27052  1.0000
  O   O3        1.0  0.30605  0.07218  0.4019  1.0000
  O   O4        1.0  0.1455  0.95353  0.30423  1.0000
  O   O5        1.0  0.06704999999999998  0.72915  0.00856  1.0000
  O   O6        1.0  0.16776999999999986  0.7754499999999998  0.9442  1.0000
  O   O7        1.0  0.00266000000000005  0.35461  0.8863400000000001  1.0000
  O   O8        1.0  0.9405100000000002  0.26122  0.73552  1.0000
  O   O9        1.0  0.6742000000000001  0.9188799999999998  0.58776  1.0000
  O   O10       1.0  0.5803800000000001  0.8642699999999999  0.6564700000000002  1.0000
  O   O11       1.0  0.7005500000000001  0.05060000000000002  0.97662  1.0000
  O   O12       1.0  0.82378  0.21152  0.05365  1.0000
  O   O13       1.0  0.08633000000000002  0.006719999999999986  0.64736  1.0000
  O   O14       1.0  0.16937000000000005  0.9373600000000001  0.64419  1.0000
  O   O15       1.0  0.0844000000000001  0.6810700000000001  0.7500700000000002  1.0000
  O   O16       1.0  0.9260900000000001  0.58306  0.71772  1.0000
  O   O17       1.0  0.71462  0.68904  0.65188  1.0000
  O   O18       1.0  0.7604100000000001  0.82233  0.6282400000000002  1.0000
  O   O19       1.0  0.3552500000000001  0.47057  0.35518000000000005  1.0000
  O   O20       1.0  0.25501  0.51829  0.31576  1.0000
  O   O21       1.0  0.92177  0.32508  0.24927000000000005  1.0000
  O   O22       1.0  0.8638300000000002  0.19915000000000005  0.2853300000000001  1.0000
  O   O23       1.0  0.07565000000000006  0.08156000000000005  0.3712800000000001  1.0000
  O   O24       1.0  0.2379900000000001  0.19328000000000004  0.4265200000000001  1.0000
  O   O25       1.0  0.9731600000000001  0.85485  0.36354  1.0000
  O   O26       1.0  0.029229999999999885  0.7601899999999998  0.34176000000000006  1.0000
  O   O27       1.0  0.81275  0.41236  0.24217000000000005  1.0000
  O   O28       1.0  0.65572  0.3454199999999999  0.21558000000000005  1.0000
  O   O29       1.0  0.57509  0.57307  0.35784  1.0000
  O   O30       1.0  0.7003300000000001  0.7340900000000001  0.43741000000000013  1.0000
  O   O31       1.0  0.4963600000000001  0.60585  0.64833  1.0000
  O   O32       1.0  0.4025300000000001  0.66112  0.60994  1.0000
  O   O33       1.0  0.17306999999999992  0.5800699999999998  0.75654  1.0000
  O   O34       1.0  0.14492000000000002  0.45737999999999995  0.7964500000000001  1.0000
  O   O35       1.0  0.19702999999999998  0.22316999999999995  0.65234  1.0000
  O   O36       1.0  0.32285000000000014  0.2702400000000001  0.6178100000000002  1.0000
  O   O37       1.0  0.6030500000000002  0.95766  0.1018  1.0000
  O   O38       1.0  0.6597700000000001  0.042550000000000004  0.2547  1.0000
  O   O39       1.0  0.58504  0.80696  0.3931100000000001  1.0000
  O   O40       1.0  0.44499  0.65439  0.30784  1.0000
  O   O41       1.0  0.21154000000000006  0.57344  0.00384  1.0000
  O   O42       1.0  0.26467  0.68357  0.94859  1.0000
  O   O43       1.0  0.8566400000000001  0.50884  0.8984900000000002  1.0000
  O   O44       1.0  0.7948200000000002  0.4151400000000001  0.7466400000000002  1.0000
  O   O45       1.0  0.4262500000000001  0.18480999999999995  0.59877  1.0000
  O   O46       1.0  0.36887  0.09140000000000004  0.66807  1.0000
  O   O47       1.0  0.57378  0.21329999999999993  3e-05  1.0000
  O   O48       1.0  0.73695  0.31388  0.05136  1.0000
  O   O49       1.0  0.6871100000000002  0.1769  0.14919  1.0000
  O   O50       1.0  0.6112  0.11709999999999997  0.41962  1.0000
  O   O51       1.0  0.03280999999999998  0.5424699999999998  0.85211  1.0000
  O   O52       1.0  0.72897  0.20089000000000012  0.6085000000000003  1.0000
  O   O53       1.0  0.18872  0.043859999999999996  0.51561  1.0000
  O   O54       1.0  0.11596000000000006  0.6995  0.49057  1.0000
  O   O55       1.0  0.53758  0.68516  0.50774  1.0000
  O   O56       1.0  0.21368000000000006  0.61366  0.50032  1.0000
