data_image0
_chemical_formula_structural       Cd4H80C76N16O16
_chemical_formula_sum              "Cd4 H80 C76 N16 O16"
_cell_length_a       9.82738
_cell_length_b       10.758729999999998
_cell_length_c       23.54027
_cell_angle_alpha    90.0001
_cell_angle_beta     89.99955
_cell_angle_gamma    102.88788999999998

_space_group_name_H-M_alt    "P 1"
_space_group_IT_number       1

loop_
  _space_group_symop_operation_xyz
  'x, y, z'

loop_
  _atom_site_type_symbol
  _atom_site_label
  _atom_site_symmetry_multiplicity
  _atom_site_fract_x
  _atom_site_fract_y
  _atom_site_fract_z
  _atom_site_occupancy
  Cd  Cd1       1.0  0.4751500000000001  0.31845  0.10473999999999999  1.0000
  Cd  Cd2       1.0  0.024839999999999997  0.68155  0.60474  1.0000
  Cd  Cd3       1.0  0.52484  0.68155  0.89526  1.0000
  Cd  Cd4       1.0  0.97516  0.31845  0.3952599999999999  1.0000
  H   H1        1.0  0.24106000000000002  0.9696900000000002  0.9859099999999998  1.0000
  H   H2        1.0  0.95836  0.16846  0.0658  1.0000
  H   H3        1.0  0.7786800000000001  0.53043  0.95732  1.0000
  H   H4        1.0  0.9941600000000002  0.38035  0.09069  1.0000
  H   H5        1.0  0.54226  0.61483  0.05265999999999999  1.0000
  H   H6        1.0  0.27747  0.48223  0.191  1.0000
  H   H7        1.0  0.2493  0.72629  0.16246  1.0000
  H   H8        1.0  0.32485000000000014  0.8436500000000002  0.05506  1.0000
  H   H9        1.0  0.4918900000000001  0.8237000000000001  0.03317  1.0000
  H   H10       1.0  0.426  0.9499400000000001  0.14428  1.0000
  H   H11       1.0  0.50884  0.028930000000000008  0.08426  1.0000
  H   H12       1.0  0.7044400000000001  0.9101000000000001  0.09717999999999997  1.0000
  H   H13       1.0  0.62091  0.83787  0.1585  1.0000
  H   H14       1.0  0.72731  0.12821  0.14249  1.0000
  H   H15       1.0  0.64302  0.05484000000000001  0.20354999999999998  1.0000
  H   H16       1.0  0.83409  0.9310500000000003  0.21469999999999997  1.0000
  H   H17       1.0  0.9204600000000001  0.01423  0.15533999999999998  1.0000
  H   H18       1.0  0.08764000000000001  0.22018000000000004  0.17244  1.0000
  H   H19       1.0  0.15561  0.37215  0.26943  1.0000
  H   H20       1.0  0.7924  0.0911  0.30326  1.0000
  H   H21       1.0  0.25893  0.030310000000000004  0.48590999999999995  1.0000
  H   H22       1.0  0.54164  0.83154  0.5658  1.0000
  H   H23       1.0  0.72131  0.46958  0.45732  1.0000
  H   H24       1.0  0.50584  0.61965  0.59069  1.0000
  H   H25       1.0  0.95774  0.38518  0.55265  1.0000
  H   H26       1.0  0.22252000000000002  0.51778  0.691  1.0000
  H   H27       1.0  0.2507  0.27372  0.66246  1.0000
  H   H28       1.0  0.17514  0.15636  0.55506  1.0000
  H   H29       1.0  0.008110000000000001  0.17631  0.53317  1.0000
  H   H30       1.0  0.07399000000000001  0.05007000000000001  0.64428  1.0000
  H   H31       1.0  0.99116  0.97107  0.58426  1.0000
  H   H32       1.0  0.79556  0.08991000000000003  0.59718  1.0000
  H   H33       1.0  0.8790800000000001  0.16213000000000002  0.6585  1.0000
  H   H34       1.0  0.77269  0.87179  0.6424899999999999  1.0000
  H   H35       1.0  0.8569800000000001  0.94516  0.70355  1.0000
  H   H36       1.0  0.66591  0.06895  0.7147  1.0000
  H   H37       1.0  0.57954  0.9857700000000001  0.65534  1.0000
  H   H38       1.0  0.41235000000000005  0.7798200000000001  0.6724399999999999  1.0000
  H   H39       1.0  0.34439  0.62786  0.76943  1.0000
  H   H40       1.0  0.7075900000000003  0.9089100000000001  0.8032599999999999  1.0000
  H   H41       1.0  0.7589300000000001  0.030310000000000004  0.014089999999999998  1.0000
  H   H42       1.0  0.04164  0.83154  0.9341999999999998  1.0000
  H   H43       1.0  0.22131000000000003  0.46958  0.04268  1.0000
  H   H44       1.0  0.005839999999999999  0.61965  0.90931  1.0000
  H   H45       1.0  0.4577300000000001  0.38518  0.9473399999999998  1.0000
  H   H46       1.0  0.72253  0.51778  0.809  1.0000
  H   H47       1.0  0.7507  0.27371000000000006  0.83754  1.0000
  H   H48       1.0  0.67514  0.15636  0.94494  1.0000
  H   H49       1.0  0.50811  0.17631  0.9668199999999999  1.0000
  H   H50       1.0  0.57399  0.05006000000000001  0.8557199999999999  1.0000
  H   H51       1.0  0.49116  0.97107  0.91574  1.0000
  H   H52       1.0  0.29556  0.08991000000000003  0.90281  1.0000
  H   H53       1.0  0.37908000000000003  0.16213000000000002  0.8415  1.0000
  H   H54       1.0  0.27268000000000003  0.87179  0.85751  1.0000
  H   H55       1.0  0.35697999999999996  0.94516  0.79644  1.0000
  H   H56       1.0  0.16591  0.06895  0.7852999999999999  1.0000
  H   H57       1.0  0.07953000000000005  0.9857700000000001  0.8446599999999999  1.0000
  H   H58       1.0  0.9123500000000001  0.7798200000000001  0.8275599999999999  1.0000
  H   H59       1.0  0.8443900000000001  0.62786  0.7305699999999999  1.0000
  H   H60       1.0  0.2075900000000001  0.9089100000000001  0.6967399999999998  1.0000
  H   H61       1.0  0.7410600000000002  0.9696900000000002  0.5140899999999999  1.0000
  H   H62       1.0  0.4583499999999999  0.16846  0.4342  1.0000
  H   H63       1.0  0.27868  0.5304200000000001  0.54268  1.0000
  H   H64       1.0  0.49415  0.38035  0.40930999999999995  1.0000
  H   H65       1.0  0.04226000000000001  0.61483  0.44734  1.0000
  H   H66       1.0  0.7774700000000001  0.48223  0.309  1.0000
  H   H67       1.0  0.7493  0.72629  0.33753999999999995  1.0000
  H   H68       1.0  0.8248500000000001  0.8436400000000001  0.44494  1.0000
  H   H69       1.0  0.99188  0.8237000000000001  0.46683  1.0000
  H   H70       1.0  0.9260000000000002  0.9499400000000001  0.35572  1.0000
  H   H71       1.0  0.008830000000000001  0.028930000000000008  0.41574  1.0000
  H   H72       1.0  0.20443000000000006  0.9101000000000001  0.4028199999999999  1.0000
  H   H73       1.0  0.12091000000000002  0.83787  0.3415  1.0000
  H   H74       1.0  0.22731000000000004  0.12821  0.35751  1.0000
  H   H75       1.0  0.14301  0.05484000000000001  0.29644  1.0000
  H   H76       1.0  0.3340800000000001  0.9310500000000003  0.2853  1.0000
  H   H77       1.0  0.42046  0.01423  0.34466  1.0000
  H   H78       1.0  0.5876400000000002  0.22018000000000004  0.32756  1.0000
  H   H79       1.0  0.65561  0.37215  0.23056999999999997  1.0000
  H   H80       1.0  0.2924  0.0911  0.19674  1.0000
  C   C1        1.0  0.23179000000000002  0.16026  0.06058999999999999  1.0000
  C   C2        1.0  0.11236  0.0773  0.029329999999999995  1.0000
  C   C3        1.0  0.1353000000000001  0.9826300000000001  0.9918  1.0000
  C   C4        1.0  0.9758900000000001  0.09403  0.03731  1.0000
  C   C5        1.0  0.73434  0.39515  0.05465  1.0000
  C   C6        1.0  0.87182  0.44887000000000005  0.026689999999999995  1.0000
  C   C7        1.0  0.87593  0.51717  0.9756099999999998  1.0000
  C   C8        1.0  0.99712  0.4324900000000001  0.05097  1.0000
  C   C9        1.0  0.46934  0.6119900000000001  0.08733999999999999  1.0000
  C   C10       1.0  0.33001  0.54702  0.1587  1.0000
  C   C11       1.0  0.31476  0.6672600000000002  0.145  1.0000
  C   C12       1.0  0.42617999999999995  0.8303  0.07028999999999999  1.0000
  C   C13       1.0  0.49615000000000004  0.94028  0.10895  1.0000
  C   C14       1.0  0.6365200000000002  0.92495  0.13251  1.0000
  C   C15       1.0  0.70964  0.04016  0.16781  1.0000
  C   C16       1.0  0.84898  0.02045  0.19050999999999996  1.0000
  C   C17       1.0  0.03831  0.21704  0.21396999999999997  1.0000
  C   C18       1.0  0.06966  0.29159  0.26173  1.0000
  C   C19       1.0  0.88344  0.14613  0.28179  1.0000
  C   C20       1.0  0.26821  0.83974  0.56059  1.0000
  C   C21       1.0  0.38763000000000003  0.9227100000000001  0.52933  1.0000
  C   C22       1.0  0.36469  0.017380000000000003  0.4918  1.0000
  C   C23       1.0  0.52411  0.90597  0.53731  1.0000
  C   C24       1.0  0.76566  0.60485  0.55465  1.0000
  C   C25       1.0  0.62818  0.55113  0.52669  1.0000
  C   C26       1.0  0.62406  0.48284000000000005  0.47560999999999987  1.0000
  C   C27       1.0  0.50287  0.56752  0.5509699999999998  1.0000
  C   C28       1.0  0.03066  0.38801  0.58733  1.0000
  C   C29       1.0  0.16999  0.45299  0.6587  1.0000
  C   C30       1.0  0.18523  0.33275000000000005  0.645  1.0000
  C   C31       1.0  0.07381  0.16971000000000003  0.57029  1.0000
  C   C32       1.0  0.00385  0.05972  0.60895  1.0000
  C   C33       1.0  0.86347  0.07505  0.63251  1.0000
  C   C34       1.0  0.79036  0.95985  0.66781  1.0000
  C   C35       1.0  0.65102  0.97956  0.69051  1.0000
  C   C36       1.0  0.46168  0.7829600000000002  0.71397  1.0000
  C   C37       1.0  0.43033000000000005  0.70841  0.7617299999999999  1.0000
  C   C38       1.0  0.61655  0.8538700000000002  0.78179  1.0000
  C   C39       1.0  0.76821  0.83974  0.9394099999999999  1.0000
  C   C40       1.0  0.8876300000000001  0.9227100000000001  0.9706599999999999  1.0000
  C   C41       1.0  0.86469  0.01737  0.0082  1.0000
  C   C42       1.0  0.02410999999999999  0.90597  0.96269  1.0000
  C   C43       1.0  0.26566  0.60486  0.94535  1.0000
  C   C44       1.0  0.12817  0.55113  0.9733099999999999  1.0000
  C   C45       1.0  0.12406000000000002  0.48284000000000005  0.02439  1.0000
  C   C46       1.0  0.00287000000000002  0.56752  0.94903  1.0000
  C   C47       1.0  0.53066  0.38801  0.91266  1.0000
  C   C48       1.0  0.6699899999999999  0.45299  0.8412999999999999  1.0000
  C   C49       1.0  0.68523  0.33275000000000005  0.8549999999999998  1.0000
  C   C50       1.0  0.57381  0.16970000000000002  0.9297  1.0000
  C   C51       1.0  0.5038499999999999  0.05972  0.89105  1.0000
  C   C52       1.0  0.36347  0.07505  0.86749  1.0000
  C   C53       1.0  0.29036000000000006  0.95985  0.8321899999999999  1.0000
  C   C54       1.0  0.15102  0.97956  0.8094799999999999  1.0000
  C   C55       1.0  0.9616800000000001  0.7829600000000002  0.7860299999999999  1.0000
  C   C56       1.0  0.93033  0.70841  0.73827  1.0000
  C   C57       1.0  0.11655000000000004  0.8538700000000002  0.71821  1.0000
  C   C58       1.0  0.73179  0.16026  0.43941  1.0000
  C   C59       1.0  0.61236  0.0773  0.47066999999999987  1.0000
  C   C60       1.0  0.6353100000000002  0.9826300000000001  0.5082  1.0000
  C   C61       1.0  0.47589  0.09404000000000003  0.46269  1.0000
  C   C62       1.0  0.23434000000000002  0.39515  0.44535  1.0000
  C   C63       1.0  0.37182  0.44888000000000006  0.47331  1.0000
  C   C64       1.0  0.37593  0.5171600000000001  0.52439  1.0000
  C   C65       1.0  0.49712000000000006  0.4324900000000001  0.44903  1.0000
  C   C66       1.0  0.9693400000000001  0.6119900000000001  0.41266  1.0000
  C   C67       1.0  0.83001  0.54702  0.3413  1.0000
  C   C68       1.0  0.8147600000000002  0.6672600000000002  0.3549999999999999  1.0000
  C   C69       1.0  0.92618  0.8303  0.4297099999999999  1.0000
  C   C70       1.0  0.9961400000000001  0.94028  0.39104999999999995  1.0000
  C   C71       1.0  0.13652000000000003  0.92495  0.36749  1.0000
  C   C72       1.0  0.20963000000000004  0.04016  0.33218999999999993  1.0000
  C   C73       1.0  0.34897  0.02045  0.30949  1.0000
  C   C74       1.0  0.53832  0.21705000000000002  0.28603  1.0000
  C   C75       1.0  0.56966  0.29159  0.23827  1.0000
  C   C76       1.0  0.38344  0.14613  0.21821  1.0000
  N   N1        1.0  0.42694000000000004  0.5136300000000001  0.12255  1.0000
  N   N2        1.0  0.40353  0.70691  0.09951  1.0000
  N   N3        1.0  0.9206300000000001  0.12427000000000003  0.22764  1.0000
  N   N4        1.0  0.97243  0.24669000000000002  0.30361  1.0000
  N   N5        1.0  0.07306  0.48638  0.62255  1.0000
  N   N6        1.0  0.09646999999999999  0.29309  0.5994999999999999  1.0000
  N   N7        1.0  0.57937  0.87574  0.72764  1.0000
  N   N8        1.0  0.5275700000000001  0.7533100000000003  0.80361  1.0000
  N   N9        1.0  0.5730599999999999  0.48638  0.87745  1.0000
  N   N10       1.0  0.59647  0.29309  0.90049  1.0000
  N   N11       1.0  0.07937  0.87574  0.77236  1.0000
  N   N12       1.0  0.027570000000000063  0.7533100000000003  0.69639  1.0000
  N   N13       1.0  0.9269400000000001  0.5136300000000001  0.37744999999999995  1.0000
  N   N14       1.0  0.90353  0.70691  0.40049  1.0000
  N   N15       1.0  0.42063  0.12427000000000003  0.27236  1.0000
  N   N16       1.0  0.47243000000000007  0.24669000000000002  0.19639  1.0000
  O   O1        1.0  0.35642  0.16318  0.04281  1.0000
  O   O2        1.0  0.20707  0.22454  0.10302  1.0000
  O   O3        1.0  0.6256  0.42561  0.034  1.0000
  O   O4        1.0  0.72822  0.32222  0.09783  1.0000
  O   O5        1.0  0.14357  0.83682  0.54281  1.0000
  O   O6        1.0  0.29293  0.7754600000000001  0.60302  1.0000
  O   O7        1.0  0.8743900000000001  0.5744  0.534  1.0000
  O   O8        1.0  0.77177  0.6777700000000001  0.59783  1.0000
  O   O9        1.0  0.64357  0.83682  0.9571899999999999  1.0000
  O   O10       1.0  0.79293  0.7754600000000001  0.8969799999999998  1.0000
  O   O11       1.0  0.37438999999999995  0.5744  0.9659999999999999  1.0000
  O   O12       1.0  0.27178000000000013  0.6777800000000003  0.90217  1.0000
  O   O13       1.0  0.8564200000000001  0.16319000000000003  0.45718999999999993  1.0000
  O   O14       1.0  0.70707  0.22454  0.39697999999999994  1.0000
  O   O15       1.0  0.12559999999999996  0.42561  0.46599999999999997  1.0000
  O   O16       1.0  0.22822  0.32223  0.40217  1.0000
