data_image0
_chemical_formula_structural       Cu8P12H68C76N8O36
_chemical_formula_sum              "Cu8 P12 H68 C76 N8 O36"
_cell_length_a       7.64638
_cell_length_b       17.762389999999996
_cell_length_c       20.34787
_cell_angle_alpha    90.00668
_cell_angle_beta     89.97988
_cell_angle_gamma    89.91979000000002

_symmetry_space_group_name_H-M    'P 1'
_symmetry_Int_Tables_number       1

loop_
  _symmetry_equiv_pos_as_xyz
  'x,y,z'

loop_
  _atom_site_type_symbol
  _atom_site_label
  _atom_site_symmetry_multiplicity
  _atom_site_fract_x
  _atom_site_fract_y
  _atom_site_fract_z
  _atom_site_occupancy
  Cu  Cu1       1.0  0.66774  0.10743999999999997  0.04609  1.0000
  Cu  Cu2       1.0  0.33101  0.10616  0.95434  1.0000
  Cu  Cu3       1.0  0.16956  0.8930799999999998  0.45461  1.0000
  Cu  Cu4       1.0  0.83274  0.8924899999999999  0.54588  1.0000
  Cu  Cu5       1.0  0.3328  0.8924399999999999  0.95385  1.0000
  Cu  Cu6       1.0  0.66819  0.8933699999999998  0.0455  1.0000
  Cu  Cu7       1.0  0.83151  0.10675  0.54536  1.0000
  Cu  Cu8       1.0  0.16941999999999993  0.10732999999999997  0.45427000000000006  1.0000
  P   P1        1.0  0.73136  0.15676999999999994  0.19677  1.0000
  P   P2        1.0  0.26872  0.15693  0.8040699999999998  1.0000
  P   P3        1.0  0.23106  0.84304  0.30422  1.0000
  P   P4        1.0  0.76819  0.8432099999999998  0.69663  1.0000
  P   P5        1.0  0.26656  0.84313  0.80348  1.0000
  P   P6        1.0  0.7313299999999998  0.84312  0.19598  1.0000
  P   P7        1.0  0.76895  0.15693999999999997  0.6958299999999998  1.0000
  P   P8        1.0  0.23117  0.15680999999999998  0.30392  1.0000
  P   P9        1.0  0.8678199999999998  0.99925  0.42663  1.0000
  P   P10       1.0  0.13426  0.00054  0.57351  1.0000
  P   P11       1.0  0.36741  0.99917  0.07363  1.0000
  P   P12       1.0  0.6333  0.00079  0.9265199999999999  1.0000
  H   H1        1.0  0.00847  0.19530999999999996  0.21179  1.0000
  H   H2        1.0  0.8030399999999998  0.12063999999999998  0.33512  1.0000
  H   H3        1.0  0.6690999999999998  0.39586  0.04923  1.0000
  H   H4        1.0  0.93295  0.29255  0.8844199999999999  1.0000
  H   H5        1.0  0.7912199999999998  0.4323999999999999  0.8833199999999999  1.0000
  H   H6        1.0  0.9907199999999998  0.4313099999999999  0.92333  1.0000
  H   H7        1.0  0.61334  0.26457  0.09248  1.0000
  H   H8        1.0  0.86564  0.16891  0.9325900000000001  1.0000
  H   H9        1.0  0.9920699999999999  0.19548  0.7884  1.0000
  H   H10       1.0  0.19824  0.12179999999999999  0.66593  1.0000
  H   H11       1.0  0.3383199999999999  0.39440999999999987  0.9543599999999999  1.0000
  H   H12       1.0  0.06697  0.28935999999999995  0.11669  1.0000
  H   H13       1.0  0.18266  0.42343  0.12296  1.0000
  H   H14       1.0  0.0019800000000000004  0.42897999999999986  0.07018  1.0000
  H   H15       1.0  0.39315  0.26414  0.90981  1.0000
  H   H16       1.0  0.13527999999999996  0.16643  0.06731  1.0000
  H   H17       1.0  0.5078  0.80466  0.28846  1.0000
  H   H18       1.0  0.30296  0.8781699999999998  0.16592  1.0000
  H   H19       1.0  0.16705  0.60458  0.45193  1.0000
  H   H20       1.0  0.4314  0.7076799999999998  0.61635  1.0000
  H   H21       1.0  0.29493  0.56808  0.61794  1.0000
  H   H22       1.0  0.49073  0.5681199999999997  0.57516  1.0000
  H   H23       1.0  0.11089999999999997  0.73601  0.40850999999999993  1.0000
  H   H24       1.0  0.36379  0.83151  0.5681599999999999  1.0000
  H   H25       1.0  0.48967  0.8048699999999998  0.7111899999999999  1.0000
  H   H26       1.0  0.69771  0.87925  0.8348499999999999  1.0000
  H   H27       1.0  0.8332  0.60376  0.54778  1.0000
  H   H28       1.0  0.56813  0.70772  0.38383  1.0000
  H   H29       1.0  0.70591  0.56774  0.38184  1.0000
  H   H30       1.0  0.50949  0.56808  0.42417  1.0000
  H   H31       1.0  0.8882199999999999  0.7349299999999999  0.5918  1.0000
  H   H32       1.0  0.6345699999999997  0.83118  0.43252  1.0000
  H   H33       1.0  0.98946  0.8048499999999997  0.78912  1.0000
  H   H34       1.0  0.19775  0.8790599999999998  0.66558  1.0000
  H   H35       1.0  0.33803  0.6038  0.9541  1.0000
  H   H36       1.0  0.06538999999999999  0.7095999999999998  0.11591  1.0000
  H   H37       1.0  0.18297999999999995  0.57556  0.12274  1.0000
  H   H38       1.0  0.0018800000000000008  0.5698299999999997  0.07017  1.0000
  H   H39       1.0  0.39215  0.7338599999999997  0.90912  1.0000
  H   H40       1.0  0.13341  0.8322499999999998  0.06633  1.0000
  H   H41       1.0  0.00784  0.8045099999999997  0.21187  1.0000
  H   H42       1.0  0.80298  0.87811  0.33452  1.0000
  H   H43       1.0  0.66895  0.6051  0.04896  1.0000
  H   H44       1.0  0.93188  0.70767  0.88384  1.0000
  H   H45       1.0  0.7905099999999998  0.56793  0.88319  1.0000
  H   H46       1.0  0.9903199999999998  0.56907  0.92294  1.0000
  H   H47       1.0  0.6119299999999998  0.7365599999999998  0.09179  1.0000
  H   H48       1.0  0.86318  0.8316499999999998  0.93154  1.0000
  H   H49       1.0  0.49177  0.19517  0.71155  1.0000
  H   H50       1.0  0.6978199999999999  0.12189  0.8343699999999998  1.0000
  H   H51       1.0  0.83293  0.39530999999999994  0.54764  1.0000
  H   H52       1.0  0.56885  0.29195  0.38332  1.0000
  H   H53       1.0  0.70554  0.43178  0.3817  1.0000
  H   H54       1.0  0.50934  0.43156999999999995  0.42418  1.0000
  H   H55       1.0  0.88898  0.2639699999999999  0.59126  1.0000
  H   H56       1.0  0.6363699999999998  0.16823  0.43167999999999995  1.0000
  H   H57       1.0  0.50866  0.19508  0.28873999999999994  1.0000
  H   H58       1.0  0.30273999999999995  0.12094  0.1655  1.0000
  H   H59       1.0  0.16697999999999993  0.39603  0.45176  1.0000
  H   H60       1.0  0.43193  0.2925399999999999  0.61597  1.0000
  H   H61       1.0  0.29463  0.43216  0.61782  1.0000
  H   H62       1.0  0.49059  0.4319699999999999  0.57515  1.0000
  H   H63       1.0  0.11159999999999998  0.2647  0.4081  1.0000
  H   H64       1.0  0.36533  0.16889999999999994  0.56761  1.0000
  H   H65       1.0  0.7223  5e-05  0.15459  1.0000
  H   H66       1.0  0.2768699999999999  0.99993  0.8459  1.0000
  H   H67       1.0  0.21994999999999995  9e-05  0.34566  1.0000
  H   H68       1.0  0.7787399999999998  0.9999199999999999  0.65447  1.0000
  C   C1        1.0  0.76154  0.06855999999999997  0.24031  1.0000
  C   C2        1.0  0.7916699999999998  0.06811  0.30821  1.0000
  C   C3        1.0  0.71562  0.34659  0.02262  1.0000
  C   C4        1.0  0.80553  0.35524  0.96341  1.0000
  C   C5        1.0  0.86096  0.29026  0.93059  1.0000
  C   C6        1.0  0.8478499999999998  0.43064  0.9335  1.0000
  C   C7        1.0  0.6825999999999999  0.27448  0.04657  1.0000
  C   C8        1.0  0.8246899999999998  0.22019  0.95724  1.0000
  C   C9        1.0  0.23859  0.06895999999999998  0.76035  1.0000
  C   C10       1.0  0.2092  0.06896999999999999  0.69242  1.0000
  C   C11       1.0  0.28914  0.34526999999999997  0.98038  1.0000
  C   C12       1.0  0.19701  0.3532  0.03925  1.0000
  C   C13       1.0  0.14053  0.28761  0.0709  1.0000
  C   C14       1.0  0.14762999999999998  0.42708999999999997  0.07013  1.0000
  C   C15       1.0  0.3224499999999999  0.2734099999999999  0.95555  1.0000
  C   C16       1.0  0.17701  0.21804999999999994  0.04352  1.0000
  C   C17       1.0  0.26062  0.93102  0.26033999999999996  1.0000
  C   C18       1.0  0.29129  0.9309499999999999  0.19247  1.0000
  C   C19       1.0  0.21352  0.6539399999999999  0.47837  1.0000
  C   C20       1.0  0.3036  0.64517  0.53751  1.0000
  C   C21       1.0  0.35907  0.71009  0.57029  1.0000
  C   C22       1.0  0.34679  0.5696799999999999  0.56704  1.0000
  C   C23       1.0  0.18034  0.7260399999999998  0.45435999999999993  1.0000
  C   C24       1.0  0.32285  0.7801999999999998  0.54364  1.0000
  C   C25       1.0  0.73853  0.93147  0.74014  1.0000
  C   C26       1.0  0.70851  0.93187  0.80803  1.0000
  C   C27       1.0  0.78604  0.6532399999999998  0.52162  1.0000
  C   C28       1.0  0.6960199999999997  0.64471  0.46245  1.0000
  C   C29       1.0  0.6401499999999998  0.7098399999999999  0.42996999999999996  1.0000
  C   C30       1.0  0.65327  0.5693199999999999  0.43263  1.0000
  C   C31       1.0  0.81882  0.7252399999999998  0.5459  1.0000
  C   C32       1.0  0.67599  0.77982  0.45691999999999994  1.0000
  C   C33       1.0  0.23723999999999995  0.93147  0.76019  1.0000
  C   C34       1.0  0.20859000000000003  0.9317899999999998  0.69222  1.0000
  C   C35       1.0  0.28835000000000005  0.65309  0.9798899999999999  1.0000
  C   C36       1.0  0.19623  0.6454  0.03877  1.0000
  C   C37       1.0  0.13907  0.71114  0.07013  1.0000
  C   C38       1.0  0.14754  0.57166  0.06997  1.0000
  C   C39       1.0  0.32132  0.72487  0.9548699999999999  1.0000
  C   C40       1.0  0.17539999999999994  0.7806  0.04257999999999999  1.0000
  C   C41       1.0  0.7612  0.9309599999999998  0.24001  1.0000
  C   C42       1.0  0.7916199999999998  0.93084  0.30789  1.0000
  C   C43       1.0  0.71492  0.6542799999999999  0.022189999999999998  1.0000
  C   C44       1.0  0.8049299999999998  0.6454  0.9630099999999999  1.0000
  C   C45       1.0  0.85975  0.71024  0.92996  1.0000
  C   C46       1.0  0.8475399999999997  0.56988  0.9333  1.0000
  C   C47       1.0  0.68119  0.7264599999999998  0.0459  1.0000
  C   C48       1.0  0.82274  0.7804299999999997  0.95633  1.0000
  C   C49       1.0  0.7393199999999998  0.06905999999999997  0.73984  1.0000
  C   C50       1.0  0.70885  0.06914  0.8077199999999999  1.0000
  C   C51       1.0  0.78631  0.34591999999999995  0.5213  1.0000
  C   C52       1.0  0.6962599999999999  0.35464  0.46213999999999994  1.0000
  C   C53       1.0  0.64094  0.2896299999999999  0.4294299999999999  1.0000
  C   C54       1.0  0.6531699999999998  0.4301399999999999  0.43252999999999997  1.0000
  C   C55       1.0  0.81959  0.27386  0.54539  1.0000
  C   C56       1.0  0.6772799999999998  0.21956  0.45616999999999996  1.0000
  C   C57       1.0  0.2609  0.06866  0.2601  1.0000
  C   C58       1.0  0.2912399999999999  0.06827  0.1922  1.0000
  C   C59       1.0  0.21376  0.3466  0.4781000000000001  1.0000
  C   C60       1.0  0.30376  0.35524  0.53726  1.0000
  C   C61       1.0  0.3596499999999999  0.29025  0.5699  1.0000
  C   C62       1.0  0.34669  0.43063  0.56695  1.0000
  C   C63       1.0  0.181  0.27453  0.45398  1.0000
  C   C64       1.0  0.3239  0.22019999999999995  0.54312  1.0000
  C   C65       1.0  0.7495299999999998  0.9998699999999999  0.20680999999999997  1.0000
  C   C66       1.0  0.8096999999999998  0.9993399999999999  0.34151  1.0000
  C   C67       1.0  0.24956999999999993  0.00012999999999999993  0.79368  1.0000
  C   C68       1.0  0.19149999999999995  0.00046999999999999993  0.65875  1.0000
  C   C69       1.0  0.24832  0.9999199999999999  0.29352  1.0000
  C   C70       1.0  0.3093199999999999  0.9994699999999999  0.15884  1.0000
  C   C71       1.0  0.751  0.00013999999999999993  0.7066599999999998  1.0000
  C   C72       1.0  0.6907999999999997  0.00064  0.8413600000000001  1.0000
  C   C73       1.0  0.80386  0.50034  0.96947  1.0000
  C   C74       1.0  0.20969  0.49928999999999996  0.0435  1.0000
  C   C75       1.0  0.30026  0.50022  0.5312899999999999  1.0000
  C   C76       1.0  0.6991  0.49965999999999994  0.46834999999999993  1.0000
  N   N1        1.0  0.73579  0.21213  0.01422  1.0000
  N   N2        1.0  0.26742  0.21073999999999998  0.9867499999999999  1.0000
  N   N3        1.0  0.23389  0.7882999999999998  0.48669  1.0000
  N   N4        1.0  0.76514  0.78772  0.51386  1.0000
  N   N5        1.0  0.26621  0.7877299999999998  0.9858699999999999  1.0000
  N   N6        1.0  0.7338399999999999  0.7886699999999999  0.0133  1.0000
  N   N7        1.0  0.76623  0.21152  0.51314  1.0000
  N   N8        1.0  0.23485  0.21217999999999995  0.48618  1.0000
  O   O1        1.0  0.6251  0.14045  0.13358  1.0000
  O   O2        1.0  0.9176199999999998  0.18524  0.17325  1.0000
  O   O3        1.0  0.64266  0.21252  0.24237999999999998  1.0000
  O   O4        1.0  0.79965  0.9249199999999999  0.45627999999999996  1.0000
  O   O5        1.0  0.37463  0.14022  0.8671299999999998  1.0000
  O   O6        1.0  0.08178  0.18539  0.82712  1.0000
  O   O7        1.0  0.35872  0.21297999999999997  0.75939  1.0000
  O   O8        1.0  0.20799  0.9273799999999999  0.54355  1.0000
  O   O9        1.0  0.12527  0.85983  0.36733  1.0000
  O   O10       1.0  0.41821  0.8148299999999999  0.32720999999999995  1.0000
  O   O11       1.0  0.14125  0.7867999999999998  0.25963  1.0000
  O   O12       1.0  0.29168  0.07176  0.04338  1.0000
  O   O13       1.0  0.87468  0.8595199999999997  0.63348  1.0000
  O   O14       1.0  0.5818899999999998  0.8148299999999999  0.67313  1.0000
  O   O15       1.0  0.8564499999999998  0.78741  0.74227  1.0000
  O   O16       1.0  0.70162  0.07494999999999997  0.95639  1.0000
  O   O17       1.0  0.37477  0.85935  0.8662499999999999  1.0000
  O   O18       1.0  0.08075999999999997  0.8149299999999998  0.82755  1.0000
  O   O19       1.0  0.35219  0.7873399999999998  0.75711  1.0000
  O   O20       1.0  0.20546  0.07419999999999997  0.54366  1.0000
  O   O21       1.0  0.62557  0.8599  0.13285  1.0000
  O   O22       1.0  0.91846  0.8147999999999999  0.17302  1.0000
  O   O23       1.0  0.6411199999999998  0.78694  0.24046  1.0000
  O   O24       1.0  0.79249  0.07218  0.45655  1.0000
  O   O25       1.0  0.87466  0.14017999999999997  0.63266  1.0000
  O   O26       1.0  0.58179  0.18512  0.67285  1.0000
  O   O27       1.0  0.85899  0.21313999999999994  0.74035  1.0000
  O   O28       1.0  0.70788  0.92787  0.95661  1.0000
  O   O29       1.0  0.12478  0.14019  0.36694  1.0000
  O   O30       1.0  0.41749  0.18506  0.32725  1.0000
  O   O31       1.0  0.14159  0.21304999999999993  0.25916  1.0000
  O   O32       1.0  0.30042  0.9247199999999999  0.04385  1.0000
  O   O33       1.0  0.07503  0.00023  0.4331  1.0000
  O   O34       1.0  0.92694  0.9998699999999999  0.56683  1.0000
  O   O35       1.0  0.5749899999999998  0.0004299999999999999  0.06682  1.0000
  O   O36       1.0  0.4259  0.99968  0.93287  1.0000
