data_image0
_chemical_formula_structural       Cd12H48C60N36O16
_chemical_formula_sum              "Cd12 H48 C60 N36 O16"
_cell_length_a       9.93557
_cell_length_b       12.648220000000002
_cell_length_c       21.60925
_cell_angle_alpha    89.60943
_cell_angle_beta     90.20339
_cell_angle_gamma    108.12892

_space_group_name_H-M_alt    "P 1"
_space_group_IT_number       1

loop_
  _space_group_symop_operation_xyz
  'x, y, z'

loop_
  _atom_site_type_symbol
  _atom_site_label
  _atom_site_symmetry_multiplicity
  _atom_site_fract_x
  _atom_site_fract_y
  _atom_site_fract_z
  _atom_site_occupancy
  Cd  Cd1       1.0  0.16588999999999995  0.41105999999999987  0.56443  1.0000
  Cd  Cd2       1.0  0.15063  0.27247  0.72071  1.0000
  Cd  Cd3       1.0  0.53373  0.05256  0.555  1.0000
  Cd  Cd4       1.0  0.82908  0.09168  0.06574000000000002  1.0000
  Cd  Cd5       1.0  0.8465499999999999  0.22534999999999997  0.22191000000000005  1.0000
  Cd  Cd6       1.0  0.46149  0.44974999999999987  0.05525  1.0000
  Cd  Cd7       1.0  0.82729  0.58591  0.43816000000000005  1.0000
  Cd  Cd8       1.0  0.8460399999999999  0.72555  0.28245000000000003  1.0000
  Cd  Cd9       1.0  0.4617499999999998  0.9440699999999997  0.45037  1.0000
  Cd  Cd10      1.0  0.17068999999999995  0.9088799999999999  0.9381600000000002  1.0000
  Cd  Cd11      1.0  0.15154999999999988  0.7724099999999998  0.7818600000000001  1.0000
  Cd  Cd12      1.0  0.53662  0.55092  0.94812  1.0000
  H   H1        1.0  0.10676  0.59524  0.35388  1.0000
  H   H2        1.0  0.2322399999999999  0.6844899999999998  0.25906  1.0000
  H   H3        1.0  0.54843  0.52223  0.29045  1.0000
  H   H4        1.0  0.43070999999999987  0.4433999999999999  0.38856  1.0000
  H   H5        1.0  0.10667999999999997  0.4954299999999999  0.8005200000000001  1.0000
  H   H6        1.0  0.14424999999999993  0.66735  0.6309300000000001  1.0000
  H   H7        1.0  0.77696  0.08660999999999998  0.68531  1.0000
  H   H8        1.0  0.84828  0.24364  0.51127  1.0000
  H   H9        1.0  0.37953  0.11975  0.67581  1.0000
  H   H10       1.0  0.45334999999999986  0.3180799999999999  0.51553  1.0000
  H   H11       1.0  0.5545599999999999  0.75594  0.22972000000000006  1.0000
  H   H12       1.0  0.41467  0.68885  0.17844  1.0000
  H   H13       1.0  0.8863199999999999  0.90392  0.85779  1.0000
  H   H14       1.0  0.76272  0.8183099999999999  0.7620300000000001  1.0000
  H   H15       1.0  0.44998  0.9841399999999998  0.79082  1.0000
  H   H16       1.0  0.5671  0.06054999999999998  0.8894  1.0000
  H   H17       1.0  0.8940099999999999  0.0015499999999999997  0.30101  1.0000
  H   H18       1.0  0.8603699999999999  0.8346399999999999  0.13115  1.0000
  H   H19       1.0  0.22009999999999996  0.41227999999999987  0.18722000000000003  1.0000
  H   H20       1.0  0.14846  0.26217  0.01237  1.0000
  H   H21       1.0  0.62104  0.38340999999999986  0.17706  1.0000
  H   H22       1.0  0.53948  0.18530999999999995  0.01797  1.0000
  H   H23       1.0  0.44339999999999996  0.7488699999999999  0.73161  1.0000
  H   H24       1.0  0.5830299999999999  0.8171999999999998  0.68044  1.0000
  H   H25       1.0  0.88282  0.40023  0.6472  1.0000
  H   H26       1.0  0.76157  0.31443  0.74374  1.0000
  H   H27       1.0  0.44515999999999994  0.4768799999999999  0.71318  1.0000
  H   H28       1.0  0.5587599999999999  0.55209  0.61359  1.0000
  H   H29       1.0  0.8928199999999998  0.5025799999999999  0.20313000000000003  1.0000
  H   H30       1.0  0.84911  0.3296099999999999  0.3725800000000001  1.0000
  H   H31       1.0  0.21838999999999997  0.91302  0.31963  1.0000
  H   H32       1.0  0.14637999999999995  0.7539899999999999  0.49302  1.0000
  H   H33       1.0  0.61847  0.8812999999999998  0.32728  1.0000
  H   H34       1.0  0.5401099999999998  0.6786599999999999  0.4860500000000001  1.0000
  H   H35       1.0  0.44119  0.24405999999999997  0.7746600000000002  1.0000
  H   H36       1.0  0.58185  0.31205  0.8252500000000002  1.0000
  H   H37       1.0  0.11501999999999998  0.09311  0.14494000000000004  1.0000
  H   H38       1.0  0.23639  0.17988  0.24096  1.0000
  H   H39       1.0  0.55547  0.02007  0.2127  1.0000
  H   H40       1.0  0.44138  0.9435199999999999  0.11357000000000002  1.0000
  H   H41       1.0  0.10652999999999997  0.9966799999999999  0.70232  1.0000
  H   H42       1.0  0.14277  0.16499  0.8718300000000001  1.0000
  H   H43       1.0  0.77844  0.58562  0.8178400000000001  1.0000
  H   H44       1.0  0.8535699999999999  0.73665  0.9923500000000001  1.0000
  H   H45       1.0  0.37992999999999993  0.61772  0.8269200000000001  1.0000
  H   H46       1.0  0.46268  0.81876  0.9848300000000002  1.0000
  H   H47       1.0  0.55803  0.25227  0.27165  1.0000
  H   H48       1.0  0.41574  0.18583999999999998  0.32204000000000005  1.0000
  C   C1        1.0  0.26047  0.51367  0.37776000000000004  1.0000
  C   C2        1.0  0.20337  0.57933  0.33989  1.0000
  C   C3        1.0  0.27418  0.62902  0.2863  1.0000
  C   C4        1.0  0.40099999999999997  0.6114199999999999  0.26824000000000003  1.0000
  C   C5        1.0  0.45182999999999995  0.5391199999999999  0.30416  1.0000
  C   C6        1.0  0.38496999999999987  0.49314999999999987  0.35893  1.0000
  C   C7        1.0  0.19904999999999998  0.4729499999999999  0.43996  1.0000
  C   C8        1.0  0.57644  0.6093  0.18442000000000003  1.0000
  C   C9        1.0  0.11844999999999996  0.5166299999999999  0.75175  1.0000
  C   C10       1.0  0.13946999999999996  0.6041  0.66553  1.0000
  C   C11       1.0  0.8265199999999999  0.1402  0.6469400000000001  1.0000
  C   C12       1.0  0.86105  0.21898  0.55852  1.0000
  C   C13       1.0  0.37569999999999987  0.18203999999999995  0.6417500000000002  1.0000
  C   C14       1.0  0.41219  0.28043  0.55954  1.0000
  C   C15       1.0  0.48637  0.67412  0.21396  1.0000
  C   C16       1.0  0.73428  0.9870299999999997  0.8801100000000001  1.0000
  C   C17       1.0  0.79095  0.9212799999999998  0.84288  1.0000
  C   C18       1.0  0.72114  0.87369  0.7889000000000003  1.0000
  C   C19       1.0  0.5955799999999998  0.8931399999999998  0.77003  1.0000
  C   C20       1.0  0.54553  0.9658499999999998  0.8052300000000002  1.0000
  C   C21       1.0  0.61181  0.0102  0.86027  1.0000
  C   C22       1.0  0.7949399999999999  0.025539999999999997  0.94248  1.0000
  C   C23       1.0  0.4194399999999999  0.89452  0.6853800000000001  1.0000
  C   C24       1.0  0.88282  0.9816499999999999  0.2522  1.0000
  C   C25       1.0  0.86329  0.89648  0.16588000000000003  1.0000
  C   C26       1.0  0.17062999999999998  0.35991999999999996  0.14863  1.0000
  C   C27       1.0  0.13559999999999997  0.28456999999999993  0.05982000000000001  1.0000
  C   C28       1.0  0.62334  0.3212499999999999  0.14314  1.0000
  C   C29       1.0  0.58309  0.22302999999999995  0.06149000000000001  1.0000
  C   C30       1.0  0.5108999999999999  0.83103  0.71569  1.0000
  C   C31       1.0  0.72788  0.48043  0.62365  1.0000
  C   C32       1.0  0.78674  0.41632  0.66176  1.0000
  C   C33       1.0  0.71859  0.3689299999999999  0.7162500000000003  1.0000
  C   C34       1.0  0.59278  0.3875899999999999  0.73488  1.0000
  C   C35       1.0  0.5407499999999998  0.4590499999999999  0.69884  1.0000
  C   C36       1.0  0.60507  0.50275  0.64322  1.0000
  C   C37       1.0  0.78754  0.51833  0.561  1.0000
  C   C38       1.0  0.41857999999999995  0.39073  0.81902  1.0000
  C   C39       1.0  0.8787599999999999  0.48104  0.25181000000000003  1.0000
  C   C40       1.0  0.8543599999999999  0.39283  0.33791000000000004  1.0000
  C   C41       1.0  0.16883  0.85855  0.35768  1.0000
  C   C42       1.0  0.13381999999999994  0.7786699999999998  0.44575000000000004  1.0000
  C   C43       1.0  0.62096  0.8180999999999998  0.361  1.0000
  C   C44       1.0  0.58228  0.71745  0.44242  1.0000
  C   C45       1.0  0.50935  0.32618  0.7899000000000002  1.0000
  C   C46       1.0  0.27073  0.01338  0.12280000000000002  1.0000
  C   C47       1.0  0.21133  0.07737  0.16001  1.0000
  C   C48       1.0  0.27976999999999996  0.12551999999999996  0.21415  1.0000
  C   C49       1.0  0.4063  0.10798  0.23326000000000002  1.0000
  C   C50       1.0  0.45904999999999996  0.036809999999999996  0.19808  1.0000
  C   C51       1.0  0.39442999999999995  0.9922899999999999  0.14278  1.0000
  C   C52       1.0  0.21152999999999994  0.9744199999999998  0.060340000000000005  1.0000
  C   C53       1.0  0.57762  0.10623999999999997  0.31953  1.0000
  C   C54       1.0  0.11817  0.016879999999999992  0.7510900000000001  1.0000
  C   C55       1.0  0.1389  0.10273  0.83723  1.0000
  C   C56       1.0  0.82883  0.63827  0.8561700000000002  1.0000
  C   C57       1.0  0.8654299999999999  0.71406  0.9448400000000001  1.0000
  C   C58       1.0  0.37803000000000003  0.68068  0.8604000000000003  1.0000
  C   C59       1.0  0.41896999999999995  0.7802899999999998  0.9415000000000001  1.0000
  C   C60       1.0  0.4891399999999999  0.17076  0.28783  1.0000
  N   N1        1.0  0.14124999999999996  0.44906  0.7088900000000001  1.0000
  N   N2        1.0  0.15485999999999997  0.50539  0.65324  1.0000
  N   N3        1.0  0.11638999999999995  0.61475  0.7267200000000001  1.0000
  N   N4        1.0  0.9563699999999999  0.2143  0.64908  1.0000
  N   N5        1.0  0.9779799999999998  0.26508  0.59156  1.0000
  N   N6        1.0  0.7634799999999999  0.14023999999999998  0.59114  1.0000
  N   N7        1.0  0.29718  0.25014  0.6462400000000001  1.0000
  N   N8        1.0  0.32063  0.31403  0.59316  1.0000
  N   N9        1.0  0.44914999999999994  0.19769  0.58811  1.0000
  N   N10       1.0  0.8593899999999999  0.04998  0.20935000000000006  1.0000
  N   N11       1.0  0.84666  0.99512  0.15362  1.0000
  N   N12       1.0  0.8861799999999999  0.8844699999999998  0.22713000000000005  1.0000
  N   N13       1.0  0.04136999999999997  0.28496  0.15068  1.0000
  N   N14       1.0  0.019349999999999992  0.23633  0.09290000000000001  1.0000
  N   N15       1.0  0.23298999999999992  0.3625499999999999  0.09264000000000001  1.0000
  N   N16       1.0  0.70253  0.2534199999999999  0.1472  1.0000
  N   N17       1.0  0.67669  0.18970999999999993  0.09447  1.0000
  N   N18       1.0  0.54715  0.30544  0.09014  1.0000
  N   N19       1.0  0.8540099999999999  0.5482699999999999  0.29438  1.0000
  N   N20       1.0  0.83819  0.49138999999999994  0.34995  1.0000
  N   N21       1.0  0.8798699999999999  0.38274  0.27694  1.0000
  N   N22       1.0  0.03953999999999993  0.7836699999999998  0.35501  1.0000
  N   N23       1.0  0.017549999999999965  0.7321  0.41233  1.0000
  N   N24       1.0  0.23126999999999998  0.85832  0.41361000000000003  1.0000
  N   N25       1.0  0.6992099999999998  0.7497999999999998  0.35623  1.0000
  N   N26       1.0  0.6743499999999999  0.6845099999999997  0.40879  1.0000
  N   N27       1.0  0.54634  0.8011499999999998  0.41436000000000006  1.0000
  N   N28       1.0  0.14181999999999986  0.9487699999999998  0.7940200000000001  1.0000
  N   N29       1.0  0.15523  0.004069999999999998  0.84961  1.0000
  N   N30       1.0  0.11536999999999999  0.11429999999999998  0.7760100000000002  1.0000
  N   N31       1.0  0.9581399999999999  0.7131299999999998  0.85369  1.0000
  N   N32       1.0  0.9811899999999999  0.7620699999999999  0.9114  1.0000
  N   N33       1.0  0.76734  0.6359499999999999  0.91233  1.0000
  N   N34       1.0  0.2987399999999999  0.7483599999999999  0.8560400000000002  1.0000
  N   N35       1.0  0.32499999999999996  0.8129899999999999  0.9084300000000001  1.0000
  N   N36       1.0  0.45477  0.6974  0.91325  1.0000
  O   O1        1.0  0.29366999999999993  0.48178999999999994  0.48302000000000006  1.0000
  O   O2        1.0  0.06777999999999994  0.4344599999999999  0.44987000000000005  1.0000
  O   O3        1.0  0.71012  0.6399299999999999  0.19349000000000005  1.0000
  O   O4        1.0  0.50793  0.52419  0.15363  1.0000
  O   O5        1.0  0.7001699999999998  0.021469999999999996  0.98456  1.0000
  O   O6        1.0  0.92622  0.05821  0.9532300000000002  1.0000
  O   O7        1.0  0.28563  0.86222  0.6938000000000001  1.0000
  O   O8        1.0  0.48637  0.9801  0.65424  1.0000
  O   O9        1.0  0.69367  0.51861  0.51902  1.0000
  O   O10       1.0  0.91868  0.5464499999999999  0.54978  1.0000
  O   O11       1.0  0.28515  0.35965  0.80945  1.0000
  O   O12       1.0  0.48589  0.47634  0.84969  1.0000
  O   O13       1.0  0.3063799999999999  0.9837199999999998  0.01777  1.0000
  O   O14       1.0  0.0801  0.93635  0.04993000000000001  1.0000
  O   O15       1.0  0.71082  0.13304  0.30954000000000004  1.0000
  O   O16       1.0  0.50813  0.024549999999999995  0.35281  1.0000
