data_image0
_chemical_formula_structural       Ho4Cu4H36C64N8O40
_chemical_formula_sum              "Ho4 Cu4 H36 C64 N8 O40"
_cell_length_a       11.06132
_cell_length_b       13.76022
_cell_length_c       19.342049999999997
_cell_angle_alpha    89.94021
_cell_angle_beta     102.69327999999999
_cell_angle_gamma    89.98242

_space_group_name_H-M_alt    "P 1"
_space_group_IT_number       1

loop_
  _space_group_symop_operation_xyz
  'x, y, z'

loop_
  _atom_site_type_symbol
  _atom_site_label
  _atom_site_symmetry_multiplicity
  _atom_site_fract_x
  _atom_site_fract_y
  _atom_site_fract_z
  _atom_site_occupancy
  Ho  Ho1       1.0  0.14547  0.56911  0.06608  1.0000
  Ho  Ho2       1.0  0.8515999999999999  0.43097  0.9338999999999998  1.0000
  Ho  Ho3       1.0  0.15136  0.93076  0.56613  1.0000
  Ho  Ho4       1.0  0.8543999999999999  0.06782  0.43379999999999996  1.0000
  Cu  Cu1       1.0  0.75944  0.55684  0.27591  1.0000
  Cu  Cu2       1.0  0.75993  0.9385500000000001  0.77653  1.0000
  Cu  Cu3       1.0  0.24092999999999995  0.05697  0.22235  1.0000
  Cu  Cu4       1.0  0.24264999999999998  0.43854  0.72256  1.0000
  H   H1        1.0  0.2352999999999999  0.26424  0.9462599999999999  1.0000
  H   H2        1.0  0.7674299999999998  0.74525  0.05271  1.0000
  H   H3        1.0  0.12562  0.7529  0.71773  1.0000
  H   H4        1.0  0.7727699999999998  0.7590500000000001  0.55648  1.0000
  H   H5        1.0  0.88032  0.24478  0.28425  1.0000
  H   H6        1.0  0.7762  0.74222  0.83482  1.0000
  H   H7        1.0  0.21924999999999994  0.8781300000000001  0.1315  1.0000
  H   H8        1.0  0.71684  0.63325  0.08424  1.0000
  H   H9        1.0  0.49092  0.99531  0.29302  1.0000
  H   H10       1.0  0.7775299999999998  0.75242  0.3375  1.0000
  H   H11       1.0  0.30407999999999996  0.14633  0.50738  1.0000
  H   H12       1.0  0.22102999999999995  0.61716  0.63126  1.0000
  H   H13       1.0  0.22615  0.24324  0.66382  1.0000
  H   H14       1.0  0.30386  0.35801000000000005  0.006869999999999999  1.0000
  H   H15       1.0  0.7822499999999998  0.11865  0.8675700000000001  1.0000
  H   H16       1.0  0.78194  0.37601000000000007  0.36607  1.0000
  H   H17       1.0  0.22374  0.25245  0.16225  1.0000
  H   H18       1.0  0.5077300000000001  0.49616  0.20701  1.0000
  H   H19       1.0  0.9865299999999999  0.6026  0.21874  1.0000
  H   H20       1.0  0.4938499999999999  0.49889000000000006  0.79187  1.0000
  H   H21       1.0  0.72283  0.87285  0.58614  1.0000
  H   H22       1.0  0.9907  0.8960000000000001  0.72161  1.0000
  H   H23       1.0  0.69349  0.65342  0.99172  1.0000
  H   H24       1.0  0.010790000000000004  0.3958500000000001  0.777  1.0000
  H   H25       1.0  0.013599999999999987  0.10103  0.27932  1.0000
  H   H26       1.0  0.11842999999999997  0.7472500000000001  0.21342999999999998  1.0000
  H   H27       1.0  0.3785  0.34786  0.19999  1.0000
  H   H28       1.0  0.27813  0.37883  0.91425  1.0000
  H   H29       1.0  0.51007  0.9993500000000001  0.70742  1.0000
  H   H30       1.0  0.2344  0.23922  0.44586  1.0000
  H   H31       1.0  0.38082999999999995  0.14818  0.6996  1.0000
  H   H32       1.0  0.62204  0.64792  0.79945  1.0000
  H   H33       1.0  0.61964  0.8462  0.30024  1.0000
  H   H34       1.0  0.69863  0.84924  0.494  1.0000
  H   H35       1.0  0.87624  0.25257  0.78043  1.0000
  H   H36       1.0  0.28285  0.12636  0.41482  1.0000
  C   C1        1.0  0.9543999999999998  0.24653  0.75501  1.0000
  C   C2        1.0  0.14775  0.25376  0.18939  1.0000
  C   C3        1.0  0.69116  0.36762  0.33096  1.0000
  C   C4        1.0  0.46083  0.9338900000000002  0.25806  1.0000
  C   C5        1.0  0.4899699999999999  0.77196  0.21653  1.0000
  C   C6        1.0  0.8847099999999998  0.8818100000000001  0.54405  1.0000
  C   C7        1.0  0.02389999999999994  0.65875  0.77449  1.0000
  C   C8        1.0  0.8894099999999998  0.07542  0.72396  1.0000
  C   C9        1.0  0.5319800000000001  0.8498800000000001  0.26169  1.0000
  C   C10       1.0  0.4668099999999997  0.35069  0.23806999999999998  1.0000
  C   C11       1.0  0.3114199999999999  0.62623  0.66667  1.0000
  C   C12       1.0  0.12079000000000002  0.07151  0.65559  1.0000
  C   C13       1.0  0.6921599999999999  0.12763  0.83183  1.0000
  C   C14       1.0  0.10767  0.92344  0.27355  1.0000
  C   C15       1.0  0.04771  0.7466700000000001  0.74334  1.0000
  C   C16       1.0  0.8796899999999999  0.62134  0.04341  1.0000
  C   C17       1.0  0.50919  0.2719  0.2825  1.0000
  C   C18       1.0  0.11541999999999994  0.38233  0.9564499999999999  1.0000
  C   C19       1.0  0.03041000000000001  0.16923  0.25476  1.0000
  C   C20       1.0  0.51133  0.22406000000000004  0.78216  1.0000
  C   C21       1.0  0.43056  0.31294  0.78188  1.0000
  C   C22       1.0  0.11372999999999997  0.5757  0.77555  1.0000
  C   C23       1.0  0.04272000000000001  0.75199  0.24087  1.0000
  C   C24       1.0  0.028700000000000003  0.32744000000000006  0.75313  1.0000
  C   C25       1.0  0.4635  0.5605  0.75705  1.0000
  C   C26       1.0  0.97311  0.82737  0.74537  1.0000
  C   C27       1.0  0.6872599999999999  0.29816  0.87382  1.0000
  C   C28       1.0  0.9204399999999999  0.83922  0.30819  1.0000
  C   C29       1.0  0.53448  0.64458  0.76079  1.0000
  C   C30       1.0  0.11758  0.42503  0.15461  1.0000
  C   C31       1.0  0.5398599999999999  0.06111000000000001  0.74211  1.0000
  C   C32       1.0  0.6263799999999999  0.21454  0.83034  1.0000
  C   C33       1.0  0.07929  0.33865  0.19059  1.0000
  C   C34       1.0  0.57069  0.6835  0.21562  1.0000
  C   C35       1.0  0.7574099999999998  0.66708  0.04284  1.0000
  C   C36       1.0  0.08060999999999992  0.15738  0.69105  1.0000
  C   C37       1.0  0.8808199999999999  0.92537  0.34376  1.0000
  C   C38       1.0  0.8828299999999998  0.57044  0.84292  1.0000
  C   C39       1.0  0.3755099999999999  0.78216  0.16794  1.0000
  C   C40       1.0  0.30933  0.86873  0.1672  1.0000
  C   C41       1.0  0.9795599999999998  0.33766  0.22516  1.0000
  C   C42       1.0  0.9694899999999997  0.67058  0.24349  1.0000
  C   C43       1.0  0.31512999999999997  0.69941  0.12333  1.0000
  C   C44       1.0  0.6861  0.19884  0.37517  1.0000
  C   C45       1.0  0.76274  0.83696  0.54535  1.0000
  C   C46       1.0  0.53846  0.43431  0.24151  1.0000
  C   C47       1.0  0.6244699999999999  0.28133  0.33055  1.0000
  C   C48       1.0  0.24201000000000003  0.1609  0.4557800000000001  1.0000
  C   C49       1.0  0.24045999999999995  0.34261  0.95585  1.0000
  C   C50       1.0  0.4686999999999999  0.14516000000000004  0.73804  1.0000
  C   C51       1.0  0.019949999999999978  0.83898  0.27344  1.0000
  C   C52       1.0  0.95651  0.25027  0.25723  1.0000
  C   C53       1.0  0.14910999999999994  0.24226  0.69012  1.0000
  C   C54       1.0  0.9789699999999998  0.15861  0.72417  1.0000
  C   C55       1.0  0.11802  0.11765  0.45398  1.0000
  C   C56       1.0  0.5711  0.81271  0.71634  1.0000
  C   C57       1.0  0.3159799999999999  0.7963500000000001  0.6241  1.0000
  C   C58       1.0  0.8532899999999999  0.74156  0.80852  1.0000
  C   C59       1.0  0.37742  0.7128000000000001  0.66754  1.0000
  C   C60       1.0  0.8911799999999999  0.42161  0.22460999999999998  1.0000
  C   C61       1.0  0.8528099999999998  0.75396  0.30976  1.0000
  C   C62       1.0  0.42744999999999994  0.18377  0.2824  1.0000
  C   C63       1.0  0.9224  0.6569000000000002  0.80759  1.0000
  C   C64       1.0  0.4919199999999999  0.72301  0.71612  1.0000
  N   N1        1.0  0.8746  0.67162  0.2773  1.0000
  N   N2        1.0  0.6498099999999999  0.44234000000000007  0.28678  1.0000
  N   N3        1.0  0.35292  0.55188  0.71121  1.0000
  N   N4        1.0  0.8759599999999998  0.82478  0.77738  1.0000
  N   N5        1.0  0.6505199999999999  0.05272  0.78798  1.0000
  N   N6        1.0  0.1261  0.3252  0.72134  1.0000
  N   N7        1.0  0.35050999999999993  0.94281  0.21193  1.0000
  N   N8        1.0  0.12592999999999996  0.1711  0.22151  1.0000
  O   O1        1.0  0.93215  0.48710000000000003  0.83929  1.0000
  O   O2        1.0  0.31011  0.8773900000000002  0.65623  1.0000
  O   O3        1.0  0.9030499999999998  0.46626  0.2848  1.0000
  O   O4        1.0  0.8000599999999999  0.58115  0.8798  1.0000
  O   O5        1.0  0.10338  0.47325  0.97235  1.0000
  O   O6        1.0  0.07228000000000001  0.98808  0.65996  1.0000
  O   O7        1.0  0.6245099999999999  0.8436800000000001  0.77895  1.0000
  O   O8        1.0  0.25989  0.78566  0.55923  1.0000
  O   O9        1.0  0.9800799999999998  0.66939  0.06252  1.0000
  O   O10       1.0  0.41148  0.1523  0.34001  1.0000
  O   O11       1.0  0.81146  0.43794  0.16986  1.0000
  O   O12       1.0  0.41802  0.34727  0.83939  1.0000
  O   O13       1.0  0.68339  0.114  0.34737  1.0000
  O   O14       1.0  0.9264199999999998  0.009400000000000002  0.33717  1.0000
  O   O15       1.0  0.62371  0.65082  0.27791  1.0000
  O   O16       1.0  0.8069399999999999  0.06164  0.67002  1.0000
  O   O17       1.0  0.8848399999999997  0.53082  0.02542  1.0000
  O   O18       1.0  0.10911999999999997  0.02742  0.47234000000000004  1.0000
  O   O19       1.0  0.75157  0.2145  0.43766  1.0000
  O   O20       1.0  0.7464499999999998  0.28554  0.93804  1.0000
  O   O21       1.0  0.20267999999999994  0.08225  0.61804  1.0000
  O   O22       1.0  0.018910000000000052  0.32948  0.9405700000000001  1.0000
  O   O23       1.0  0.98436  0.83215  0.55926  1.0000
  O   O24       1.0  0.25282  0.71405  0.06  1.0000
  O   O25       1.0  0.09711999999999997  0.96583  0.21248  1.0000
  O   O26       1.0  0.8903199999999998  0.97309  0.52821  1.0000
  O   O27       1.0  0.10167999999999999  0.53016  0.71564  1.0000
  O   O28       1.0  0.19429  0.56149  0.83023  1.0000
  O   O29       1.0  0.9031  0.02944  0.78388  1.0000
  O   O30       1.0  0.06918  0.50849  0.16002  1.0000
  O   O31       1.0  0.18563  0.94241  0.32858  1.0000
  O   O32       1.0  0.68929  0.38087  0.84337  1.0000
  O   O33       1.0  0.58225  0.84762  0.65876  1.0000
  O   O34       1.0  0.80161  0.9142300000000001  0.38283  1.0000
  O   O35       1.0  0.37678  0.15117  0.21974  1.0000
  O   O36       1.0  0.37674  0.34353000000000006  0.71911  1.0000
  O   O37       1.0  0.019339999999999996  0.16718  0.43382  1.0000
  O   O38       1.0  0.31542999999999993  0.61525  0.15238  1.0000
  O   O39       1.0  0.5831399999999999  0.6518  0.15743  1.0000
  O   O40       1.0  0.19775999999999996  0.4147  0.11606000000000001  1.0000
