data_image0
_chemical_formula_structural       Cd8H32C76N12O40
_chemical_formula_sum              "Cd8 H32 C76 N12 O40"
_cell_length_a       7.60536
_cell_length_b       18.359140000000004
_cell_length_c       16.66753
_cell_angle_alpha    90.04171
_cell_angle_beta     113.18047
_cell_angle_gamma    89.95459

_symmetry_space_group_name_H-M    'P 1'
_symmetry_Int_Tables_number       1

loop_
  _symmetry_equiv_pos_as_xyz
  'x,y,z'

loop_
  _atom_site_type_symbol
  _atom_site_label
  _atom_site_symmetry_multiplicity
  _atom_site_fract_x
  _atom_site_fract_y
  _atom_site_fract_z
  _atom_site_occupancy
  Cd  Cd1       1.0  0.3794  0.13987  0.05128  1.0000
  Cd  Cd2       1.0  0.97724  0.50077  0.38228  1.0000
  Cd  Cd3       1.0  0.61796  0.63998  0.44847  1.0000
  Cd  Cd4       1.0  0.023000000000000003  0.00119  0.11745  1.0000
  Cd  Cd5       1.0  0.6206  0.8601300000000001  0.9487200000000001  1.0000
  Cd  Cd6       1.0  0.022760000000000207  0.49923  0.6177200000000003  1.0000
  Cd  Cd7       1.0  0.38204  0.36002  0.55153  1.0000
  Cd  Cd8       1.0  0.9770000000000002  0.9988100000000001  0.8825500000000002  1.0000
  H   H1        1.0  0.2001500000000003  0.61299  0.8233700000000003  1.0000
  H   H2        1.0  0.03335000000000001  0.74942  0.2598  1.0000
  H   H3        1.0  0.08817  0.76348  0.01153  1.0000
  H   H4        1.0  0.1433500000000001  0.55622  0.14264000000000004  1.0000
  H   H5        1.0  0.2973700000000001  0.40936  0.01718  1.0000
  H   H6        1.0  0.43678  0.28622  0.83053  1.0000
  H   H7        1.0  0.33183  0.51578  0.79128  1.0000
  H   H8        1.0  0.57242  0.09209000000000002  0.91696  1.0000
  H   H9        1.0  0.80056  0.11304000000000002  0.67647  1.0000
  H   H10       1.0  0.96528  0.24922  0.23965000000000006  1.0000
  H   H11       1.0  0.9105500000000003  0.2637900000000001  0.48787000000000014  1.0000
  H   H12       1.0  0.8591900000000001  0.05605000000000001  0.35783  1.0000
  H   H13       1.0  0.70212  0.9091200000000002  0.48247  1.0000
  H   H14       1.0  0.5634  0.78703  0.66973  1.0000
  H   H15       1.0  0.66683  0.01661  0.70793  1.0000
  H   H16       1.0  0.42676  0.59117  0.58301  1.0000
  H   H17       1.0  0.7998500000000001  0.38702  0.17663000000000006  1.0000
  H   H18       1.0  0.9666500000000001  0.25058  0.7402000000000002  1.0000
  H   H19       1.0  0.91183  0.23653000000000002  0.98847  1.0000
  H   H20       1.0  0.8566500000000001  0.44378000000000006  0.8573500000000001  1.0000
  H   H21       1.0  0.70263  0.59064  0.98282  1.0000
  H   H22       1.0  0.56322  0.7137800000000001  0.16947  1.0000
  H   H23       1.0  0.6681700000000003  0.48422000000000004  0.20872  1.0000
  H   H24       1.0  0.42757999999999996  0.90791  0.08304  1.0000
  H   H25       1.0  0.19944  0.8869699999999999  0.32353  1.0000
  H   H26       1.0  0.03472000000000025  0.75078  0.7603500000000002  1.0000
  H   H27       1.0  0.08945000000000004  0.73621  0.51213  1.0000
  H   H28       1.0  0.1408099999999999  0.94396  0.64217  1.0000
  H   H29       1.0  0.29788000000000003  0.09088000000000003  0.51753  1.0000
  H   H30       1.0  0.4366  0.21297  0.33027  1.0000
  H   H31       1.0  0.33317  0.9833900000000001  0.29207  1.0000
  H   H32       1.0  0.5732400000000002  0.40883  0.41699  1.0000
  C   C1        1.0  0.05891000000000001  0.60439  0.27776  1.0000
  C   C2        1.0  0.08140000000000003  0.6482600000000002  0.20696000000000006  1.0000
  C   C3        1.0  0.05627999999999997  0.72399  0.2057  1.0000
  C   C4        1.0  0.058470000000000015  0.7657  0.13549  1.0000
  C   C5        1.0  0.08769000000000003  0.73192  0.06669  1.0000
  C   C6        1.0  0.12356  0.6561  0.07034  1.0000
  C   C7        1.0  0.11832000000000005  0.61459  0.14050000000000007  1.0000
  C   C8        1.0  0.034950000000000016  0.84655  0.13676000000000002  1.0000
  C   C9        1.0  0.16870000000000002  0.61985  0.00371  1.0000
  C   C10       1.0  0.2490800000000002  0.5379300000000001  0.9341400000000002  1.0000
  C   C11       1.0  0.3085200000000002  0.47069  0.9077600000000002  1.0000
  C   C12       1.0  0.3261199999999999  0.40718  0.95824  1.0000
  C   C13       1.0  0.37513  0.34138  0.93059  1.0000
  C   C14       1.0  0.4031300000000001  0.33819  0.85248  1.0000
  C   C15       1.0  0.3859100000000002  0.40084  0.80201  1.0000
  C   C16       1.0  0.3424000000000003  0.46717  0.8302200000000002  1.0000
  C   C17       1.0  0.39820000000000033  0.39276  0.7153900000000002  1.0000
  C   C18       1.0  0.3860800000000001  0.2718  0.9786600000000002  1.0000
  C   C19       1.0  0.6610900000000001  0.06589000000000002  0.9792700000000002  1.0000
  C   C20       1.0  0.94373  0.10332000000000002  0.22305  1.0000
  C   C21       1.0  0.91945  0.1479  0.29304000000000013  1.0000
  C   C22       1.0  0.9423600000000003  0.22376  0.2937  1.0000
  C   C23       1.0  0.9390000000000001  0.26561  0.3636600000000001  1.0000
  C   C24       1.0  0.9104600000000002  0.23201  0.4327000000000001  1.0000
  C   C25       1.0  0.8757800000000001  0.15617  0.4293400000000001  1.0000
  C   C26       1.0  0.88271  0.11448  0.35962  1.0000
  C   C27       1.0  0.9631400000000001  0.34643  0.36314  1.0000
  C   C28       1.0  0.8304100000000002  0.11988000000000001  0.4958100000000001  1.0000
  C   C29       1.0  0.75001  0.038040000000000004  0.56523  1.0000
  C   C30       1.0  0.6906500000000002  0.9710200000000001  0.5917000000000002  1.0000
  C   C31       1.0  0.67342  0.90742  0.54142  1.0000
  C   C32       1.0  0.6245  0.84178  0.56914  1.0000
  C   C33       1.0  0.5967200000000003  0.83878  0.6472800000000002  1.0000
  C   C34       1.0  0.61348  0.90154  0.69761  1.0000
  C   C35       1.0  0.65647  0.96783  0.66922  1.0000
  C   C36       1.0  0.60242  0.89302  0.78442  1.0000
  C   C37       1.0  0.6136800000000002  0.7725100000000003  0.52062  1.0000
  C   C38       1.0  0.3383500000000001  0.56488  0.5206900000000001  1.0000
  C   C39       1.0  0.9410900000000004  0.3956100000000001  0.7222400000000002  1.0000
  C   C40       1.0  0.91861  0.35174  0.79304  1.0000
  C   C41       1.0  0.9437200000000002  0.27601  0.7943000000000002  1.0000
  C   C42       1.0  0.9415300000000002  0.23430000000000004  0.8645100000000002  1.0000
  C   C43       1.0  0.9123100000000003  0.26808000000000004  0.9333100000000002  1.0000
  C   C44       1.0  0.87644  0.3439  0.9296600000000003  1.0000
  C   C45       1.0  0.8816800000000005  0.38541  0.8595000000000003  1.0000
  C   C46       1.0  0.9650500000000002  0.15345000000000003  0.8632400000000002  1.0000
  C   C47       1.0  0.8313000000000003  0.38015  0.9962900000000002  1.0000
  C   C48       1.0  0.75092  0.4620699999999999  0.06586  1.0000
  C   C49       1.0  0.69148  0.52931  0.09224  1.0000
  C   C50       1.0  0.6738800000000001  0.59282  0.04176000000000001  1.0000
  C   C51       1.0  0.6248700000000003  0.65863  0.06941  1.0000
  C   C52       1.0  0.59687  0.66182  0.14752000000000004  1.0000
  C   C53       1.0  0.61409  0.5991600000000001  0.19799  1.0000
  C   C54       1.0  0.65761  0.53283  0.16978  1.0000
  C   C55       1.0  0.6018  0.60725  0.28461  1.0000
  C   C56       1.0  0.61392  0.7282000000000001  0.02134  1.0000
  C   C57       1.0  0.3389100000000001  0.93412  0.02073  1.0000
  C   C58       1.0  0.05627000000000016  0.89668  0.7769500000000003  1.0000
  C   C59       1.0  0.08055000000000007  0.85211  0.70696  1.0000
  C   C60       1.0  0.057639999999999976  0.77624  0.7063  1.0000
  C   C61       1.0  0.06099999999999996  0.7344  0.63634  1.0000
  C   C62       1.0  0.08955000000000017  0.76799  0.5673000000000002  1.0000
  C   C63       1.0  0.12422000000000002  0.84383  0.57066  1.0000
  C   C64       1.0  0.11729000000000003  0.8855300000000002  0.64038  1.0000
  C   C65       1.0  0.036859999999999886  0.65357  0.63686  1.0000
  C   C66       1.0  0.16958999999999996  0.8801200000000001  0.50419  1.0000
  C   C67       1.0  0.2499900000000001  0.96196  0.4347700000000001  1.0000
  C   C68       1.0  0.30935000000000007  0.028980000000000002  0.4083000000000001  1.0000
  C   C69       1.0  0.32658000000000004  0.09259  0.45858  1.0000
  C   C70       1.0  0.3755  0.15822  0.43086  1.0000
  C   C71       1.0  0.40328000000000014  0.16123  0.3527200000000001  1.0000
  C   C72       1.0  0.3865200000000001  0.09846  0.3023900000000001  1.0000
  C   C73       1.0  0.3435300000000001  0.03217  0.33078  1.0000
  C   C74       1.0  0.3975800000000001  0.10699  0.21558  1.0000
  C   C75       1.0  0.38632  0.22749000000000003  0.47938  1.0000
  C   C76       1.0  0.66165  0.43512000000000006  0.47931  1.0000
  N   N1        1.0  0.22056  0.54878  0.00734  1.0000
  N   N2        1.0  0.21004999999999993  0.60273  0.88657  1.0000
  N   N3        1.0  0.16001000000000024  0.65453  0.9288500000000002  1.0000
  N   N4        1.0  0.7782300000000001  0.04888  0.49195000000000005  1.0000
  N   N5        1.0  0.7897  0.10275  0.61307  1.0000
  N   N6        1.0  0.8396400000000004  0.15447000000000002  0.5708900000000002  1.0000
  N   N7        1.0  0.77944  0.45122000000000007  0.99266  1.0000
  N   N8        1.0  0.78995  0.39727  0.11343000000000002  1.0000
  N   N9        1.0  0.8399900000000001  0.34547  0.07115000000000003  1.0000
  N   N10       1.0  0.22177  0.95112  0.50805  1.0000
  N   N11       1.0  0.21029999999999996  0.8972600000000001  0.38693  1.0000
  N   N12       1.0  0.16036000000000006  0.84553  0.4291100000000001  1.0000
  O   O1        1.0  0.06455000000000007  0.53437  0.2716200000000001  1.0000
  O   O2        1.0  0.025460000000000056  0.63624  0.33733000000000013  1.0000
  O   O3        1.0  0.13283  0.8814300000000002  0.20595  1.0000
  O   O4        1.0  0.92346  0.87967  0.06738000000000002  1.0000
  O   O5        1.0  0.3176100000000002  0.4404100000000001  0.6550700000000003  1.0000
  O   O6        1.0  0.48283000000000015  0.33794  0.7018400000000002  1.0000
  O   O7        1.0  0.4441700000000003  0.21489  0.9520100000000002  1.0000
  O   O8        1.0  0.33230000000000004  0.27024  0.041840000000000016  1.0000
  O   O9        1.0  0.60738  0.06556  0.04191  1.0000
  O   O10       1.0  0.8175300000000001  0.03647  0.9838000000000002  1.0000
  O   O11       1.0  0.94081  0.0333  0.23025  1.0000
  O   O12       1.0  0.9757400000000002  0.13460000000000003  0.16283  1.0000
  O   O13       1.0  0.8646600000000004  0.3822100000000001  0.29468  1.0000
  O   O14       1.0  0.07634000000000005  0.37847  0.4328300000000001  1.0000
  O   O15       1.0  0.6787900000000002  0.94161  0.8441900000000002  1.0000
  O   O16       1.0  0.5235300000000003  0.83677  0.7985100000000003  1.0000
  O   O17       1.0  0.55642  0.71556  0.54748  1.0000
  O   O18       1.0  0.6661300000000001  0.77132  0.45706000000000013  1.0000
  O   O19       1.0  0.3920000000000001  0.56459  0.4580200000000001  1.0000
  O   O20       1.0  0.18251  0.53511  0.51623  1.0000
  O   O21       1.0  0.93545  0.46563  0.72838  1.0000
  O   O22       1.0  0.97454  0.36377000000000004  0.6626700000000002  1.0000
  O   O23       1.0  0.86717  0.11857  0.79405  1.0000
  O   O24       1.0  0.07653999999999998  0.12033000000000002  0.93262  1.0000
  O   O25       1.0  0.68239  0.5596  0.34493  1.0000
  O   O26       1.0  0.5171700000000001  0.66207  0.29816000000000004  1.0000
  O   O27       1.0  0.55583  0.78511  0.04799  1.0000
  O   O28       1.0  0.6677  0.7297600000000001  0.95816  1.0000
  O   O29       1.0  0.39262000000000014  0.93444  0.95809  1.0000
  O   O30       1.0  0.18247  0.9635299999999999  0.0162  1.0000
  O   O31       1.0  0.05919000000000027  0.9667000000000001  0.7697500000000003  1.0000
  O   O32       1.0  0.02425999999999993  0.86541  0.83717  1.0000
  O   O33       1.0  0.13534  0.61779  0.70532  1.0000
  O   O34       1.0  0.9236600000000005  0.62153  0.5671700000000002  1.0000
  O   O35       1.0  0.32121  0.05839  0.15581  1.0000
  O   O36       1.0  0.4764700000000002  0.16323  0.20149000000000006  1.0000
  O   O37       1.0  0.4435800000000001  0.28445  0.4525200000000001  1.0000
  O   O38       1.0  0.33387  0.22868000000000002  0.54294  1.0000
  O   O39       1.0  0.608  0.43541  0.54198  1.0000
  O   O40       1.0  0.8174900000000002  0.4649  0.4837700000000001  1.0000
