data_image0
_chemical_formula_structural       Zn4H64C108N4O16
_chemical_formula_sum              "Zn4 H64 C108 N4 O16"
_cell_length_a       15.48157
_cell_length_b       15.47692
_cell_length_c       17.70414
_cell_angle_alpha    115.82890999999998
_cell_angle_beta     115.82782999999999
_cell_angle_gamma    89.9905

_space_group_name_H-M_alt    "P 1"
_space_group_IT_number       1

loop_
  _space_group_symop_operation_xyz
  'x, y, z'

loop_
  _atom_site_type_symbol
  _atom_site_label
  _atom_site_symmetry_multiplicity
  _atom_site_fract_x
  _atom_site_fract_y
  _atom_site_fract_z
  _atom_site_occupancy
  Zn  Zn1       1.0  0.04945999999999998  0.04859999999999999  0.09948999999999997  1.0000
  Zn  Zn2       1.0  0.45044999999999996  0.45038  0.9011799999999999  1.0000
  Zn  Zn3       1.0  0.9515499999999999  0.95163  0.9011799999999999  1.0000
  Zn  Zn4       1.0  0.54958  0.5497100000000003  0.09880999999999998  1.0000
  H   H1        1.0  0.28449  0.01020000000000001  0.1775  1.0000
  H   H2        1.0  0.45139  0.06416  0.31748  1.0000
  H   H3        1.0  0.24273  0.19132000000000005  0.25211  1.0000
  H   H4        1.0  0.33918999999999994  0.28164  0.4319799999999999  1.0000
  H   H5        1.0  0.8932099999999998  0.16726000000000002  0.17790999999999998  1.0000
  H   H6        1.0  0.8664900000000001  0.25371  0.31827  1.0000
  H   H7        1.0  0.00986999999999999  0.06111  0.25304  1.0000
  H   H8        1.0  0.09313999999999995  0.15097  0.4329599999999999  1.0000
  H   H9        1.0  0.029100000000000004  0.8248400000000002  0.12643  1.0000
  H   H10       1.0  0.09707  0.7417900000000002  0.2249  1.0000
  H   H11       1.0  0.09731  0.30147  0.12701  1.0000
  H   H12       1.0  0.12777  0.48271000000000014  0.22547  1.0000
  H   H13       1.0  0.21506999999999996  0.3358100000000001  0.82367  1.0000
  H   H14       1.0  0.04959999999999995  0.24853000000000008  0.68276  1.0000
  H   H15       1.0  0.60882  0.48888  0.8241  1.0000
  H   H16       1.0  0.63346  0.4353  0.68272  1.0000
  H   H17       1.0  0.47092  0.19777000000000006  0.87328  1.0000
  H   H18       1.0  0.40338  0.016199999999999964  0.7751  1.0000
  H   H19       1.0  0.32881999999999995  0.24870999999999993  0.7487599999999999  1.0000
  H   H20       1.0  0.23722  0.1530500000000001  0.56905  1.0000
  H   H21       1.0  0.40284  0.67557  0.87328  1.0000
  H   H22       1.0  0.37224  0.75886  0.77463  1.0000
  H   H23       1.0  0.41953  0.4997300000000001  0.74793  1.0000
  H   H24       1.0  0.33114  0.4156599999999999  0.56813  1.0000
  H   H25       1.0  0.69878  0.97076  0.87428  1.0000
  H   H26       1.0  0.51737  0.9026  0.7756599999999998  1.0000
  H   H27       1.0  0.74708  0.8328000000000002  0.7482  1.0000
  H   H28       1.0  0.65182  0.7406  0.56882  1.0000
  H   H29       1.0  0.17576  0.90333  0.87386  1.0000
  H   H30       1.0  0.25859999999999994  0.87278  0.77492  1.0000
  H   H31       1.0  0.0007899999999999796  0.91503  0.74705  1.0000
  H   H32       1.0  0.9164800000000001  0.8277900000000002  0.56769  1.0000
  H   H33       1.0  0.98888  0.10884  0.82341  1.0000
  H   H34       1.0  0.9357  0.13411  0.6825499999999999  1.0000
  H   H35       1.0  0.8345099999999996  0.71491  0.8227599999999999  1.0000
  H   H36       1.0  0.74693  0.54919  0.68202  1.0000
  H   H37       1.0  0.8021399999999999  0.5965600000000002  0.12618  1.0000
  H   H38       1.0  0.98364  0.6273400000000001  0.22471999999999998  1.0000
  H   H39       1.0  0.75239  0.58272  0.25157  1.0000
  H   H40       1.0  0.8477  0.67007  0.43101  1.0000
  H   H41       1.0  0.32406  0.5289200000000002  0.12615  1.0000
  H   H42       1.0  0.24102  0.59669  0.22501  1.0000
  H   H43       1.0  0.49935  0.66869  0.25197  1.0000
  H   H44       1.0  0.58357  0.7612600000000002  0.43142  1.0000
  H   H45       1.0  0.51166  0.78447  0.17574  1.0000
  H   H46       1.0  0.56559  0.95034  0.31646  1.0000
  H   H47       1.0  0.6637  0.3906800000000001  0.17561  1.0000
  H   H48       1.0  0.75096  0.36605  0.31698999999999994  1.0000
  H   H49       1.0  0.012499999999999995  0.73979  0.95387  1.0000
  H   H50       1.0  0.95511  0.56989  0.91593  1.0000
  H   H51       1.0  0.94159  0.21428000000000003  0.95379  1.0000
  H   H52       1.0  0.96119  0.34648  0.91604  1.0000
  H   H53       1.0  0.78572  0.98778  0.04646  1.0000
  H   H54       1.0  0.65437  0.04541000000000001  0.08532  1.0000
  H   H55       1.0  0.26058  0.058  0.04581  1.0000
  H   H56       1.0  0.43029  0.03849  0.08362  1.0000
  H   H57       1.0  0.48755  0.28545  0.04606  1.0000
  H   H58       1.0  0.54477  0.15315  0.08363  1.0000
  H   H59       1.0  0.55898  0.76087  0.04696  1.0000
  H   H60       1.0  0.53986  0.9308599999999999  0.08540999999999999  1.0000
  H   H61       1.0  0.71412  0.44095000000000006  0.95318  1.0000
  H   H62       1.0  0.8464599999999999  0.4607700000000001  0.91568  1.0000
  H   H63       1.0  0.23928  0.51237  0.95358  1.0000
  H   H64       1.0  0.06949  0.45528000000000013  0.91587  1.0000
  C   C1        1.0  0.30253  0.8666300000000002  0.09783999999999997  1.0000
  C   C2        1.0  0.33372  0.96058  0.17737  1.0000
  C   C3        1.0  0.4279899999999999  0.99062  0.25638  1.0000
  C   C4        1.0  0.21362000000000003  0.18416000000000002  0.29567  1.0000
  C   C5        1.0  0.26575  0.23503  0.39536  1.0000
  C   C6        1.0  0.79527  0.23082  0.09785  1.0000
  C   C7        1.0  0.84375  0.21666000000000005  0.17768  1.0000
  C   C8        1.0  0.82855  0.26581  0.25687  1.0000
  C   C9        1.0  0.08231999999999998  0.1117  0.29622  1.0000
  C   C10       1.0  0.12976000000000001  0.16065  0.39591  1.0000
  C   C11       1.0  0.87765  0.7576900000000002  0.07099  1.0000
  C   C12       1.0  0.97954  0.7757200000000002  0.12693  1.0000
  C   C13       1.0  0.017519999999999994  0.7288800000000002  0.18268  1.0000
  C   C14       1.0  0.1935  0.31318  0.07136  1.0000
  C   C15       1.0  0.14738999999999997  0.35095  0.12737  1.0000
  C   C16       1.0  0.1651  0.45337  0.18312  1.0000
  C   C17       1.0  0.19790999999999995  0.26934  0.90227  1.0000
  C   C18       1.0  0.16675  0.28468  0.82307  1.0000
  C   C19       1.0  0.07291  0.2353  0.74352  1.0000
  C   C20       1.0  0.70449  0.63332  0.90226  1.0000
  C   C21       1.0  0.65648  0.5391100000000002  0.82315  1.0000
  C   C22       1.0  0.6708299999999999  0.50907  0.7434299999999998  1.0000
  C   C23       1.0  0.6223499999999998  0.18638999999999997  0.92861  1.0000
  C   C24       1.0  0.52052  0.14821  0.87273  1.0000
  C   C25       1.0  0.48287  0.04578000000000003  0.81728  1.0000
  C   C26       1.0  0.3269699999999999  0.2820599999999999  0.7052899999999999  1.0000
  C   C27       1.0  0.27573  0.22997  0.60563  1.0000
  C   C28       1.0  0.30652  0.7421600000000003  0.92853  1.0000
  C   C29       1.0  0.35259  0.72449  0.87257  1.0000
  C   C30       1.0  0.33486  0.77142  0.8169  1.0000
  C   C31       1.0  0.37809999999999994  0.42307999999999996  0.7048199999999999  1.0000
  C   C32       1.0  0.32956  0.37554000000000004  0.60514  1.0000
  C   C33       1.0  0.6868999999999997  0.12210999999999989  0.9289199999999997  1.0000
  C   C34       1.0  0.6490499999999998  0.020200000000000023  0.87328  1.0000
  C   C35       1.0  0.54671  0.9821600000000001  0.81755  1.0000
  C   C36       1.0  0.7810099999999999  0.82974  0.7048699999999999  1.0000
  C   C37       1.0  0.72866  0.77912  0.60519  1.0000
  C   C38       1.0  0.24227  0.8067200000000002  0.92877  1.0000
  C   C39       1.0  0.22455  0.85296  0.87293  1.0000
  C   C40       1.0  0.27122  0.8352300000000003  0.81706  1.0000
  C   C41       1.0  0.9237  0.87499  0.70419  1.0000
  C   C42       1.0  0.87629  0.82587  0.60452  1.0000
  C   C43       1.0  0.13341  0.20469  0.90221  1.0000
  C   C44       1.0  0.039279999999999975  0.15677000000000005  0.8229  1.0000
  C   C45       1.0  0.009350000000000006  0.17152999999999993  0.74342  1.0000
  C   C46       1.0  0.76886  0.6977700000000002  0.90197  1.0000
  C   C47       1.0  0.78371  0.6665700000000002  0.8224999999999999  1.0000
  C   C48       1.0  0.73421  0.5726  0.74308  1.0000
  C   C49       1.0  0.81339  0.69327  0.07113  1.0000
  C   C50       1.0  0.85159  0.64702  0.12694  1.0000
  C   C51       1.0  0.954  0.6649  0.18260999999999994  1.0000
  C   C52       1.0  0.71873  0.62366  0.2949  1.0000
  C   C53       1.0  0.77103  0.67283  0.39457  1.0000
  C   C54       1.0  0.25777  0.3776  0.07129  1.0000
  C   C55       1.0  0.27538  0.47944  0.12714  1.0000
  C   C56       1.0  0.22859  0.51716  0.18295  1.0000
  C   C57       1.0  0.57626  0.67103  0.29513  1.0000
  C   C58       1.0  0.62363  0.72177  0.3948  1.0000
  C   C59       1.0  0.36701999999999996  0.80205  0.09749999999999998  1.0000
  C   C60       1.0  0.46143000000000006  0.8330900000000002  0.17643  1.0000
  C   C61       1.0  0.49171  0.9271  0.25589  1.0000
  C   C62       1.0  0.73034  0.29504  0.09746  1.0000
  C   C63       1.0  0.7148  0.34293  0.17649  1.0000
  C   C64       1.0  0.76415  0.32864  0.25625  1.0000
  C   C65       1.0  0.22371999999999995  0.22383000000000006  0.44755  1.0000
  C   C66       1.0  0.27668999999999994  0.27681  0.55352  1.0000
  C   C67       1.0  0.7763799999999997  0.77643  0.55276  1.0000
  C   C68       1.0  0.72336  0.72335  0.44673  1.0000
  C   C69       1.0  0.20537  0.82597  0.0016  1.0000
  C   C70       1.0  0.15937999999999997  0.7234700000000002  0.9783  1.0000
  C   C71       1.0  0.12737  0.8875200000000002  0.99728  1.0000
  C   C72       1.0  0.06300999999999994  0.6911  0.9558099999999999  1.0000
  C   C73       1.0  0.030530000000000047  0.59451  0.93371  1.0000
  C   C74       1.0  0.79642  0.17539  0.00153  1.0000
  C   C75       1.0  0.81894  0.25466  0.97808  1.0000
  C   C76       1.0  0.87001  0.10927000000000003  0.99666  1.0000
  C   C77       1.0  0.89294  0.26481  0.95569  1.0000
  C   C78       1.0  0.90337  0.33942  0.93364  1.0000
  C   C79       1.0  0.82418  0.79476  0.99826  1.0000
  C   C80       1.0  0.7451399999999998  0.8407800000000002  0.02197  1.0000
  C   C81       1.0  0.8898  0.8732  0.00292  1.0000
  C   C82       1.0  0.73536  0.93729  0.0448  1.0000
  C   C83       1.0  0.6610800000000001  0.96988  0.06731  1.0000
  C   C84       1.0  0.17445000000000002  0.20378000000000002  0.99867  1.0000
  C   C85       1.0  0.27686  0.18099000000000007  0.021809999999999996  1.0000
  C   C86       1.0  0.11374  0.13006  0.00342  1.0000
  C   C87       1.0  0.30921  0.10685  0.04408  1.0000
  C   C88       1.0  0.40573999999999993  0.09636  0.06606  1.0000
  C   C89       1.0  0.2949099999999999  0.32442999999999994  0.9986599999999999  1.0000
  C   C90       1.0  0.34076  0.245  0.02179  1.0000
  C   C91       1.0  0.37318  0.39017  0.00324  1.0000
  C   C92       1.0  0.43705  0.23486000000000007  0.04415  1.0000
  C   C93       1.0  0.46942  0.16016000000000005  0.06607  1.0000
  C   C94       1.0  0.70379  0.6742500000000002  0.99872  1.0000
  C   C95       1.0  0.68128  0.77687  0.02215  1.0000
  C   C96       1.0  0.6300499999999998  0.61337  0.00357  1.0000
  C   C97       1.0  0.60755  0.8094600000000002  0.044939999999999994  1.0000
  C   C98       1.0  0.59737  0.90616  0.06733  1.0000
  C   C99       1.0  0.67538  0.29598  0.00107  1.0000
  C   C100      1.0  0.75485  0.31856999999999996  0.9778999999999999  1.0000
  C   C101      1.0  0.6096899999999998  0.36983  0.99634  1.0000
  C   C102      1.0  0.76484  0.39248  0.95534  1.0000
  C   C103      1.0  0.83952  0.40304  0.93345  1.0000
  C   C104      1.0  0.32575  0.70505  0.0011899999999999997  1.0000
  C   C105      1.0  0.22325999999999993  0.65937  0.9781599999999999  1.0000
  C   C106      1.0  0.3868  0.6267  0.99666  1.0000
  C   C107      1.0  0.19073999999999997  0.56301  0.95564  1.0000
  C   C108      1.0  0.09418999999999998  0.5307  0.93366  1.0000
  N   N1        1.0  0.12350999999999998  0.12340999999999999  0.24702999999999997  1.0000
  N   N2        1.0  0.37698  0.377  0.7539  1.0000
  N   N3        1.0  0.87693  0.8769300000000002  0.75354  1.0000
  N   N4        1.0  0.6230199999999999  0.62284  0.24610999999999994  1.0000
  O   O1        1.0  0.13223  0.94888  0.07658  1.0000
  O   O2        1.0  0.94362  0.12550000000000003  0.07575  1.0000
  O   O3        1.0  0.95265  0.9409  0.08561  1.0000
  O   O4        1.0  0.1332  0.14352  0.08566  1.0000
  O   O5        1.0  0.36816999999999994  0.37239999999999995  0.9237899999999999  1.0000
  O   O6        1.0  0.55515  0.5523600000000002  0.92457  1.0000
  O   O7        1.0  0.54585  0.35484999999999994  0.91398  1.0000
  O   O8        1.0  0.36800999999999995  0.5589499999999998  0.9144099999999998  1.0000
  O   O9        1.0  0.85608  0.04704999999999997  0.91414  1.0000
  O   O10       1.0  0.0597699999999999  0.86911  0.9150399999999997  1.0000
  O   O11       1.0  0.0518299999999999  0.056319999999999905  0.9240299999999998  1.0000
  O   O12       1.0  0.87317  0.8691100000000003  0.92419  1.0000
  O   O13       1.0  0.64503  0.6322  0.08605  1.0000
  O   O14       1.0  0.44099  0.45343  0.08541999999999998  1.0000
  O   O15       1.0  0.44823  0.63146  0.07600999999999997  1.0000
  O   O16       1.0  0.62786  0.44490000000000013  0.07542  1.0000
