data_image0
_chemical_formula_structural       Mn3H54C90N6O12F18
_chemical_formula_sum              "Mn3 H54 C90 N6 O12 F18"
_cell_length_a       7.73039
_cell_length_b       22.43845
_cell_length_c       22.43854
_cell_angle_alpha    120.25233
_cell_angle_beta     90.06856
_cell_angle_gamma    90.02043

_space_group_name_H-M_alt    "P 1"
_space_group_IT_number       1

loop_
  _space_group_symop_operation_xyz
  'x, y, z'

loop_
  _atom_site_type_symbol
  _atom_site_label
  _atom_site_symmetry_multiplicity
  _atom_site_fract_x
  _atom_site_fract_y
  _atom_site_fract_z
  _atom_site_occupancy
  Mn  Mn1       1.0  0.5  0.5  0.5  1.0000
  Mn  Mn2       1.0  0.5  0.0  0.5  1.0000
  Mn  Mn3       1.0  0.4999900000000001  0.5  0.0  1.0000
  H   H1        1.0  0.12972  0.54849  0.38867  1.0000
  H   H2        1.0  0.10832000000000003  0.48268  0.09315  1.0000
  H   H3        1.0  0.88424  0.48787  0.01679  1.0000
  H   H4        1.0  0.5948500000000002  0.41012  0.27353  1.0000
  H   H5        1.0  0.9212100000000002  0.5631  0.31332  1.0000
  H   H6        1.0  0.41469  0.40173  0.20942  1.0000
  H   H7        1.0  0.20961  0.41595000000000004  0.13472999999999996  1.0000
  H   H8        1.0  0.69538  0.50803  0.23452  1.0000
  H   H9        1.0  0.49014  0.51463  0.15252  1.0000
  H   H10       1.0  0.129  0.83973  0.45156999999999997  1.0000
  H   H11       1.0  0.10821  0.6104  0.51714  1.0000
  H   H12       1.0  0.8840900000000003  0.52901  0.51228  1.0000
  H   H13       1.0  0.59487  0.86362  0.58967  1.0000
  H   H14       1.0  0.92025  0.74966  0.4369  1.0000
  H   H15       1.0  0.4148500000000001  0.8080900000000001  0.59814  1.0000
  H   H16       1.0  0.20978  0.71913  0.58397  1.0000
  H   H17       1.0  0.6949800000000003  0.72633  0.49182  1.0000
  H   H18       1.0  0.4897600000000001  0.63784  0.48548  1.0000
  H   H19       1.0  0.13046  0.61131  0.15972  1.0000
  H   H20       1.0  0.108  0.90733  0.3901  1.0000
  H   H21       1.0  0.88363  0.98393  0.47155  1.0000
  H   H22       1.0  0.59421  0.7268500000000001  0.13712  1.0000
  H   H23       1.0  0.9213200000000001  0.68666  0.24969999999999998  1.0000
  H   H24       1.0  0.4141400000000001  0.7906000000000001  0.19244  1.0000
  H   H25       1.0  0.20880000000000007  0.8653900000000001  0.28138  1.0000
  H   H26       1.0  0.69512  0.7651000000000001  0.27318  1.0000
  H   H27       1.0  0.4897600000000001  0.84732  0.36185999999999996  1.0000
  H   H28       1.0  0.8702800000000003  0.45152  0.61133  1.0000
  H   H29       1.0  0.8916800000000003  0.5173300000000001  0.9068499999999999  1.0000
  H   H30       1.0  0.11576  0.51214  0.98322  1.0000
  H   H31       1.0  0.40514  0.58988  0.72647  1.0000
  H   H32       1.0  0.07879  0.43691  0.68668  1.0000
  H   H33       1.0  0.5853  0.59827  0.79058  1.0000
  H   H34       1.0  0.7903900000000003  0.5840599999999998  0.8652799999999999  1.0000
  H   H35       1.0  0.30462  0.4919699999999999  0.76548  1.0000
  H   H36       1.0  0.50985  0.48538  0.84748  1.0000
  H   H37       1.0  0.871  0.16026999999999994  0.54844  1.0000
  H   H38       1.0  0.89178  0.3896  0.48286  1.0000
  H   H39       1.0  0.11591000000000003  0.4709899999999999  0.48772999999999994  1.0000
  H   H40       1.0  0.4051300000000001  0.13637999999999997  0.4103399999999999  1.0000
  H   H41       1.0  0.07975  0.25034  0.56311  1.0000
  H   H42       1.0  0.5851400000000002  0.19191  0.40186  1.0000
  H   H43       1.0  0.7902200000000003  0.28087  0.41602999999999996  1.0000
  H   H44       1.0  0.3050100000000001  0.27368  0.50818  1.0000
  H   H45       1.0  0.51024  0.36216  0.51452  1.0000
  H   H46       1.0  0.8695300000000002  0.38869  0.84028  1.0000
  H   H47       1.0  0.8920000000000002  0.09267  0.6099  1.0000
  H   H48       1.0  0.11636000000000003  0.016079999999999952  0.5284599999999999  1.0000
  H   H49       1.0  0.4057800000000001  0.27315999999999996  0.8628799999999999  1.0000
  H   H50       1.0  0.07868000000000003  0.3133400000000001  0.7503  1.0000
  H   H51       1.0  0.58586  0.20940999999999993  0.80757  1.0000
  H   H52       1.0  0.7911900000000002  0.13462000000000005  0.71862  1.0000
  H   H53       1.0  0.3048800000000001  0.23490000000000003  0.72682  1.0000
  H   H54       1.0  0.51024  0.15268000000000007  0.63814  1.0000
  C   C1        1.0  0.14681000000000005  0.52017  0.33304  1.0000
  C   C2        1.0  0.2887600000000001  0.4752100000000001  0.30531  1.0000
  C   C3        1.0  0.40514  0.46615  0.3532  1.0000
  C   C4        1.0  0.9732600000000002  0.49002000000000007  0.10917  1.0000
  C   C5        1.0  0.8490100000000003  0.49326  0.06615  1.0000
  C   C6        1.0  0.8356  0.36827  0.32412  1.0000
  C   C7        1.0  0.6748100000000002  0.41022999999999993  0.36316  1.0000
  C   C8        1.0  0.04929  0.49055000000000004  0.21821999999999997  1.0000
  C   C9        1.0  0.5607400000000002  0.42812  0.32674  1.0000
  C   C10       1.0  0.029190000000000008  0.52766  0.29038  1.0000
  C   C11       1.0  0.30970000000000003  0.43848  0.23319  1.0000
  C   C12       1.0  0.19286  0.44632  0.19038999999999998  1.0000
  C   C13       1.0  0.7441800000000002  0.50506  0.18765  1.0000
  C   C14       1.0  0.6285800000000002  0.5081299999999999  0.1417  1.0000
  C   C15       1.0  0.92218  0.49592  0.17199  1.0000
  C   C16       1.0  0.14621  0.8125400000000002  0.47979999999999995  1.0000
  C   C17       1.0  0.28854000000000013  0.83  0.5247  1.0000
  C   C18       1.0  0.40509000000000006  0.8869800000000001  0.53372  1.0000
  C   C19       1.0  0.97305  0.6191  0.50994  1.0000
  C   C20       1.0  0.8488000000000002  0.57294  0.50687  1.0000
  C   C21       1.0  0.83565  0.9565500000000001  0.632  1.0000
  C   C22       1.0  0.6749  0.95333  0.5898599999999999  1.0000
  C   C23       1.0  0.04891  0.7275500000000001  0.50938  1.0000
  C   C24       1.0  0.5608700000000002  0.89882  0.5718  1.0000
  C   C25       1.0  0.028500000000000008  0.76237  0.47231999999999996  1.0000
  C   C26       1.0  0.30963  0.79487  0.56141  1.0000
  C   C27       1.0  0.19276000000000004  0.7442100000000001  0.55361  1.0000
  C   C28       1.0  0.7437900000000002  0.68249  0.49489  1.0000
  C   C29       1.0  0.62822  0.63355  0.49199  1.0000
  C   C30       1.0  0.9218200000000002  0.67597  0.50402  1.0000
  C   C31       1.0  0.14702  0.66699  0.18714  1.0000
  C   C32       1.0  0.28865  0.69479  0.17  1.0000
  C   C33       1.0  0.40516000000000013  0.64693  0.11303  1.0000
  C   C34       1.0  0.97291  0.89121  0.38121  1.0000
  C   C35       1.0  0.8485700000000003  0.9343300000000001  0.42741  1.0000
  C   C36       1.0  0.8356300000000002  0.67625  0.04454  1.0000
  C   C37       1.0  0.67488  0.63707  0.04728  1.0000
  C   C38       1.0  0.04899000000000001  0.7818500000000002  0.27243999999999996  1.0000
  C   C39       1.0  0.56053  0.67353  0.10161  1.0000
  C   C40       1.0  0.029180000000000008  0.70965  0.23731999999999998  1.0000
  C   C41       1.0  0.3092700000000001  0.7669100000000001  0.20544  1.0000
  C   C42       1.0  0.19231000000000006  0.8097300000000001  0.25611  1.0000
  C   C43       1.0  0.74384  0.81223  0.31727  1.0000
  C   C44       1.0  0.6281900000000002  0.8582800000000002  0.36629999999999996  1.0000
  C   C45       1.0  0.92181  0.8281200000000001  0.32404  1.0000
  C   C46       1.0  0.85318  0.47984  0.66696  1.0000
  C   C47       1.0  0.7112400000000002  0.52479  0.69469  1.0000
  C   C48       1.0  0.5948500000000002  0.53385  0.6468  1.0000
  C   C49       1.0  0.026730000000000007  0.50999  0.89084  1.0000
  C   C50       1.0  0.15098  0.5067399999999999  0.9338499999999998  1.0000
  C   C51       1.0  0.16440000000000005  0.63174  0.67589  1.0000
  C   C52       1.0  0.32519  0.5897799999999999  0.6368399999999999  1.0000
  C   C53       1.0  0.9507  0.50945  0.78179  1.0000
  C   C54       1.0  0.4392500000000001  0.57188  0.67327  1.0000
  C   C55       1.0  0.97081  0.47233999999999987  0.7096199999999999  1.0000
  C   C56       1.0  0.6903  0.56153  0.76681  1.0000
  C   C57       1.0  0.80713  0.55368  0.80962  1.0000
  C   C58       1.0  0.25582  0.49493999999999994  0.8123499999999999  1.0000
  C   C59       1.0  0.37141000000000013  0.49187  0.8583  1.0000
  C   C60       1.0  0.07782000000000003  0.50409  0.8280099999999999  1.0000
  C   C61       1.0  0.85379  0.18746000000000002  0.5202  1.0000
  C   C62       1.0  0.71146  0.17000000000000007  0.4753  1.0000
  C   C63       1.0  0.5949000000000002  0.11303000000000005  0.46628  1.0000
  C   C64       1.0  0.02694  0.3809  0.49007  1.0000
  C   C65       1.0  0.15119  0.42706000000000005  0.49313  1.0000
  C   C66       1.0  0.16434000000000007  0.04346  0.36801  1.0000
  C   C67       1.0  0.3251  0.046669999999999975  0.41013999999999995  1.0000
  C   C68       1.0  0.9510900000000002  0.27245  0.49062  1.0000
  C   C69       1.0  0.43912  0.10118  0.42819999999999997  1.0000
  C   C70       1.0  0.9715  0.23762999999999998  0.52769  1.0000
  C   C71       1.0  0.69036  0.20513999999999996  0.4385899999999999  1.0000
  C   C72       1.0  0.8072400000000002  0.2558  0.44639999999999996  1.0000
  C   C73       1.0  0.2562  0.31751  0.50511  1.0000
  C   C74       1.0  0.3717700000000001  0.36645  0.50801  1.0000
  C   C75       1.0  0.07817000000000003  0.32403  0.4959799999999999  1.0000
  C   C76       1.0  0.8529700000000002  0.33302  0.81286  1.0000
  C   C77       1.0  0.71135  0.3052099999999998  0.8299999999999998  1.0000
  C   C78       1.0  0.5948400000000003  0.3530800000000001  0.88698  1.0000
  C   C79       1.0  0.027090000000000006  0.10880000000000002  0.61879  1.0000
  C   C80       1.0  0.15143  0.06568000000000003  0.57259  1.0000
  C   C81       1.0  0.16436  0.32376  0.95546  1.0000
  C   C82       1.0  0.3251100000000001  0.36293  0.95272  1.0000
  C   C83       1.0  0.95101  0.21815999999999997  0.72756  1.0000
  C   C84       1.0  0.43947000000000014  0.3264699999999999  0.8983999999999999  1.0000
  C   C85       1.0  0.97082  0.29035  0.76269  1.0000
  C   C86       1.0  0.69072  0.23309000000000005  0.79457  1.0000
  C   C87       1.0  0.80769  0.1902699999999999  0.74389  1.0000
  C   C88       1.0  0.25615000000000004  0.18778000000000003  0.68274  1.0000
  C   C89       1.0  0.3718100000000001  0.1417199999999999  0.6336999999999999  1.0000
  C   C90       1.0  0.07819  0.17189  0.67596  1.0000
  N   N1        1.0  0.67893  0.50247  0.08155  1.0000
  N   N2        1.0  0.6786300000000002  0.57918  0.4978  1.0000
  N   N3        1.0  0.6785000000000002  0.91873  0.42096999999999996  1.0000
  N   N4        1.0  0.3210600000000001  0.49753  0.91846  1.0000
  N   N5        1.0  0.32136  0.42082  0.5022  1.0000
  N   N6        1.0  0.3214900000000001  0.08127000000000002  0.57904  1.0000
  O   O1        1.0  0.35706  0.49336  0.41611  1.0000
  O   O2        1.0  0.6666400000000002  0.42242  0.42525  1.0000
  O   O3        1.0  0.3570100000000001  0.92244  0.5064599999999999  1.0000
  O   O4        1.0  0.66666  0.003140000000000032  0.57769  1.0000
  O   O5        1.0  0.3572700000000001  0.5839  0.07724  1.0000
  O   O6        1.0  0.66684  0.57481  0.99722  1.0000
  O   O7        1.0  0.6429400000000002  0.5066499999999999  0.5838899999999999  1.0000
  O   O8        1.0  0.3333500000000001  0.57758  0.57475  1.0000
  O   O9        1.0  0.6429900000000002  0.07755999999999998  0.49355  1.0000
  O   O10       1.0  0.33333  0.9968600000000001  0.42230999999999996  1.0000
  O   O11       1.0  0.6427300000000001  0.41611  0.92276  1.0000
  O   O12       1.0  0.3331600000000001  0.42519000000000007  0.00279  1.0000
  F   F1        1.0  0.9836400000000002  0.40186  0.3573  1.0000
  F   F2        1.0  0.84965  0.35458  0.25778  1.0000
  F   F3        1.0  0.8337900000000003  0.30595  0.32139999999999996  1.0000
  F   F4        1.0  0.9835100000000001  0.95559  0.59825  1.0000
  F   F5        1.0  0.8495600000000002  0.90417  0.64579  1.0000
  F   F6        1.0  0.83412  0.016559999999999936  0.6945399999999999  1.0000
  F   F7        1.0  0.98338  0.64288  0.04464  1.0000
  F   F8        1.0  0.8496700000000003  0.74291  0.09754  1.0000
  F   F9        1.0  0.83381  0.67859  0.98475  1.0000
  F   F10       1.0  0.01636  0.59815  0.6427  1.0000
  F   F11       1.0  0.15035000000000007  0.6454299999999998  0.74222  1.0000
  F   F12       1.0  0.16621000000000005  0.69405  0.6786  1.0000
  F   F13       1.0  0.01649  0.04442000000000003  0.40175  1.0000
  F   F14       1.0  0.15044  0.09584  0.35421  1.0000
  F   F15       1.0  0.16587000000000005  0.9834500000000002  0.30545999999999995  1.0000
  F   F16       1.0  0.016620000000000006  0.35712999999999995  0.9553599999999999  1.0000
  F   F17       1.0  0.15032000000000006  0.25709  0.9024600000000002  1.0000
  F   F18       1.0  0.16619000000000003  0.32142  0.015259999999999998  1.0000
