data_image0
_chemical_formula_structural       Co3H60W3C72N12O6
_chemical_formula_sum              "Co3 H60 W3 C72 N12 O6"
_cell_length_a       13.64709
_cell_length_b       13.64714
_cell_length_c       13.64753
_cell_angle_alpha    101.23244
_cell_angle_beta     101.1135
_cell_angle_gamma    101.11477

_space_group_name_H-M_alt    "P 1"
_space_group_IT_number       1

loop_
  _space_group_symop_operation_xyz
  'x, y, z'

loop_
  _atom_site_type_symbol
  _atom_site_label
  _atom_site_symmetry_multiplicity
  _atom_site_fract_x
  _atom_site_fract_y
  _atom_site_fract_z
  _atom_site_occupancy
  Co  Co1       1.0  0.8833999999999997  0.11648999999999998  0.49991  1.0000
  Co  Co2       1.0  0.11661000000000007  0.5001  0.8835200000000002  1.0000
  Co  Co3       1.0  0.5  0.88342  0.11658  1.0000
  H   H1        1.0  0.58628  0.12549  0.68794  1.0000
  H   H2        1.0  0.68634  0.12031999999999998  0.36131  1.0000
  H   H3        1.0  0.08058  0.09580999999999999  0.63121  1.0000
  H   H4        1.0  0.19439  0.1761  0.33052000000000004  1.0000
  H   H5        1.0  0.51175  0.13804000000000002  0.36827  1.0000
  H   H6        1.0  0.41628  0.13172000000000006  0.6165800000000002  1.0000
  H   H7        1.0  0.014820000000000002  0.1646  0.34671  1.0000
  H   H8        1.0  0.26172  0.10646999999999998  0.62877  1.0000
  H   H9        1.0  0.76057  0.1133  0.6685500000000001  1.0000
  H   H10       1.0  0.36438  0.15504  0.39371  1.0000
  H   H11       1.0  0.12542  0.68804  0.58669  1.0000
  H   H12       1.0  0.12026  0.36129  0.68606  1.0000
  H   H13       1.0  0.09594999999999998  0.6314199999999999  0.08099  1.0000
  H   H14       1.0  0.17611000000000002  0.33039  0.19400000000000006  1.0000
  H   H15       1.0  0.13799  0.36821999999999994  0.5115  1.0000
  H   H16       1.0  0.13166999999999998  0.6166099999999999  0.41651  1.0000
  H   H17       1.0  0.16475  0.34673  0.014550000000000002  1.0000
  H   H18       1.0  0.10646  0.62888  0.26206  1.0000
  H   H19       1.0  0.11321999999999999  0.66868  0.76094  1.0000
  H   H20       1.0  0.15498000000000006  0.3936200000000001  0.3641700000000001  1.0000
  H   H21       1.0  0.6879299999999999  0.58626  0.12544  1.0000
  H   H22       1.0  0.3613  0.6863199999999999  0.12017  1.0000
  H   H23       1.0  0.6313299999999998  0.08055999999999999  0.09601  1.0000
  H   H24       1.0  0.33046  0.19450999999999996  0.17617  1.0000
  H   H25       1.0  0.36823  0.51179  0.13799  1.0000
  H   H26       1.0  0.6165799999999998  0.41631  0.13172  1.0000
  H   H27       1.0  0.34676  0.014980000000000009  0.16491000000000006  1.0000
  H   H28       1.0  0.6288  0.26167  0.10643  1.0000
  H   H29       1.0  0.6685499999999999  0.76048  0.11305  1.0000
  H   H30       1.0  0.39364  0.36442  0.15499  1.0000
  H   H31       1.0  0.87458  0.41332  0.3119600000000001  1.0000
  H   H32       1.0  0.87975  0.31394  0.63871  1.0000
  H   H33       1.0  0.9040499999999999  0.9190099999999999  0.36858  1.0000
  H   H34       1.0  0.8238999999999997  0.806  0.66961  1.0000
  H   H35       1.0  0.8620099999999998  0.4885  0.63178  1.0000
  H   H36       1.0  0.86833  0.58349  0.3833900000000001  1.0000
  H   H37       1.0  0.83525  0.98546  0.65327  1.0000
  H   H38       1.0  0.89354  0.7379399999999999  0.37113  1.0000
  H   H39       1.0  0.88679  0.23905999999999997  0.33132  1.0000
  H   H40       1.0  0.8450199999999999  0.63582  0.60638  1.0000
  H   H41       1.0  0.31207  0.87456  0.41374000000000005  1.0000
  H   H42       1.0  0.6387  0.87983  0.31369  1.0000
  H   H43       1.0  0.36868  0.90399  0.91945  1.0000
  H   H44       1.0  0.66954  0.8238299999999998  0.80549  1.0000
  H   H45       1.0  0.6317699999999998  0.86201  0.48821  1.0000
  H   H46       1.0  0.38343  0.86828  0.5837  1.0000
  H   H47       1.0  0.65325  0.8351  0.9850200000000001  1.0000
  H   H48       1.0  0.37119999999999986  0.89357  0.73833  1.0000
  H   H49       1.0  0.33146  0.88695  0.23954000000000006  1.0000
  H   H50       1.0  0.60637  0.84501  0.6355800000000001  1.0000
  H   H51       1.0  0.41373  0.31206  0.87451  1.0000
  H   H52       1.0  0.31366999999999995  0.6387  0.87968  1.0000
  H   H53       1.0  0.91943  0.36879000000000006  0.9041900000000002  1.0000
  H   H54       1.0  0.8056199999999998  0.6694800000000001  0.8239000000000001  1.0000
  H   H55       1.0  0.48826  0.63174  0.8619700000000002  1.0000
  H   H56       1.0  0.5837300000000001  0.3834200000000001  0.8682800000000003  1.0000
  H   H57       1.0  0.98519  0.6533  0.8354  1.0000
  H   H58       1.0  0.73829  0.37122  0.89353  1.0000
  H   H59       1.0  0.23944  0.33145  0.8867  1.0000
  H   H60       1.0  0.63563  0.6063  0.84496  1.0000
  W   W1        1.0  0.7913599999999998  0.9996  0.20840000000000006  1.0000
  W   W2        1.0  8.135236337015118e-18  0.20867  0.79132  1.0000
  W   W3        1.0  0.20864  0.79161  0.00041  1.0000
  C   C1        1.0  0.60543  0.12536  0.61407  1.0000
  C   C2        1.0  0.6614999999999999  0.12292000000000002  0.43269000000000013  1.0000
  C   C3        1.0  0.24672  0.1425  0.4783  1.0000
  C   C4        1.0  0.10861  0.11355  0.5657  1.0000
  C   C5        1.0  0.17253  0.15878  0.39908  1.0000
  C   C6        1.0  0.56361  0.133  0.43744  1.0000
  C   C7        1.0  0.5315  0.13339  0.52996  1.0000
  C   C8        1.0  0.42947  0.13758  0.54142  1.0000
  C   C9        1.0  0.07202999999999997  0.15231  0.40756  1.0000
  C   C10       1.0  0.21056  0.12014  0.56384  1.0000
  C   C11       1.0  0.70232  0.11651  0.60327  1.0000
  C   C12       1.0  0.35044000000000003  0.14607  0.46787  1.0000
  C   C13       1.0  0.12528000000000006  0.61415  0.60568  1.0000
  C   C14       1.0  0.12285  0.43269  0.66139  1.0000
  C   C15       1.0  0.14249  0.47829  0.2467  1.0000
  C   C16       1.0  0.11363999999999999  0.56584  0.10885  1.0000
  C   C17       1.0  0.15881  0.39902999999999994  0.17235000000000003  1.0000
  C   C18       1.0  0.13293  0.43743999999999994  0.5635  1.0000
  C   C19       1.0  0.13331  0.52998  0.53158  1.0000
  C   C20       1.0  0.13751  0.54144  0.42958  1.0000
  C   C21       1.0  0.15241999999999997  0.40757999999999994  0.07189  1.0000
  C   C22       1.0  0.12016  0.5639  0.21077  1.0000
  C   C23       1.0  0.11643999999999997  0.6033599999999999  0.7025600000000001  1.0000
  C   C24       1.0  0.14602  0.4678  0.35038  1.0000
  C   C25       1.0  0.61406  0.60542  0.12528  1.0000
  C   C26       1.0  0.43268  0.66148  0.12278  1.0000
  C   C27       1.0  0.47828  0.24676  0.14251  1.0000
  C   C28       1.0  0.56578  0.10862999999999999  0.11371  1.0000
  C   C29       1.0  0.39906  0.17262  0.15886  1.0000
  C   C30       1.0  0.43741  0.56363  0.13292  1.0000
  C   C31       1.0  0.52994  0.53152  0.13334  1.0000
  C   C32       1.0  0.54138  0.42949999999999994  0.13756  1.0000
  C   C33       1.0  0.40759  0.07214  0.15253  1.0000
  C   C34       1.0  0.56386  0.21055999999999997  0.12017  1.0000
  C   C35       1.0  0.60326  0.70226  0.11634  1.0000
  C   C36       1.0  0.46783  0.35048  0.14604  1.0000
  C   C37       1.0  0.87472  0.39432  0.38585  1.0000
  C   C38       1.0  0.87716  0.33861  0.56731  1.0000
  C   C39       1.0  0.85751  0.7533  0.52172  1.0000
  C   C40       1.0  0.88636  0.8911499999999999  0.43416000000000005  1.0000
  C   C41       1.0  0.84119  0.82766  0.60097  1.0000
  C   C42       1.0  0.8670799999999999  0.4365  0.56256  1.0000
  C   C43       1.0  0.86669  0.46842000000000006  0.47002  1.0000
  C   C44       1.0  0.86249  0.57042  0.45857  1.0000
  C   C45       1.0  0.8475799999999999  0.9281199999999998  0.59242  1.0000
  C   C46       1.0  0.8798399999999998  0.78923  0.4361  1.0000
  C   C47       1.0  0.88357  0.29744  0.39665000000000006  1.0000
  C   C48       1.0  0.85398  0.64963  0.5322  1.0000
  C   C49       1.0  0.38593999999999995  0.87472  0.3945900000000001  1.0000
  C   C50       1.0  0.56733  0.8772199999999999  0.33852  1.0000
  C   C51       1.0  0.52172  0.8574899999999999  0.75324  1.0000
  C   C52       1.0  0.43423  0.8863  0.8913700000000002  1.0000
  C   C53       1.0  0.60094  0.84114  0.82738  1.0000
  C   C54       1.0  0.5625900000000001  0.8670800000000001  0.4363700000000001  1.0000
  C   C55       1.0  0.47006  0.86666  0.46848  1.0000
  C   C56       1.0  0.45862  0.86244  0.5705  1.0000
  C   C57       1.0  0.59241  0.84748  0.92785  1.0000
  C   C58       1.0  0.43614  0.87983  0.78944  1.0000
  C   C59       1.0  0.3967399999999999  0.88366  0.29775  1.0000
  C   C60       1.0  0.53218  0.85397  0.64952  1.0000
  C   C61       1.0  0.39457  0.38593  0.8746400000000001  1.0000
  C   C62       1.0  0.33851  0.56731  0.87708  1.0000
  C   C63       1.0  0.75329  0.5217  0.8575  1.0000
  C   C64       1.0  0.89139  0.4343000000000001  0.8864500000000001  1.0000
  C   C65       1.0  0.82748  0.60092  0.84123  1.0000
  C   C66       1.0  0.4363999999999999  0.56256  0.867  1.0000
  C   C67       1.0  0.4685000000000001  0.47004000000000007  0.8666200000000001  1.0000
  C   C68       1.0  0.5705300000000001  0.45859  0.86242  1.0000
  C   C69       1.0  0.92798  0.59245  0.84769  1.0000
  C   C70       1.0  0.78944  0.43616  0.87986  1.0000
  C   C71       1.0  0.29769  0.3967300000000001  0.8834900000000002  1.0000
  C   C72       1.0  0.64957  0.53213  0.85393  1.0000
  N   N1        1.0  0.73189  0.11385999999999999  0.51367  1.0000
  N   N2        1.0  0.03768000000000001  0.12945  0.48933  1.0000
  N   N3        1.0  0.11379000000000002  0.51374  0.7319500000000001  1.0000
  N   N4        1.0  0.12959  0.48945  0.03776  1.0000
  N   N5        1.0  0.51367  0.73184  0.11367000000000001  1.0000
  N   N6        1.0  0.48942  0.03775  0.12971  1.0000
  N   N7        1.0  0.8862199999999999  0.26804  0.4862700000000001  1.0000
  N   N8        1.0  0.87041  0.96225  0.51055  1.0000
  N   N9        1.0  0.48634  0.88633  0.26817  1.0000
  N   N10       1.0  0.5105800000000003  0.8703000000000001  0.9622500000000003  1.0000
  N   N11       1.0  0.26811  0.48633  0.88614  1.0000
  N   N12       1.0  0.96233  0.51067  0.87055  1.0000
  O   O1        1.0  0.8382099999999998  0.06338000000000003  0.3380300000000001  1.0000
  O   O2        1.0  0.06455000000000005  0.33809  0.83818  1.0000
  O   O3        1.0  0.33812  0.83837  0.06449  1.0000
  O   O4        1.0  0.93546  0.16183  0.6619100000000001  1.0000
  O   O5        1.0  0.66189  0.93553  0.16163000000000002  1.0000
  O   O6        1.0  0.16179999999999997  0.66198  0.93661  1.0000
