data_image0
_chemical_formula_structural       Cu4H64C78N8O20
_chemical_formula_sum              "Cu4 H64 C78 N8 O20"
_cell_length_a       13.0264
_cell_length_b       13.99112
_cell_length_c       18.89643
_cell_angle_alpha    104.58752
_cell_angle_beta     99.07303
_cell_angle_gamma    113.48003999999999

_space_group_name_H-M_alt    "P 1"
_space_group_IT_number       1

loop_
  _space_group_symop_operation_xyz
  'x, y, z'

loop_
  _atom_site_type_symbol
  _atom_site_label
  _atom_site_symmetry_multiplicity
  _atom_site_fract_x
  _atom_site_fract_y
  _atom_site_fract_z
  _atom_site_occupancy
  Cu  Cu1       1.0  0.94564  0.89433  0.96832  1.0000
  Cu  Cu2       1.0  0.43313  0.52409  0.45627  1.0000
  Cu  Cu3       1.0  0.05434999999999999  0.10567  0.03168  1.0000
  Cu  Cu4       1.0  0.56686  0.47591000000000006  0.5437300000000003  1.0000
  H   H1        1.0  0.77878  0.71083  0.00827  1.0000
  H   H2        1.0  0.7523499999999999  0.39005  0.56413  1.0000
  H   H3        1.0  0.7022200000000001  0.3541000000000001  0.8265700000000001  1.0000
  H   H4        1.0  0.8494399999999999  0.40946  0.82891  1.0000
  H   H5        1.0  0.9798499999999997  0.7597900000000001  0.8320900000000002  1.0000
  H   H6        1.0  0.9870299999999997  0.63098  0.80843  1.0000
  H   H7        1.0  0.8685499999999998  0.63997  0.75537  1.0000
  H   H8        1.0  0.59492  0.49176  0.9705  1.0000
  H   H9        1.0  0.6341  0.3883  0.92681  1.0000
  H   H10       1.0  0.71559  0.48221  0.02119  1.0000
  H   H11       1.0  0.49569  0.45637  0.68963  1.0000
  H   H12       1.0  0.5395  0.4242699999999999  0.77165  1.0000
  H   H13       1.0  0.61435  0.56041  0.7702  1.0000
  H   H14       1.0  0.9414499999999998  0.38853000000000004  0.6438600000000001  1.0000
  H   H15       1.0  0.9448600000000001  0.38793000000000016  0.7379800000000002  1.0000
  H   H16       1.0  0.8516499999999999  0.2650700000000001  0.6587700000000001  1.0000
  H   H17       1.0  0.42286  0.7980699999999998  0.61897  1.0000
  H   H18       1.0  0.69148  0.76547  0.39983000000000013  1.0000
  H   H19       1.0  0.44342999999999994  0.94836  0.73484  1.0000
  H   H20       1.0  0.86312  0.90453  0.37575  1.0000
  H   H21       1.0  0.68701  0.88245  0.87159  1.0000
  H   H22       1.0  0.09147000000000009  0.8139800000000001  0.5020100000000002  1.0000
  H   H23       1.0  0.6655899999999997  0.7334399999999999  0.75628  1.0000
  H   H24       1.0  0.9183900000000002  0.67439  0.5257300000000003  1.0000
  H   H25       1.0  0.20505  0.8267099999999998  0.8840600000000002  1.0000
  H   H26       1.0  0.14789999999999995  0.15212  0.27321  1.0000
  H   H27       1.0  0.3738299999999999  0.82551  0.8372  1.0000
  H   H28       1.0  0.16143999999999994  0.13106999999999996  0.40181  1.0000
  H   H29       1.0  0.5765099999999999  0.1755800000000001  0.96282  1.0000
  H   H30       1.0  0.9778299999999999  0.7757  0.2931500000000001  1.0000
  H   H31       1.0  0.40543  0.17628  0.008500000000000002  1.0000
  H   H32       1.0  0.9676199999999998  0.7972399999999998  0.16471  1.0000
  H   H33       1.0  0.22120999999999996  0.28917  0.99173  1.0000
  H   H34       1.0  0.24764  0.60995  0.4358700000000001  1.0000
  H   H35       1.0  0.29777  0.6459  0.17343000000000006  1.0000
  H   H36       1.0  0.15055  0.59054  0.17109  1.0000
  H   H37       1.0  0.020140000000000005  0.24021  0.1679  1.0000
  H   H38       1.0  0.012959999999999994  0.36901  0.19157  1.0000
  H   H39       1.0  0.13144000000000003  0.3600200000000001  0.24462000000000006  1.0000
  H   H40       1.0  0.40508  0.50824  0.0295  1.0000
  H   H41       1.0  0.36589  0.6117  0.07318000000000002  1.0000
  H   H42       1.0  0.2844  0.51779  0.97881  1.0000
  H   H43       1.0  0.5043  0.54363  0.31036  1.0000
  H   H44       1.0  0.46048999999999995  0.5757300000000001  0.22835  1.0000
  H   H45       1.0  0.38563999999999987  0.4395899999999999  0.2298  1.0000
  H   H46       1.0  0.05853999999999999  0.61147  0.35614  1.0000
  H   H47       1.0  0.05513  0.61207  0.26201  1.0000
  H   H48       1.0  0.14834  0.73493  0.34123  1.0000
  H   H49       1.0  0.57713  0.20193  0.38103  1.0000
  H   H50       1.0  0.30852  0.23453  0.60017  1.0000
  H   H51       1.0  0.55656  0.051640000000000005  0.26516  1.0000
  H   H52       1.0  0.13686999999999996  0.09546999999999999  0.62425  1.0000
  H   H53       1.0  0.31298  0.11755  0.12841  1.0000
  H   H54       1.0  0.90853  0.18602000000000002  0.49799000000000004  1.0000
  H   H55       1.0  0.33441  0.26656  0.24372000000000002  1.0000
  H   H56       1.0  0.08159999999999998  0.32561  0.47426000000000007  1.0000
  H   H57       1.0  0.7949399999999999  0.17328999999999997  0.11594000000000002  1.0000
  H   H58       1.0  0.8520899999999999  0.8478800000000002  0.7267900000000003  1.0000
  H   H59       1.0  0.6261600000000003  0.17449  0.1628  1.0000
  H   H60       1.0  0.83856  0.8689299999999999  0.59819  1.0000
  H   H61       1.0  0.42347999999999997  0.82442  0.03718  1.0000
  H   H62       1.0  0.022159999999999992  0.2243  0.70685  1.0000
  H   H63       1.0  0.5945599999999998  0.8237199999999999  0.9915000000000002  1.0000
  H   H64       1.0  0.03238  0.20276000000000005  0.83529  1.0000
  C   C1        1.0  0.8612999999999997  0.6388  0.86788  1.0000
  C   C2        1.0  0.79316  0.53229  0.87113  1.0000
  C   C3        1.0  0.74804  0.55165  0.93246  1.0000
  C   C4        1.0  0.65269  0.4393500000000001  0.70005  1.0000
  C   C5        1.0  0.7390599999999998  0.4142600000000001  0.7346900000000002  1.0000
  C   C6        1.0  0.7925  0.3902200000000001  0.6790500000000003  1.0000
  C   C7        1.0  0.7713400000000001  0.42230000000000006  0.8167500000000002  1.0000
  C   C8        1.0  0.9281500000000001  0.6693100000000002  0.8129200000000002  1.0000
  C   C9        1.0  0.6692499999999999  0.47482000000000013  0.9645800000000001  1.0000
  C   C10       1.0  0.57064  0.47178000000000014  0.7346100000000001  1.0000
  C   C11       1.0  0.8873099999999997  0.35612000000000005  0.6795500000000001  1.0000
  C   C12       1.0  0.54198  0.75613  0.68064  1.0000
  C   C13       1.0  0.79422  0.71038  0.46326000000000006  1.0000
  C   C14       1.0  0.47989000000000004  0.81735  0.67461  1.0000
  C   C15       1.0  0.77915  0.77594  0.4212100000000001  1.0000
  C   C16       1.0  0.49137000000000003  0.90065  0.7386000000000001  1.0000
  C   C17       1.0  0.87424  0.85326  0.40795  1.0000
  C   C18       1.0  0.56569  0.92254  0.80918  1.0000
  C   C19       1.0  0.9861399999999999  0.86524  0.43683  1.0000
  C   C20       1.0  0.6291399999999998  0.86362  0.8163700000000003  1.0000
  C   C21       1.0  0.003350000000000038  0.80211  0.47989  1.0000
  C   C22       1.0  0.6169700000000001  0.7804300000000001  0.7517900000000002  1.0000
  C   C23       1.0  0.9072999999999997  0.7249199999999999  0.49284  1.0000
  C   C24       1.0  0.29405000000000003  0.0018800000000001621  0.9481900000000002  1.0000
  C   C25       1.0  0.05716999999999998  0.97564  0.21103  1.0000
  C   C26       1.0  0.28624000000000005  0.9029400000000002  0.9004900000000001  1.0000
  C   C27       1.0  0.11239000000000003  0.06996000000000006  0.2779100000000001  1.0000
  C   C28       1.0  0.38008999999999993  0.9020700000000001  0.8743200000000002  1.0000
  C   C29       1.0  0.12012999999999997  0.058739999999999966  0.34965  1.0000
  C   C30       1.0  0.48375999999999997  0.0014599999999999808  0.89636  1.0000
  C   C31       1.0  0.07150999999999999  0.95232  0.35402000000000006  1.0000
  C   C32       1.0  0.4940799999999999  0.10044000000000004  0.9454200000000001  1.0000
  C   C33       1.0  0.01594999999999997  0.85734  0.28798  1.0000
  C   C34       1.0  0.39938  0.10017000000000001  0.97078  1.0000
  C   C35       1.0  0.009610000000000025  0.86952  0.21688  1.0000
  C   C36       1.0  0.5265299999999999  0.6650399999999999  0.61199  1.0000
  C   C37       1.0  0.69063  0.62866  0.47734  1.0000
  C   C38       1.0  0.04513000000000004  0.9864  0.134  1.0000
  C   C39       1.0  0.19109000000000004  0.0028300000000000664  0.9726000000000001  1.0000
  C   C40       1.0  0.1387  0.3612  0.13212  1.0000
  C   C41       1.0  0.20683999999999997  0.46771  0.12886  1.0000
  C   C42       1.0  0.25195  0.44835  0.06754000000000002  1.0000
  C   C43       1.0  0.34729999999999994  0.56065  0.29995  1.0000
  C   C44       1.0  0.26093  0.5857400000000001  0.2653100000000001  1.0000
  C   C45       1.0  0.2074899999999999  0.60978  0.32095  1.0000
  C   C46       1.0  0.22865  0.5777  0.18325  1.0000
  C   C47       1.0  0.07183999999999999  0.33069  0.18708  1.0000
  C   C48       1.0  0.33074  0.52518  0.03542  1.0000
  C   C49       1.0  0.42934999999999995  0.52822  0.26539  1.0000
  C   C50       1.0  0.11268  0.64388  0.32045  1.0000
  C   C51       1.0  0.45801  0.24387000000000006  0.31936  1.0000
  C   C52       1.0  0.20577  0.28962  0.53674  1.0000
  C   C53       1.0  0.52011  0.18265  0.32539  1.0000
  C   C54       1.0  0.22084000000000006  0.2240600000000001  0.5787900000000002  1.0000
  C   C55       1.0  0.50862  0.09935  0.2614  1.0000
  C   C56       1.0  0.12576  0.14674  0.59204  1.0000
  C   C57       1.0  0.4343  0.07746  0.19082  1.0000
  C   C58       1.0  0.013850000000000057  0.13476000000000005  0.5631700000000001  1.0000
  C   C59       1.0  0.3708499999999999  0.13638  0.18363  1.0000
  C   C60       1.0  0.99664  0.19789  0.5201  1.0000
  C   C61       1.0  0.38302  0.21957  0.24821  1.0000
  C   C62       1.0  0.09268999999999997  0.27508  0.50716  1.0000
  C   C63       1.0  0.70594  0.99812  0.051810000000000016  1.0000
  C   C64       1.0  0.94282  0.024359999999999996  0.78896  1.0000
  C   C65       1.0  0.71376  0.09706  0.09951  1.0000
  C   C66       1.0  0.8876000000000001  0.93004  0.7220900000000002  1.0000
  C   C67       1.0  0.6198999999999998  0.09792999999999999  0.12568  1.0000
  C   C68       1.0  0.8798599999999999  0.9412599999999999  0.65035  1.0000
  C   C69       1.0  0.5162299999999999  0.99854  0.10364000000000002  1.0000
  C   C70       1.0  0.9284799999999999  0.04768000000000005  0.6459800000000002  1.0000
  C   C71       1.0  0.5059099999999997  0.89956  0.05457  1.0000
  C   C72       1.0  0.9840399999999999  0.14266000000000006  0.71202  1.0000
  C   C73       1.0  0.60062  0.89983  0.02922  1.0000
  C   C74       1.0  0.99039  0.13048000000000007  0.78312  1.0000
  C   C75       1.0  0.47346000000000005  0.33496  0.38801000000000013  1.0000
  C   C76       1.0  0.30937  0.37134  0.52266  1.0000
  C   C77       1.0  0.95486  0.013599999999999994  0.866  1.0000
  C   C78       1.0  0.8089  0.99717  0.0274  1.0000
  N   N1        1.0  0.8581699999999998  0.7177399999999999  0.9238200000000001  1.0000
  N   N2        1.0  0.7896199999999999  0.66396  0.96221  1.0000
  N   N3        1.0  0.6533999999999998  0.4316100000000001  0.6277500000000003  1.0000
  N   N4        1.0  0.7384199999999999  0.40201  0.61629  1.0000
  N   N5        1.0  0.14181999999999997  0.28226  0.07618  1.0000
  N   N6        1.0  0.21037  0.33604  0.03778  1.0000
  N   N7        1.0  0.3465899999999999  0.56838  0.37225  1.0000
  N   N8        1.0  0.26158  0.59799  0.38371  1.0000
  O   O1        1.0  0.45732000000000006  0.6475400000000001  0.5486600000000003  1.0000
  O   O2        1.0  0.59135  0.61974  0.44624000000000014  1.0000
  O   O3        1.0  0.70906  0.57542  0.51965  1.0000
  O   O4        1.0  0.58337  0.611  0.62212  1.0000
  O   O5        1.0  0.10064000000000003  0.90946  0.9536000000000001  1.0000
  O   O6        1.0  0.9893599999999997  0.8963699999999999  0.07591000000000003  1.0000
  O   O7        1.0  0.19982  0.09727  0.01026  1.0000
  O   O8        1.0  0.09020999999999998  0.08472  0.13168  1.0000
  O   O9        1.0  0.5817000000000001  0.007660000000000109  0.8741200000000002  1.0000
  O   O10       1.0  0.08387000000000011  0.9424100000000002  0.42602  1.0000
  O   O11       1.0  0.54268  0.35246  0.45134  1.0000
  O   O12       1.0  0.40864  0.38026  0.55376  1.0000
  O   O13       1.0  0.2909300000000001  0.4245800000000001  0.48035000000000005  1.0000
  O   O14       1.0  0.41662  0.389  0.37788  1.0000
  O   O15       1.0  0.8993599999999998  0.09053999999999998  0.04639000000000001  1.0000
  O   O16       1.0  0.010630000000000023  0.10363000000000004  0.9240900000000001  1.0000
  O   O17       1.0  0.80017  0.9027300000000003  0.9897400000000001  1.0000
  O   O18       1.0  0.90978  0.91528  0.86832  1.0000
  O   O19       1.0  0.4182899999999999  0.99234  0.12588  1.0000
  O   O20       1.0  0.9161199999999999  0.057590000000000106  0.5739800000000003  1.0000
