data_image0
_chemical_formula_structural       Zn6H48C72Br12N24
_chemical_formula_sum              "Zn6 H48 C72 Br12 N24"
_cell_length_a       5.33165
_cell_length_b       25.59637
_cell_length_c       27.06538
_cell_angle_alpha    89.30922999999999
_cell_angle_beta     84.26376999999998
_cell_angle_gamma    83.72251

_space_group_name_H-M_alt    "P 1"
_space_group_IT_number       1

loop_
  _space_group_symop_operation_xyz
  'x, y, z'

loop_
  _atom_site_type_symbol
  _atom_site_label
  _atom_site_symmetry_multiplicity
  _atom_site_fract_x
  _atom_site_fract_y
  _atom_site_fract_z
  _atom_site_occupancy
  Zn  Zn1       1.0  0.7796100000000001  0.7550899999999999  0.72526  1.0000
  Zn  Zn2       1.0  0.25916  0.24742999999999998  0.27512  1.0000
  Zn  Zn3       1.0  0.25450000000000006  0.25493  0.77524  1.0000
  Zn  Zn4       1.0  0.27909000000000006  0.74725  0.22511  1.0000
  Zn  Zn5       1.0  0.9150100000000001  0.50122  0.49926  1.0000
  Zn  Zn6       1.0  0.16767000000000015  0.99864  0.00091  1.0000
  H   H1        1.0  0.8715100000000001  0.65227  0.7733099999999999  1.0000
  H   H2        1.0  0.18200000000000002  0.57034  0.76234  1.0000
  H   H3        1.0  0.62494  0.65502  0.65257  1.0000
  H   H4        1.0  0.29227999999999993  0.7316999999999999  0.66529  1.0000
  H   H5        1.0  0.54655  0.58713  0.54638  1.0000
  H   H6        1.0  0.14941999999999991  0.59455  0.60629  1.0000
  H   H7        1.0  0.2781199999999999  0.42679  0.6282000000000001  1.0000
  H   H8        1.0  0.67025  0.42646999999999996  0.56767  1.0000
  H   H9        1.0  0.71374  0.28755  0.71807  1.0000
  H   H10       1.0  0.89918  0.36968  0.69059  1.0000
  H   H11       1.0  0.22496000000000002  0.45794999999999997  0.76085  1.0000
  H   H12       1.0  0.07287999999999997  0.37144  0.79058  1.0000
  H   H13       1.0  0.3058100000000001  0.3493  0.22577  1.0000
  H   H14       1.0  0.52489  0.43049  0.23627999999999996  1.0000
  H   H15       1.0  0.9290400000000001  0.3463299999999999  0.34859  1.0000
  H   H16       1.0  0.68534  0.2704  0.33611  1.0000
  H   H17       1.0  0.6865600000000001  0.41452  0.45305  1.0000
  H   H18       1.0  0.3566300000000001  0.40639  0.39366  1.0000
  H   H19       1.0  0.32570000000000005  0.57412  0.37121999999999994  1.0000
  H   H20       1.0  0.6572300000000002  0.57521  0.43143  1.0000
  H   H21       1.0  0.7142000000000001  0.7135999999999999  0.28163  1.0000
  H   H22       1.0  0.95697  0.63119  0.30884  1.0000
  H   H23       1.0  0.44303999999999993  0.54369  0.23855  1.0000
  H   H24       1.0  0.23141000000000006  0.63064  0.20931999999999998  1.0000
  H   H25       1.0  0.3988600000000002  0.15255  0.72686  1.0000
  H   H26       1.0  0.70097  0.07097  0.73736  1.0000
  H   H27       1.0  0.025889999999999958  0.15477  0.84841  1.0000
  H   H28       1.0  0.7045900000000003  0.23133  0.83587  1.0000
  H   H29       1.0  0.8483199999999999  0.08555  0.95368  1.0000
  H   H30       1.0  0.5108399999999997  0.09376999999999999  0.89407  1.0000
  H   H31       1.0  0.6532900000000001  0.9259  0.87242  1.0000
  H   H32       1.0  0.9844299999999996  0.92474  0.93281  1.0000
  H   H33       1.0  0.17991000000000007  0.78736  0.78186  1.0000
  H   H34       1.0  0.33991000000000016  0.8689799999999998  0.80934  1.0000
  H   H35       1.0  0.7382900000000007  0.9582  0.7392899999999999  1.0000
  H   H36       1.0  0.6134  0.87202  0.7096299999999999  1.0000
  H   H37       1.0  0.27239  0.84901  0.27439  1.0000
  H   H38       1.0  0.50519  0.92989  0.26428  1.0000
  H   H39       1.0  0.022200000000000008  0.84593  0.152  1.0000
  H   H40       1.0  0.7633100000000003  0.77009  0.16411999999999996  1.0000
  H   H41       1.0  0.8847999999999999  0.91245  0.04687  1.0000
  H   H42       1.0  0.49409  0.9049499999999999  0.10647  1.0000
  H   H43       1.0  0.45091  0.07247  0.12932  1.0000
  H   H44       1.0  0.8436500000000001  0.07285  0.0691  1.0000
  H   H45       1.0  0.7568600000000001  0.21282  0.21832  1.0000
  H   H46       1.0  0.02133  0.12968  0.19126  1.0000
  H   H47       1.0  0.42993000000000003  0.04398  0.26161  1.0000
  H   H48       1.0  0.19365999999999997  0.13116  0.29071  1.0000
  C   C1        1.0  0.03934999999999993  0.6502  0.74665  1.0000
  C   C2        1.0  0.21121000000000006  0.60545  0.7405299999999999  1.0000
  C   C3        1.0  0.42728  0.60644  0.7067  1.0000
  C   C4        1.0  0.46144999999999997  0.65273  0.6796  1.0000
  C   C5        1.0  0.27592  0.69563  0.68678  1.0000
  C   C6        1.0  0.6054900000000001  0.55837  0.69882  1.0000
  C   C7        1.0  0.6753100000000005  0.46992  0.70808  1.0000
  C   C8        1.0  0.95654  0.51295  0.65831  1.0000
  C   C9        1.0  0.4807600000000001  0.55314  0.56633  1.0000
  C   C10       1.0  0.26396000000000003  0.55703  0.5997799999999999  1.0000
  C   C11       1.0  0.18921000000000018  0.5113  0.6233699999999999  1.0000
  C   C12       1.0  0.3359899999999999  0.46314  0.61197  1.0000
  C   C13       1.0  0.54995  0.46256  0.5784  1.0000
  C   C14       1.0  0.6111  0.32592  0.7276  1.0000
  C   C15       1.0  0.7179300000000001  0.37175  0.71307  1.0000
  C   C16       1.0  0.57743  0.42032  0.72523  1.0000
  C   C17       1.0  0.33748999999999996  0.42069  0.7517  1.0000
  C   C18       1.0  0.24828000000000003  0.37315  0.76656  1.0000
  C   C19       1.0  0.4422000000000003  0.35128  0.25289  1.0000
  C   C20       1.0  0.5641400000000002  0.3956399999999999  0.2587  1.0000
  C   C21       1.0  0.7436400000000002  0.39474  0.29319  1.0000
  C   C22       1.0  0.7928300000000003  0.34875999999999996  0.32111  1.0000
  C   C23       1.0  0.6568100000000001  0.30624  0.31413  1.0000
  C   C24       1.0  0.86498  0.4426599999999999  0.30089  1.0000
  C   C25       1.0  0.85281  0.53109  0.29146  1.0000
  C   C26       1.0  0.12811  0.48793  0.34130999999999995  1.0000
  C   C27       1.0  0.6037000000000001  0.44835  0.43309  1.0000
  C   C28       1.0  0.42413000000000006  0.44407  0.39988  1.0000
  C   C29       1.0  0.32366000000000006  0.48963  0.37622999999999995  1.0000
  C   C30       1.0  0.40705  0.53794  0.38747  1.0000
  C   C31       1.0  0.5868299999999999  0.53896  0.42083  1.0000
  C   C32       1.0  0.6609  0.67528  0.27207  1.0000
  C   C33       1.0  0.8000900000000005  0.6292699999999999  0.2865  1.0000
  C   C34       1.0  0.7213500000000003  0.58083  0.27428  1.0000
  C   C35       1.0  0.5083500000000002  0.5808  0.24784  1.0000
  C   C36       1.0  0.38509999999999966  0.62854  0.23315  1.0000
  C   C37       1.0  0.53895  0.15037  0.75368  1.0000
  C   C38       1.0  0.70625  0.10578  0.75957  1.0000
  C   C39       1.0  0.88662  0.10648  0.79372  1.0000
  C   C40       1.0  0.8908500000000001  0.15259  0.82117  1.0000
  C   C41       1.0  0.7116  0.19539  0.81415  1.0000
  C   C42       1.0  0.05641000000000002  0.05825  0.80163  1.0000
  C   C43       1.0  0.13452000000000003  0.9697399999999998  0.79229  1.0000
  C   C44       1.0  0.36608000000000007  0.01246  0.84206  1.0000
  C   C45       1.0  0.80069  0.0517  0.93386  1.0000
  C   C46       1.0  0.6173100000000001  0.05603  0.9004799999999998  1.0000
  C   C47       1.0  0.56366  0.01051  0.87698  1.0000
  C   C48       1.0  0.6968900000000002  0.9621399999999998  0.88847  1.0000
  C   C49       1.0  0.8771100000000002  0.96108  0.92202  1.0000
  C   C50       1.0  0.08775000000000008  0.82586  0.77238  1.0000
  C   C51       1.0  0.1811000000000001  0.8715  0.78696  1.0000
  C   C52       1.0  0.053770000000000054  0.92023  0.7749499999999999  1.0000
  C   C53       1.0  0.8406200000000003  0.92087  0.7484699999999999  1.0000
  C   C54       1.0  0.7649600000000003  0.8734999999999998  0.7335599999999999  1.0000
  C   C55       1.0  0.4375500000000001  0.8509099999999999  0.24752  1.0000
  C   C56       1.0  0.5663  0.89516  0.24175  1.0000
  C   C57       1.0  0.78103  0.8941699999999999  0.2073  1.0000
  C   C58       1.0  0.8577400000000001  0.84827  0.17937  1.0000
  C   C59       1.0  0.7141200000000001  0.80583  0.18627999999999997  1.0000
  C   C60       1.0  0.9119400000000002  0.94185  0.19958  1.0000
  C   C61       1.0  0.8939  0.03019  0.20890999999999998  1.0000
  C   C62       1.0  0.21802999999999997  0.98659  0.15907  1.0000
  C   C63       1.0  0.7838600000000002  0.9463399999999998  0.06699  1.0000
  C   C64       1.0  0.57056  0.9424  0.1003  1.0000
  C   C65       1.0  0.4489800000000001  0.98805  0.12412  1.0000
  C   C66       1.0  0.54652  0.03616  0.113  1.0000
  C   C67       1.0  0.76016  0.0368  0.07959  1.0000
  C   C68       1.0  0.6904999999999999  0.17476  0.22798  1.0000
  C   C69       1.0  0.84168  0.12838  0.21369  1.0000
  C   C70       1.0  0.7476400000000002  0.08024  0.22603  1.0000
  C   C71       1.0  0.50747  0.08080999999999998  0.25237  1.0000
  C   C72       1.0  0.37172000000000005  0.12882  0.26689  1.0000
  Br  Br1       1.0  0.7276900000000001  0.76802  0.64002  1.0000
  Br  Br2       1.0  0.5363800000000002  0.72826  0.7977999999999998  1.0000
  Br  Br3       1.0  0.11926000000000002  0.41523  0.50863  1.0000
  Br  Br4       1.0  0.13776  0.23377  0.36029  1.0000
  Br  Br5       1.0  0.05943999999999996  0.27451  0.2029  1.0000
  Br  Br6       1.0  0.036060000000000016  0.58727  0.49064  1.0000
  Br  Br7       1.0  0.11477000000000001  0.26869  0.86009  1.0000
  Br  Br8       1.0  0.08394000000000006  0.2277  0.70257  1.0000
  Br  Br9       1.0  0.3768500000000002  0.9124299999999999  0.99161  1.0000
  Br  Br10      1.0  0.24137000000000006  0.73386  0.14009  1.0000
  Br  Br11      1.0  0.005610000000000077  0.77397  0.29748  1.0000
  Br  Br12      1.0  0.28094  0.08451  0.00986  1.0000
  N   N1        1.0  0.07149000000000011  0.69455  0.72025  1.0000
  N   N2        1.0  0.81523  0.55974  0.66689  1.0000
  N   N3        1.0  0.88926  0.46666  0.6767899999999999  1.0000
  N   N4        1.0  0.53592  0.5149  0.72288  1.0000
  N   N5        1.0  0.6233000000000001  0.50689  0.55643  1.0000
  N   N6        1.0  0.38399  0.3265  0.75425  1.0000
  N   N7        1.0  0.48739  0.30732  0.28021  1.0000
  N   N8        1.0  0.04392999999999996  0.44122  0.33279  1.0000
  N   N9        1.0  0.031719999999999984  0.53424  0.32272  1.0000
  N   N10       1.0  0.7746300000000002  0.48617  0.27676  1.0000
  N   N11       1.0  0.68645  0.49477  0.4427499999999999  1.0000
  N   N12       1.0  0.4608800000000001  0.67502  0.24555  1.0000
  N   N13       1.0  0.54167  0.19443  0.78057  1.0000
  N   N14       1.0  0.23426000000000002  0.05937  0.8335  1.0000
  N   N15       1.0  0.3168600000000001  0.96625  0.8235399999999999  1.0000
  N   N16       1.0  0.010250000000000004  0.01486  0.77764  1.0000
  N   N17       1.0  0.9310900000000001  0.0052  0.94388  1.0000
  N   N18       1.0  0.88735  0.82674  0.74582  1.0000
  N   N19       1.0  0.51054  0.80699  0.22026  1.0000
  N   N20       1.0  0.12357999999999998  0.94005  0.16768  1.0000
  N   N21       1.0  0.10448  0.03302  0.17755  1.0000
  N   N22       1.0  0.79901  0.9855  0.22367  1.0000
  N   N23       1.0  0.87923  0.9925299999999999  0.05744  1.0000
  N   N24       1.0  0.46287  0.17506  0.25442  1.0000
