data_image0
_chemical_formula_structural       Cu6H42C108Cl6O30
_chemical_formula_sum              "Cu6 H42 C108 Cl6 O30"
_cell_length_a       18.59866
_cell_length_b       18.59641
_cell_length_c       20.612670000000005
_cell_angle_alpha    63.17785
_cell_angle_beta     63.167919999999995
_cell_angle_gamma    60.07905

_symmetry_space_group_name_H-M    'P 1'
_symmetry_Int_Tables_number       1

loop_
  _symmetry_equiv_pos_as_xyz
  'x,y,z'

loop_
  _atom_site_type_symbol
  _atom_site_label
  _atom_site_symmetry_multiplicity
  _atom_site_fract_x
  _atom_site_fract_y
  _atom_site_fract_z
  _atom_site_occupancy
  Cu  Cu1       1.0  0.9367500000000001  0.5005999999999998  0.05636  1.0000
  Cu  Cu2       1.0  0.5057000000000003  0.9367599999999998  0.0567  1.0000
  Cu  Cu3       1.0  0.5006100000000001  0.5061  0.05677  1.0000
  Cu  Cu4       1.0  0.4939299999999999  0.49935  0.94324  1.0000
  Cu  Cu5       1.0  0.49942000000000003  0.06324000000000005  0.9436299999999999  1.0000
  Cu  Cu6       1.0  0.06325999999999993  0.49427  0.94329  1.0000
  H   H1        1.0  0.23247000000000004  0.23249  0.00499  1.0000
  H   H2        1.0  0.014059999999999987  0.24025999999999997  0.2065  1.0000
  H   H3        1.0  0.24930000000000002  0.011920000000000004  0.20451  1.0000
  H   H4        1.0  0.19713  0.06442999999999999  0.32442  1.0000
  H   H5        1.0  0.9924600000000001  0.10416  0.21805  1.0000
  H   H6        1.0  0.7876500000000002  0.034809999999999966  0.41151  1.0000
  H   H7        1.0  0.86307  0.007000000000000017  0.49801  1.0000
  H   H8        1.0  0.5296099999999999  0.23245  0.00552  1.0000
  H   H9        1.0  0.5393800000000001  0.01384000000000001  0.20676  1.0000
  H   H10       1.0  0.5343200000000002  0.24956  0.20471  1.0000
  H   H11       1.0  0.41059  0.19277  0.32463  1.0000
  H   H12       1.0  0.6853400000000002  0.9935699999999998  0.21763  1.0000
  H   H13       1.0  0.7669199999999999  0.7885899999999999  0.41032  1.0000
  H   H14       1.0  0.6329300000000002  0.8633099999999996  0.49669  1.0000
  H   H15       1.0  0.23261000000000015  0.5296999999999997  0.005400000000000001  1.0000
  H   H16       1.0  0.23953000000000008  0.53975  0.20687  1.0000
  H   H17       1.0  0.011430000000000001  0.53422  0.20445  1.0000
  H   H18       1.0  0.07139000000000001  0.41048  0.32454  1.0000
  H   H19       1.0  0.10288000000000001  0.68536  0.21755  1.0000
  H   H20       1.0  0.03465000000000004  0.7669399999999997  0.4099900000000001  1.0000
  H   H21       1.0  0.007390000000000022  0.63298  0.49652  1.0000
  H   H22       1.0  0.4703000000000001  0.76739  0.99459  1.0000
  H   H23       1.0  0.46025000000000005  0.76041  0.79313  1.0000
  H   H24       1.0  0.46576999999999996  0.9885600000000001  0.79554  1.0000
  H   H25       1.0  0.5894800000000001  0.9286099999999999  0.67546  1.0000
  H   H26       1.0  0.31459  0.8970800000000001  0.78249  1.0000
  H   H27       1.0  0.23309999999999997  0.9653200000000001  0.59003  1.0000
  H   H28       1.0  0.3670600000000001  0.9926  0.50352  1.0000
  H   H29       1.0  0.7675299999999999  0.7675100000000001  0.9950099999999998  1.0000
  H   H30       1.0  0.75978  0.9859  0.79352  1.0000
  H   H31       1.0  0.98813  0.75067  0.79546  1.0000
  H   H32       1.0  0.9355800000000001  0.80283  0.67555  1.0000
  H   H33       1.0  0.8958199999999997  0.007569999999999999  0.78197  1.0000
  H   H34       1.0  0.9652  0.21234999999999998  0.5885  1.0000
  H   H35       1.0  0.9929700000000001  0.13690000000000002  0.50201  1.0000
  H   H36       1.0  0.7675499999999998  0.47036999999999995  0.9945  1.0000
  H   H37       1.0  0.98613  0.46065  0.79322  1.0000
  H   H38       1.0  0.75045  0.4656799999999999  0.79532  1.0000
  H   H39       1.0  0.8072  0.58939  0.67542  1.0000
  H   H40       1.0  0.006349999999999977  0.3147499999999999  0.78232  1.0000
  H   H41       1.0  0.21143999999999996  0.23306  0.58966  1.0000
  H   H42       1.0  0.13677000000000014  0.36699000000000004  0.50327  1.0000
  C   C1        1.0  0.34152  0.07148999999999997  0.061649999999999996  1.0000
  C   C2        1.0  0.24936  0.11685999999999999  0.10057  1.0000
  C   C3        1.0  0.20263  0.20077  0.06308  1.0000
  C   C4        1.0  0.11765000000000003  0.24448  0.10162  1.0000
  C   C5        1.0  0.07060000000000007  0.3363599999999999  0.06306  1.0000
  C   C6        1.0  0.07945  0.20425000000000001  0.1771  1.0000
  C   C7        1.0  0.1264400000000001  0.1202  0.21522  1.0000
  C   C8        1.0  0.21147000000000002  0.07691  0.17614  1.0000
  C   C9        1.0  0.09061999999999999  0.08025000000000002  0.29746  1.0000
  C   C10       1.0  0.13559  0.05626000000000001  0.34586  1.0000
  C   C11       1.0  0.10344999999999999  0.02288000000000001  0.42799  1.0000
  C   C12       1.0  0.018580000000000017  0.015420000000000012  0.45855  1.0000
  C   C13       1.0  0.9734  0.036629999999999996  0.40863  1.0000
  C   C14       1.0  0.009090000000000006  0.0679  0.32741  1.0000
  C   C15       1.0  0.9653800000000001  0.08285999999999999  0.27936  1.0000
  C   C16       1.0  0.8874  0.06967999999999996  0.30984  1.0000
  C   C17       1.0  0.84927  0.04305  0.389  1.0000
  C   C18       1.0  0.8918400000000001  0.027569999999999994  0.43692  1.0000
  C   C19       1.0  0.5250700000000001  0.3418499999999999  0.06192  1.0000
  C   C20       1.0  0.5331800000000001  0.24951  0.10086  1.0000
  C   C21       1.0  0.53321  0.20271  0.06355  1.0000
  C   C22       1.0  0.5359800000000001  0.11767  0.10211  1.0000
  C   C23       1.0  0.52944  0.07064  0.06364  1.0000
  C   C24       1.0  0.5394200000000001  0.07929000000000001  0.1774  1.0000
  C   C25       1.0  0.53867  0.12635999999999997  0.21534000000000003  1.0000
  C   C26       1.0  0.53577  0.21153999999999998  0.17633  1.0000
  C   C27       1.0  0.532  0.09044  0.29767  1.0000
  C   C28       1.0  0.46019  0.133  0.3461  1.0000
  C   C29       1.0  0.44179  0.10099  0.42854  1.0000
  C   C30       1.0  0.50669  0.017179999999999997  0.45963  1.0000
  C   C31       1.0  0.58406  0.9754200000000001  0.40813  1.0000
  C   C32       1.0  0.59777  0.010629999999999997  0.32741  1.0000
  C   C33       1.0  0.6737900000000001  0.96688  0.27882  1.0000
  C   C34       1.0  0.7346500000000001  0.88889  0.30869  1.0000
  C   C35       1.0  0.7204800000000001  0.8508600000000001  0.38767  1.0000
  C   C36       1.0  0.64556  0.8935199999999999  0.43570000000000003  1.0000
  C   C37       1.0  0.07140999999999999  0.52511  0.06182000000000001  1.0000
  C   C38       1.0  0.11667999999999995  0.53315  0.10079  1.0000
  C   C39       1.0  0.20073000000000005  0.53324  0.06348  1.0000
  C   C40       1.0  0.24426999999999988  0.5362200000000001  0.10207  1.0000
  C   C41       1.0  0.33636000000000005  0.52971  0.06375  1.0000
  C   C42       1.0  0.20364999999999997  0.53967  0.17738  1.0000
  C   C43       1.0  0.11950000000000002  0.53865  0.21537  1.0000
  C   C44       1.0  0.07637999999999998  0.53569  0.17628  1.0000
  C   C45       1.0  0.07959999999999996  0.53183  0.29773  1.0000
  C   C46       1.0  0.06027999999999998  0.45993999999999996  0.34614000000000006  1.0000
  C   C47       1.0  0.028490000000000112  0.4413299999999998  0.42862  1.0000
  C   C48       1.0  0.016630000000000065  0.50627  0.45966  1.0000
  C   C49       1.0  0.032399999999999984  0.5838500000000001  0.40814  1.0000
  C   C50       1.0  0.06395  0.59765  0.32743  1.0000
  C   C51       1.0  0.08016000000000002  0.67381  0.27871  1.0000
  C   C52       1.0  0.06773000000000011  0.73471  0.30847  1.0000
  C   C53       1.0  0.04119000000000002  0.7205  0.38742  1.0000
  C   C54       1.0  0.02537  0.64551  0.43556  1.0000
  C   C55       1.0  0.47491000000000005  0.92859  0.9381700000000001  1.0000
  C   C56       1.0  0.46685  0.88332  0.8992  1.0000
  C   C57       1.0  0.46676000000000006  0.7992599999999999  0.9365200000000001  1.0000
  C   C58       1.0  0.4637899999999999  0.75571  0.89791  1.0000
  C   C59       1.0  0.4703099999999999  0.6636199999999999  0.9362300000000001  1.0000
  C   C60       1.0  0.46032999999999996  0.7963200000000001  0.82261  1.0000
  C   C61       1.0  0.46134  0.88048  0.78463  1.0000
  C   C62       1.0  0.4642999999999999  0.92361  0.82372  1.0000
  C   C63       1.0  0.46814000000000006  0.92039  0.70228  1.0000
  C   C64       1.0  0.5400199999999998  0.9397300000000001  0.65386  1.0000
  C   C65       1.0  0.5586400000000004  0.9715399999999996  0.57139  1.0000
  C   C66       1.0  0.49371000000000015  0.9833999999999996  0.5403500000000001  1.0000
  C   C67       1.0  0.4161500000000001  0.9676099999999996  0.59189  1.0000
  C   C68       1.0  0.4023300000000002  0.9360399999999999  0.6725900000000001  1.0000
  C   C69       1.0  0.32617000000000007  0.9198199999999999  0.72132  1.0000
  C   C70       1.0  0.26527999999999996  0.9322699999999999  0.69156  1.0000
  C   C71       1.0  0.27952000000000005  0.9588  0.6126  1.0000
  C   C72       1.0  0.3545000000000002  0.9746199999999996  0.56448  1.0000
  C   C73       1.0  0.92854  0.65847  0.9383300000000001  1.0000
  C   C74       1.0  0.8831700000000001  0.7506199999999998  0.89941  1.0000
  C   C75       1.0  0.7992500000000002  0.7973499999999999  0.93691  1.0000
  C   C76       1.0  0.7555400000000003  0.8823200000000001  0.8983900000000001  1.0000
  C   C77       1.0  0.66365  0.92937  0.93695  1.0000
  C   C78       1.0  0.7957900000000003  0.9205099999999999  0.82292  1.0000
  C   C79       1.0  0.8798400000000001  0.87353  0.78478  1.0000
  C   C80       1.0  0.9231400000000002  0.7884999999999995  0.82385  1.0000
  C   C81       1.0  0.9197800000000002  0.90935  0.70253  1.0000
  C   C82       1.0  0.9437499999999999  0.8643800000000001  0.65413  1.0000
  C   C83       1.0  0.97712  0.8965299999999999  0.57199  1.0000
  C   C84       1.0  0.9845699999999997  0.98141  0.54145  1.0000
  C   C85       1.0  0.96335  0.026580000000000003  0.59138  1.0000
  C   C86       1.0  0.9321100000000001  0.9908899999999999  0.6726  1.0000
  C   C87       1.0  0.91712  0.03461999999999999  0.72066  1.0000
  C   C88       1.0  0.9303100000000001  0.11260999999999997  0.69018  1.0000
  C   C89       1.0  0.9569400000000001  0.15073  0.61102  1.0000
  C   C90       1.0  0.9724100000000001  0.10815  0.5631  1.0000
  C   C91       1.0  0.65816  0.47491000000000005  0.93812  1.0000
  C   C92       1.0  0.7504800000000001  0.4668199999999999  0.89917  1.0000
  C   C93       1.0  0.7972899999999999  0.46678  0.93647  1.0000
  C   C94       1.0  0.8823200000000001  0.46402999999999994  0.8979  1.0000
  C   C95       1.0  0.9293500000000002  0.47054  0.9363799999999999  1.0000
  C   C96       1.0  0.92069  0.46059999999999995  0.8226  1.0000
  C   C97       1.0  0.87363  0.46133999999999975  0.78467  1.0000
  C   C98       1.0  0.7884599999999999  0.46425  0.82369  1.0000
  C   C99       1.0  0.9095600000000001  0.46801  0.70233  1.0000
  C   C100      1.0  0.86699  0.5398199999999997  0.65393  1.0000
  C   C101      1.0  0.8990200000000002  0.5582  0.57148  1.0000
  C   C102      1.0  0.9828300000000001  0.49329999999999996  0.54037  1.0000
  C   C103      1.0  0.02461999999999996  0.41594000000000003  0.59184  1.0000
  C   C104      1.0  0.98938  0.40225  0.67256  1.0000
  C   C105      1.0  0.03310000000000006  0.3262399999999999  0.72114  1.0000
  C   C106      1.0  0.11109999999999996  0.26538000000000006  0.69127  1.0000
  C   C107      1.0  0.14916  0.27951  0.6123  1.0000
  C   C108      1.0  0.10652000000000011  0.3544199999999998  0.56426  1.0000
  Cl  Cl1       1.0  0.8363800000000003  0.08616999999999998  0.24901000000000004  1.0000
  Cl  Cl2       1.0  0.82834  0.83664  0.24747  1.0000
  Cl  Cl3       1.0  0.08773000000000002  0.8284  0.24711  1.0000
  Cl  Cl4       1.0  0.17159000000000008  0.9122800000000001  0.75289  1.0000
  Cl  Cl5       1.0  0.9138200000000001  0.16365999999999997  0.751  1.0000
  Cl  Cl6       1.0  0.16331999999999997  0.17172  0.75253  1.0000
  O   O1        1.0  0.38075000000000003  0.9951499999999999  0.09969  1.0000
  O   O2        1.0  0.37450000000000006  0.11306000000000001  0.99428  1.0000
  O   O3        1.0  0.11153000000000002  0.36949999999999994  0.9953100000000001  1.0000
  O   O4        1.0  0.9942600000000001  0.3753299999999999  0.1012  1.0000
  O   O5        1.0  0.14604  0.0034200000000000038  0.47063  1.0000
  O   O6        1.0  0.52357  0.38129  0.10013  1.0000
  O   O7        1.0  0.5185000000000001  0.37433999999999995  0.9944200000000001  1.0000
  O   O8        1.0  0.52368  0.11145999999999998  0.9958  1.0000
  O   O9        1.0  0.52808  0.9944499999999998  0.10188  1.0000
  O   O10       1.0  0.37650000000000006  0.14495999999999998  0.46946  1.0000
  O   O11       1.0  0.99517  0.52376  0.0998  1.0000
  O   O12       1.0  0.11297999999999996  0.51848  0.99428  1.0000
  O   O13       1.0  0.36935  0.5235399999999999  0.99602  1.0000
  O   O14       1.0  0.3752899999999999  0.5287000000000001  0.10207  1.0000
  O   O15       1.0  0.008900000000000026  0.37592000000000003  0.4695  1.0000
  O   O16       1.0  0.47628000000000004  0.004809999999999989  0.90018  1.0000
  O   O17       1.0  0.48153000000000024  0.8870199999999998  0.00569  1.0000
  O   O18       1.0  0.47645000000000004  0.63066  0.00396  1.0000
  O   O19       1.0  0.4713600000000001  0.6246599999999999  0.89791  1.0000
  O   O20       1.0  0.6240500000000001  0.9911099999999999  0.53051  1.0000
  O   O21       1.0  0.00489999999999998  0.61922  0.90028  1.0000
  O   O22       1.0  0.8869600000000001  0.6255  0.0057  1.0000
  O   O23       1.0  0.63049  0.88847  0.0047  1.0000
  O   O24       1.0  0.6247  0.005689999999999981  0.8988  1.0000
  O   O25       1.0  0.9965899999999998  0.85393  0.52935  1.0000
  O   O26       1.0  0.61875  0.47639  0.8999  1.0000
  O   O27       1.0  0.62565  0.4815  0.00562  1.0000
  O   O28       1.0  0.8885100000000001  0.4763099999999999  0.004220000000000001  1.0000
  O   O29       1.0  0.005559999999999959  0.47187  0.89813  1.0000
  O   O30       1.0  0.8550400000000002  0.6234800000000001  0.53058  1.0000
