data_image0
_chemical_formula_structural       Zn8H48C102O28F36
_chemical_formula_sum              "Zn8 H48 C102 O28 F36"
_cell_length_a       7.64092
_cell_length_b       17.77844
_cell_length_c       23.89003
_cell_angle_alpha    93.40611999999999
_cell_angle_beta     90.0
_cell_angle_gamma    90.0

_space_group_name_H-M_alt    "P 1"
_space_group_IT_number       1

loop_
  _space_group_symop_operation_xyz
  'x, y, z'

loop_
  _atom_site_type_symbol
  _atom_site_label
  _atom_site_symmetry_multiplicity
  _atom_site_fract_x
  _atom_site_fract_y
  _atom_site_fract_z
  _atom_site_occupancy
  Zn  Zn1       1.0  0.4951  0.43029  0.96516  1.0000
  Zn  Zn2       1.0  0.79196  0.49862999999999996  0.9153699999999999  1.0000
  Zn  Zn3       1.0  0.4951  0.0697  0.53484  1.0000
  Zn  Zn4       1.0  0.79196  0.0013599999999999992  0.58464  1.0000
  Zn  Zn5       1.0  0.50489  0.56971  0.03484  1.0000
  Zn  Zn6       1.0  0.20803  0.50137  0.08464  1.0000
  Zn  Zn7       1.0  0.50489  0.9303  0.46516  1.0000
  Zn  Zn8       1.0  0.20803  0.9986399999999999  0.41536  1.0000
  H   H1        1.0  0.0327  0.6045599999999998  0.78336  1.0000
  H   H2        1.0  0.22747  0.6762099999999998  0.723  1.0000
  H   H3        1.0  0.58002  0.71659  0.86282  1.0000
  H   H4        1.0  0.57477  0.9920699999999999  0.74116  1.0000
  H   H5        1.0  0.43571  0.98905  0.83369  1.0000
  H   H6        1.0  0.97653  0.09558  0.76868  1.0000
  H   H7        1.0  0.11616  0.09467999999999999  0.67497  1.0000
  H   H8        1.0  0.24046  0.18042  0.85626  1.0000
  H   H9        1.0  0.11715  0.30587  0.8841899999999999  1.0000
  H   H10       1.0  0.63787  0.2014  0.9332899999999998  1.0000
  H   H11       1.0  0.76221  0.07617999999999998  0.9091699999999999  1.0000
  H   H12       1.0  0.38078  0.64618  0.92259  1.0000
  H   H13       1.0  0.0327  0.89543  0.7166400000000002  1.0000
  H   H14       1.0  0.22747  0.82379  0.777  1.0000
  H   H15       1.0  0.58002  0.78341  0.63718  1.0000
  H   H16       1.0  0.57477  0.5079299999999998  0.75885  1.0000
  H   H17       1.0  0.43571  0.5109499999999998  0.66631  1.0000
  H   H18       1.0  0.97653  0.4044099999999999  0.73132  1.0000
  H   H19       1.0  0.11616  0.4053199999999999  0.8250399999999999  1.0000
  H   H20       1.0  0.24046  0.31958  0.64375  1.0000
  H   H21       1.0  0.11715  0.19412  0.61581  1.0000
  H   H22       1.0  0.63787  0.29858999999999997  0.56672  1.0000
  H   H23       1.0  0.76221  0.42382  0.59083  1.0000
  H   H24       1.0  0.38078  0.8538199999999996  0.57741  1.0000
  H   H25       1.0  0.9673  0.3954299999999999  0.21664  1.0000
  H   H26       1.0  0.77252  0.32378999999999997  0.277  1.0000
  H   H27       1.0  0.41998  0.28341  0.13718  1.0000
  H   H28       1.0  0.42522  0.007929999999999996  0.25885  1.0000
  H   H29       1.0  0.56429  0.01095  0.16631  1.0000
  H   H30       1.0  0.02347  0.9044099999999999  0.23132  1.0000
  H   H31       1.0  0.88384  0.9053199999999999  0.32504  1.0000
  H   H32       1.0  0.75953  0.81958  0.14375  1.0000
  H   H33       1.0  0.88284  0.69413  0.11581  1.0000
  H   H34       1.0  0.36213  0.7985899999999999  0.06672  1.0000
  H   H35       1.0  0.23779  0.9238199999999999  0.09083  1.0000
  H   H36       1.0  0.61922  0.35382  0.07741  1.0000
  H   H37       1.0  0.9673  0.10456  0.28336  1.0000
  H   H38       1.0  0.77252  0.17621  0.223  1.0000
  H   H39       1.0  0.41998  0.21658999999999992  0.3628199999999999  1.0000
  H   H40       1.0  0.42522  0.49207  0.24116  1.0000
  H   H41       1.0  0.56429  0.48905  0.33369  1.0000
  H   H42       1.0  0.02347  0.59559  0.26868  1.0000
  H   H43       1.0  0.88384  0.59468  0.17497  1.0000
  H   H44       1.0  0.75953  0.68042  0.35626  1.0000
  H   H45       1.0  0.88284  0.80588  0.38419  1.0000
  H   H46       1.0  0.36213  0.70141  0.43328  1.0000
  H   H47       1.0  0.23779  0.57618  0.40917  1.0000
  H   H48       1.0  0.61922  0.14617999999999998  0.42259  1.0000
  C   C1        1.0  0.7927499999999997  0.33754  0.92504  1.0000
  C   C2        1.0  0.06886  0.58224  0.89229  1.0000
  C   C3        1.0  0.1926  0.62313  0.8568499999999999  1.0000
  C   C4        1.0  0.15185  0.6302999999999997  0.80025  1.0000
  C   C5        1.0  0.26227  0.6704899999999999  0.7666  1.0000
  C   C6        1.0  0.4152  0.70438  0.78905  1.0000
  C   C7        1.0  0.45985  0.6935  0.84494  1.0000
  C   C8        1.0  0.64784  0.8082399999999998  0.7835499999999999  1.0000
  C   C9        1.0  0.44794  0.04573  0.64782  1.0000
  C   C10       1.0  0.35648  0.0449  0.70293  1.0000
  C   C11       1.0  0.44417  0.014950000000000007  0.74791  1.0000
  C   C12       1.0  0.36443  0.01372  0.80019  1.0000
  C   C13       1.0  0.19615  0.043639999999999984  0.80847  1.0000
  C   C14       1.0  0.10786  0.07301999999999999  0.76296  1.0000
  C   C15       1.0  0.18643  0.07334  0.71033  1.0000
  C   C16       1.0  0.09866  0.041900000000000014  0.8647  1.0000
  C   C17       1.0  0.96192  0.97683  0.85727  1.0000
  C   C18       1.0  0.22294  0.024409999999999984  0.9145799999999998  1.0000
  C   C19       1.0  0.01127  0.11856999999999998  0.88036  1.0000
  C   C20       1.0  0.10905  0.18443999999999994  0.87353  1.0000
  C   C21       1.0  0.03982  0.25518  0.88881  1.0000
  C   C22       1.0  0.86923  0.26151  0.91052  1.0000
  C   C23       1.0  0.77063  0.1962  0.91704  1.0000
  C   C24       1.0  0.84162  0.12541  0.9026299999999999  1.0000
  C   C25       1.0  0.34886  0.65345  0.87885  1.0000
  C   C26       1.0  0.7927499999999997  0.16246  0.57497  1.0000
  C   C27       1.0  0.06886  0.91775  0.60771  1.0000
  C   C28       1.0  0.1926  0.8768699999999998  0.64315  1.0000
  C   C29       1.0  0.15185  0.8697  0.69975  1.0000
  C   C30       1.0  0.26228  0.8295100000000001  0.7334  1.0000
  C   C31       1.0  0.4152  0.79561  0.7109499999999999  1.0000
  C   C32       1.0  0.45985  0.8064999999999998  0.65507  1.0000
  C   C33       1.0  0.64784  0.69176  0.71645  1.0000
  C   C34       1.0  0.44794  0.45427  0.85219  1.0000
  C   C35       1.0  0.35648  0.4551  0.7970699999999998  1.0000
  C   C36       1.0  0.44417  0.48504  0.7521  1.0000
  C   C37       1.0  0.36443  0.48627  0.69982  1.0000
  C   C38       1.0  0.19615  0.45635999999999993  0.69154  1.0000
  C   C39       1.0  0.10786  0.42697999999999997  0.73704  1.0000
  C   C40       1.0  0.18643  0.42665999999999993  0.78967  1.0000
  C   C41       1.0  0.09866  0.45809  0.6353  1.0000
  C   C42       1.0  0.96192  0.52317  0.64273  1.0000
  C   C43       1.0  0.22294  0.47557999999999995  0.58543  1.0000
  C   C44       1.0  0.01127  0.3814299999999999  0.61965  1.0000
  C   C45       1.0  0.10905  0.31555  0.62647  1.0000
  C   C46       1.0  0.03982  0.24482  0.61119  1.0000
  C   C47       1.0  0.86923  0.23847999999999997  0.58949  1.0000
  C   C48       1.0  0.77063  0.3038  0.58296  1.0000
  C   C49       1.0  0.84162  0.37459  0.59738  1.0000
  C   C50       1.0  0.34886  0.8465499999999998  0.62115  1.0000
  C   C51       1.0  0.20725  0.66246  0.07496  1.0000
  C   C52       1.0  0.93113  0.41775  0.10770999999999999  1.0000
  C   C53       1.0  0.8074  0.37687  0.14315  1.0000
  C   C54       1.0  0.84815  0.3697  0.19975  1.0000
  C   C55       1.0  0.73772  0.3295099999999999  0.2334  1.0000
  C   C56       1.0  0.58479  0.29561  0.21094999999999997  1.0000
  C   C57       1.0  0.54015  0.3065  0.15506  1.0000
  C   C58       1.0  0.35215  0.19175999999999999  0.21645  1.0000
  C   C59       1.0  0.55206  0.9542699999999998  0.35219  1.0000
  C   C60       1.0  0.64352  0.9550999999999998  0.29707  1.0000
  C   C61       1.0  0.55583  0.98505  0.2521  1.0000
  C   C62       1.0  0.63556  0.98627  0.19981  1.0000
  C   C63       1.0  0.8038399999999998  0.95636  0.19152999999999998  1.0000
  C   C64       1.0  0.89214  0.9269799999999999  0.23704  1.0000
  C   C65       1.0  0.81356  0.92666  0.28967  1.0000
  C   C66       1.0  0.90134  0.9580899999999999  0.1353  1.0000
  C   C67       1.0  0.03807  0.02317  0.14273  1.0000
  C   C68       1.0  0.77706  0.9755799999999999  0.08542  1.0000
  C   C69       1.0  0.98873  0.88143  0.11964  1.0000
  C   C70       1.0  0.89094  0.8155599999999997  0.12647  1.0000
  C   C71       1.0  0.96018  0.7448199999999998  0.11119  1.0000
  C   C72       1.0  0.13077  0.73849  0.08949  1.0000
  C   C73       1.0  0.22937  0.8037999999999997  0.08296  1.0000
  C   C74       1.0  0.15837999999999997  0.87459  0.09738  1.0000
  C   C75       1.0  0.65114  0.34655  0.12115  1.0000
  C   C76       1.0  0.20725  0.8375399999999997  0.42504  1.0000
  C   C77       1.0  0.93113  0.08225  0.39229  1.0000
  C   C78       1.0  0.8074  0.12312999999999999  0.35685  1.0000
  C   C79       1.0  0.84815  0.1303  0.30025  1.0000
  C   C80       1.0  0.73772  0.17048999999999995  0.2666  1.0000
  C   C81       1.0  0.58479  0.20439  0.28905  1.0000
  C   C82       1.0  0.54015  0.19350000000000003  0.34494  1.0000
  C   C83       1.0  0.35215  0.3082399999999999  0.28355  1.0000
  C   C84       1.0  0.55206  0.54573  0.14781  1.0000
  C   C85       1.0  0.64352  0.5449  0.20292999999999997  1.0000
  C   C86       1.0  0.55583  0.51495  0.2479  1.0000
  C   C87       1.0  0.63556  0.5137299999999998  0.30019  1.0000
  C   C88       1.0  0.8038399999999998  0.54364  0.30847  1.0000
  C   C89       1.0  0.89214  0.57302  0.26296  1.0000
  C   C90       1.0  0.81357  0.57334  0.21033  1.0000
  C   C91       1.0  0.90134  0.5419099999999997  0.3647  1.0000
  C   C92       1.0  0.03807  0.47683  0.35727  1.0000
  C   C93       1.0  0.77706  0.52442  0.41458  1.0000
  C   C94       1.0  0.98873  0.61857  0.38036  1.0000
  C   C95       1.0  0.89094  0.6844499999999999  0.37353  1.0000
  C   C96       1.0  0.96018  0.75518  0.38880999999999993  1.0000
  C   C97       1.0  0.13076  0.7615099999999999  0.41050999999999993  1.0000
  C   C98       1.0  0.22937  0.6962  0.41704  1.0000
  C   C99       1.0  0.15837999999999997  0.6254099999999998  0.40262  1.0000
  C   C100      1.0  0.65114  0.15345  0.37884999999999996  1.0000
  C   C101      1.0  0.52906  0.7499999999999998  0.75  1.0000
  C   C102      1.0  0.47094  0.25  0.25  1.0000
  O   O1        1.0  0.64582  0.34009  0.95142  1.0000
  O   O2        1.0  0.8800499999999998  0.39391  0.90979  1.0000
  O   O3        1.0  0.92383  0.5611999999999999  0.8674999999999999  1.0000
  O   O4        1.0  0.10066  0.56813  0.94219  1.0000
  O   O5        1.0  0.59972  0.01657  0.64525  1.0000
  O   O6        1.0  0.36728  0.07556999999999998  0.60757  1.0000
  O   O7        1.0  0.6408  0.52506  0.97585  1.0000
  O   O8        1.0  0.64582  0.1599  0.54859  1.0000
  O   O9        1.0  0.8800499999999998  0.10608999999999996  0.59021  1.0000
  O   O10       1.0  0.92383  0.93879  0.63251  1.0000
  O   O11       1.0  0.10066  0.93186  0.55781  1.0000
  O   O12       1.0  0.59972  0.48342  0.85475  1.0000
  O   O13       1.0  0.36728  0.42442  0.89244  1.0000
  O   O14       1.0  0.6408  0.9749399999999999  0.52415  1.0000
  O   O15       1.0  0.35417  0.65991  0.04859  1.0000
  O   O16       1.0  0.11995  0.60609  0.09021  1.0000
  O   O17       1.0  0.07616  0.4388  0.1325  1.0000
  O   O18       1.0  0.89934  0.43185999999999997  0.05780999999999999  1.0000
  O   O19       1.0  0.40028  0.98343  0.35475  1.0000
  O   O20       1.0  0.63271  0.92443  0.39243999999999996  1.0000
  O   O21       1.0  0.35919  0.47494  0.02415  1.0000
  O   O22       1.0  0.35417  0.84009  0.45141  1.0000
  O   O23       1.0  0.11995  0.89391  0.40978999999999993  1.0000
  O   O24       1.0  0.07616999999999999  0.06119999999999999  0.3675  1.0000
  O   O25       1.0  0.89933  0.06812999999999997  0.44219  1.0000
  O   O26       1.0  0.40028  0.51657  0.14525  1.0000
  O   O27       1.0  0.63271  0.57557  0.10756  1.0000
  O   O28       1.0  0.35919  0.025060000000000006  0.47585  1.0000
  F   F1        1.0  0.55261  0.8479399999999997  0.82383  1.0000
  F   F2        1.0  0.78319  0.77344  0.80944  1.0000
  F   F3        1.0  0.71717  0.8599  0.75019  1.0000
  F   F4        1.0  0.82609  0.9962399999999999  0.82382  1.0000
  F   F5        1.0  0.03334999999999999  0.913  0.8325399999999998  1.0000
  F   F6        1.0  0.89133  0.9580099999999999  0.9066699999999999  1.0000
  F   F7        1.0  0.36547  0.07144999999999999  0.9151199999999999  1.0000
  F   F8        1.0  0.28393  0.9520799999999999  0.91172  1.0000
  F   F9        1.0  0.14183  0.03466999999999999  0.965  1.0000
  F   F10       1.0  0.55261  0.65206  0.6761799999999999  1.0000
  F   F11       1.0  0.78319  0.72655  0.69057  1.0000
  F   F12       1.0  0.71717  0.6401  0.74982  1.0000
  F   F13       1.0  0.82609  0.5037599999999999  0.6761799999999999  1.0000
  F   F14       1.0  0.03334999999999999  0.587  0.66746  1.0000
  F   F15       1.0  0.89133  0.5419899999999997  0.59333  1.0000
  F   F16       1.0  0.36547  0.42853999999999987  0.58489  1.0000
  F   F17       1.0  0.28393  0.54792  0.58829  1.0000
  F   F18       1.0  0.14183  0.46533  0.53501  1.0000
  F   F19       1.0  0.44738  0.15206  0.17616999999999997  1.0000
  F   F20       1.0  0.21681  0.22655  0.19057000000000002  1.0000
  F   F21       1.0  0.28283  0.1401  0.24981  1.0000
  F   F22       1.0  0.1739  0.003759999999999997  0.17618  1.0000
  F   F23       1.0  0.96665  0.087  0.16746  1.0000
  F   F24       1.0  0.10866  0.04199  0.09333  1.0000
  F   F25       1.0  0.63453  0.9285499999999999  0.08489000000000001  1.0000
  F   F26       1.0  0.7160699999999999  0.04792  0.08828999999999998  1.0000
  F   F27       1.0  0.85817  0.9653299999999999  0.035  1.0000
  F   F28       1.0  0.44738  0.34794  0.32383  1.0000
  F   F29       1.0  0.21681  0.27345  0.30944  1.0000
  F   F30       1.0  0.28283  0.3599  0.25019  1.0000
  F   F31       1.0  0.1739  0.49624  0.32382  1.0000
  F   F32       1.0  0.96665  0.413  0.33254  1.0000
  F   F33       1.0  0.10866  0.45801  0.40667  1.0000
  F   F34       1.0  0.63453  0.57146  0.41512  1.0000
  F   F35       1.0  0.7160699999999999  0.45208  0.41171  1.0000
  F   F36       1.0  0.85817  0.53467  0.465  1.0000
