data_image0
_chemical_formula_structural       Zn8H72C104O32
_chemical_formula_sum              "Zn8 H72 C104 O32"
_cell_length_a       13.32408
_cell_length_b       14.24021
_cell_length_c       28.030869999999997
_cell_angle_alpha    93.04102
_cell_angle_beta     89.96275000000001
_cell_angle_gamma    89.8833

_space_group_name_H-M_alt    "P 1"
_space_group_IT_number       1

loop_
  _space_group_symop_operation_xyz
  'x, y, z'

loop_
  _atom_site_type_symbol
  _atom_site_label
  _atom_site_symmetry_multiplicity
  _atom_site_fract_x
  _atom_site_fract_y
  _atom_site_fract_z
  _atom_site_occupancy
  Zn  Zn1       1.0  0.00418  0.006930000000000003  0.23444  1.0000
  Zn  Zn2       1.0  0.62839  0.5659100000000002  0.19375  1.0000
  Zn  Zn3       1.0  0.50411  0.4961  0.26563  1.0000
  Zn  Zn4       1.0  0.12436  0.9352500000000002  0.30626  1.0000
  Zn  Zn5       1.0  0.99581  0.99306  0.76555  1.0000
  Zn  Zn6       1.0  0.37161  0.4340800000000001  0.8062499999999999  1.0000
  Zn  Zn7       1.0  0.49589  0.50389  0.73436  1.0000
  Zn  Zn8       1.0  0.8756400000000002  0.06474  0.69374  1.0000
  H   H1        1.0  0.82426  0.08801  0.11572  1.0000
  H   H2        1.0  0.6719300000000001  0.24723000000000003  0.7641200000000001  1.0000
  H   H3        1.0  0.82056  0.11983999999999999  0.8809799999999999  1.0000
  H   H4        1.0  0.58085  0.31881  0.90879  1.0000
  H   H5        1.0  0.7314300000000002  0.23068000000000005  0.24753  1.0000
  H   H6        1.0  0.62875  0.3280400000000001  0.11275  1.0000
  H   H7        1.0  0.96517  0.23875  0.04044  1.0000
  H   H8        1.0  0.89375  0.26322  0.0931  1.0000
  H   H9        1.0  0.9065600000000001  0.34933  0.05022  1.0000
  H   H10       1.0  0.53035  0.06028  0.044800000000000006  1.0000
  H   H11       1.0  0.47738  0.174  0.04987  1.0000
  H   H12       1.0  0.55907  0.13588  0.09495  1.0000
  H   H13       1.0  0.90784  0.35219  0.97053  1.0000
  H   H14       1.0  0.86711  0.2973300000000001  0.91575  1.0000
  H   H15       1.0  0.95245  0.23907  0.95265  1.0000
  H   H16       1.0  0.54807  0.12632  0.9156799999999999  1.0000
  H   H17       1.0  0.4745700000000001  0.19229  0.95813  1.0000
  H   H18       1.0  0.50822  0.07574000000000002  0.9689100000000002  1.0000
  H   H19       1.0  0.32766  0.40861  0.38572000000000006  1.0000
  H   H20       1.0  0.17053  0.25122  0.73547  1.0000
  H   H21       1.0  0.32089  0.37865999999999994  0.61911  1.0000
  H   H22       1.0  0.0798  0.18263999999999997  0.5906299999999999  1.0000
  H   H23       1.0  0.23607  0.26965  0.25279  1.0000
  H   H24       1.0  0.128  0.1722  0.38659  1.0000
  H   H25       1.0  0.46524000000000004  0.25815  0.45934  1.0000
  H   H26       1.0  0.39345  0.23137  0.40710999999999997  1.0000
  H   H27       1.0  0.40668  0.14745000000000005  0.45108999999999994  1.0000
  H   H28       1.0  0.03101  0.43907  0.45422  1.0000
  H   H29       1.0  0.97724  0.3258900000000001  0.45063  1.0000
  H   H30       1.0  0.05845  0.36119000000000007  0.40472  1.0000
  H   H31       1.0  0.40713  0.14596  0.53034  1.0000
  H   H32       1.0  0.36652000000000007  0.20221000000000003  0.58482  1.0000
  H   H33       1.0  0.4523500000000001  0.25893  0.54764  1.0000
  H   H34       1.0  0.04818  0.37516000000000005  0.58415  1.0000
  H   H35       1.0  0.97415  0.3103100000000001  0.54166  1.0000
  H   H36       1.0  0.009500000000000003  0.42626000000000014  0.53089  1.0000
  H   H37       1.0  0.17574  0.9119800000000001  0.88427  1.0000
  H   H38       1.0  0.32806  0.75276  0.23587  1.0000
  H   H39       1.0  0.17943  0.88015  0.11901  1.0000
  H   H40       1.0  0.41914  0.68118  0.09121  1.0000
  H   H41       1.0  0.26857  0.7693100000000002  0.75247  1.0000
  H   H42       1.0  0.37124  0.6719500000000003  0.88725  1.0000
  H   H43       1.0  0.03483  0.76124  0.95956  1.0000
  H   H44       1.0  0.10624  0.73677  0.90689  1.0000
  H   H45       1.0  0.09344  0.65066  0.94977  1.0000
  H   H46       1.0  0.46964  0.9397099999999999  0.9552  1.0000
  H   H47       1.0  0.52262  0.8259900000000001  0.95012  1.0000
  H   H48       1.0  0.44092  0.8641100000000002  0.9050400000000001  1.0000
  H   H49       1.0  0.09216000000000002  0.6478  0.02947  1.0000
  H   H50       1.0  0.13289  0.7026600000000001  0.08425  1.0000
  H   H51       1.0  0.04754  0.76092  0.04735000000000001  1.0000
  H   H52       1.0  0.45192000000000004  0.87367  0.08432  1.0000
  H   H53       1.0  0.52543  0.8077  0.04187  1.0000
  H   H54       1.0  0.49178000000000005  0.9242500000000002  0.03109  1.0000
  H   H55       1.0  0.67233  0.59138  0.61428  1.0000
  H   H56       1.0  0.82947  0.7487700000000003  0.26453  1.0000
  H   H57       1.0  0.67911  0.62133  0.38088  1.0000
  H   H58       1.0  0.9202000000000002  0.81735  0.40937  1.0000
  H   H59       1.0  0.76393  0.73034  0.7472  1.0000
  H   H60       1.0  0.8719900000000002  0.82779  0.61341  1.0000
  H   H61       1.0  0.53475  0.7418400000000002  0.54066  1.0000
  H   H62       1.0  0.60654  0.7686100000000002  0.5928800000000001  1.0000
  H   H63       1.0  0.59332  0.85254  0.54891  1.0000
  H   H64       1.0  0.96898  0.56092  0.54578  1.0000
  H   H65       1.0  0.02276  0.6741  0.54937  1.0000
  H   H66       1.0  0.94154  0.6388000000000003  0.59528  1.0000
  H   H67       1.0  0.59287  0.8540300000000002  0.46965999999999997  1.0000
  H   H68       1.0  0.63347  0.7977800000000003  0.41517  1.0000
  H   H69       1.0  0.54765  0.74106  0.45235  1.0000
  H   H70       1.0  0.95182  0.62483  0.41585  1.0000
  H   H71       1.0  0.02585  0.6896800000000002  0.45833  1.0000
  H   H72       1.0  0.9905  0.57373  0.46911  1.0000
  C   C1        1.0  0.85496  0.09188  0.20931  1.0000
  C   C2        1.0  0.78264  0.15214000000000005  0.18391  1.0000
  C   C3        1.0  0.7793700000000002  0.14304000000000006  0.13374  1.0000
  C   C4        1.0  0.815  0.11992000000000004  0.78469  1.0000
  C   C5        1.0  0.75195  0.17718  0.81928  1.0000
  C   C6        1.0  0.68056  0.23956999999999998  0.80227  1.0000
  C   C7        1.0  0.76396  0.16814  0.8686700000000002  1.0000
  C   C8        1.0  0.70311  0.21932  0.90167  1.0000
  C   C9        1.0  0.71185  0.21051  0.95435  1.0000
  C   C10       1.0  0.79907  0.24185  0.97883  1.0000
  C   C11       1.0  0.6297  0.17468000000000006  0.97952  1.0000
  C   C12       1.0  0.53817  0.35226000000000013  0.81796  1.0000
  C   C13       1.0  0.61932  0.29045  0.8349  1.0000
  C   C14       1.0  0.63012  0.27944  0.88405  1.0000
  C   C15       1.0  0.62324  0.372  0.20523  1.0000
  C   C16       1.0  0.67196  0.28658  0.18263  1.0000
  C   C17       1.0  0.7273100000000001  0.22305  0.20873999999999998  1.0000
  C   C18       1.0  0.6705100000000002  0.27716  0.13244  1.0000
  C   C19       1.0  0.72329  0.20541  0.10743000000000001  1.0000
  C   C20       1.0  0.72181  0.20221000000000003  0.05405  1.0000
  C   C21       1.0  0.63458  0.17106000000000005  0.02962  1.0000
  C   C22       1.0  0.80437  0.23706000000000005  0.02895  1.0000
  C   C23       1.0  0.89697  0.27356  0.05475  1.0000
  C   C24       1.0  0.5461  0.13377000000000003  0.05638  1.0000
  C   C25       1.0  0.8856300000000003  0.28466  0.95288  1.0000
  C   C26       1.0  0.53587  0.14051  0.95399  1.0000
  C   C27       1.0  0.35982  0.4074  0.29241  1.0000
  C   C28       1.0  0.28725  0.3461100000000001  0.31702  1.0000
  C   C29       1.0  0.28273  0.35448999999999997  0.36713  1.0000
  C   C30       1.0  0.31391  0.3779300000000001  0.71526  1.0000
  C   C31       1.0  0.25143  0.32117  0.68055  1.0000
  C   C32       1.0  0.17961  0.2593  0.69738  1.0000
  C   C33       1.0  0.26387  0.33078  0.63125  1.0000
  C   C34       1.0  0.20275000000000004  0.2807  0.59814  1.0000
  C   C35       1.0  0.21183  0.28946000000000005  0.5456  1.0000
  C   C36       1.0  0.29907  0.2570200000000001  0.52137  1.0000
  C   C37       1.0  0.12977  0.32546  0.52038  1.0000
  C   C38       1.0  0.03627  0.14910000000000007  0.68102  1.0000
  C   C39       1.0  0.11817  0.20971000000000006  0.66454  1.0000
  C   C40       1.0  0.12926  0.22117  0.61548  1.0000
  C   C41       1.0  0.12261  0.12929  0.2945  1.0000
  C   C42       1.0  0.17403000000000005  0.21334  0.31712  1.0000
  C   C43       1.0  0.23142000000000001  0.27635000000000004  0.29158000000000006  1.0000
  C   C44       1.0  0.1714  0.22239000000000006  0.3673199999999999  1.0000
  C   C45       1.0  0.22467000000000006  0.29284  0.3928  1.0000
  C   C46       1.0  0.22209  0.29596  0.44607  1.0000
  C   C47       1.0  0.13471  0.32802  0.47026  1.0000
  C   C48       1.0  0.30452  0.26087999999999995  0.47125  1.0000
  C   C49       1.0  0.39696  0.22291  0.44562000000000007  1.0000
  C   C50       1.0  0.04616  0.36502999999999997  0.44336  1.0000
  C   C51       1.0  0.38523  0.21400000000000002  0.54761  1.0000
  C   C52       1.0  0.036169999999999994  0.3610600000000001  0.54583  1.0000
  C   C53       1.0  0.14504  0.9081100000000002  0.79069  1.0000
  C   C54       1.0  0.21735  0.8478400000000003  0.81608  1.0000
  C   C55       1.0  0.22063000000000005  0.85695  0.86626  1.0000
  C   C56       1.0  0.18499  0.8800700000000002  0.2153  1.0000
  C   C57       1.0  0.24805  0.8228100000000003  0.18071  1.0000
  C   C58       1.0  0.31944  0.76042  0.19773000000000002  1.0000
  C   C59       1.0  0.23604  0.83185  0.13133  1.0000
  C   C60       1.0  0.29689  0.7806700000000002  0.09832  1.0000
  C   C61       1.0  0.28815  0.7894800000000002  0.04564  1.0000
  C   C62       1.0  0.20093  0.75814  0.02117  1.0000
  C   C63       1.0  0.3703  0.82531  0.02047  1.0000
  C   C64       1.0  0.46182  0.6477300000000003  0.18204  1.0000
  C   C65       1.0  0.38067  0.70954  0.16509  1.0000
  C   C66       1.0  0.36988  0.72055  0.11595  1.0000
  C   C67       1.0  0.37676  0.628  0.7947699999999999  1.0000
  C   C68       1.0  0.32803  0.71341  0.81736  1.0000
  C   C69       1.0  0.27269  0.7769400000000002  0.79125  1.0000
  C   C70       1.0  0.3294900000000001  0.7228300000000002  0.8675599999999999  1.0000
  C   C71       1.0  0.27671  0.7945800000000002  0.8925699999999999  1.0000
  C   C72       1.0  0.27819  0.79777  0.94594  1.0000
  C   C73       1.0  0.3654200000000001  0.82893  0.97037  1.0000
  C   C74       1.0  0.19563  0.7629300000000002  0.97105  1.0000
  C   C75       1.0  0.10302  0.7264300000000002  0.94525  1.0000
  C   C76       1.0  0.4539  0.8662200000000001  0.94361  1.0000
  C   C77       1.0  0.11437000000000003  0.71533  0.04712  1.0000
  C   C78       1.0  0.46412  0.8594800000000001  0.04601  1.0000
  C   C79       1.0  0.64017  0.5925900000000001  0.70759  1.0000
  C   C80       1.0  0.71274  0.6538800000000002  0.6829799999999999  1.0000
  C   C81       1.0  0.71726  0.6455  0.63286  1.0000
  C   C82       1.0  0.68609  0.62206  0.28474  1.0000
  C   C83       1.0  0.74856  0.67882  0.31945  1.0000
  C   C84       1.0  0.8203800000000002  0.7406900000000002  0.30262  1.0000
  C   C85       1.0  0.73612  0.66921  0.36874  1.0000
  C   C86       1.0  0.79725  0.71929  0.40185  1.0000
  C   C87       1.0  0.78817  0.7105300000000001  0.4544  1.0000
  C   C88       1.0  0.70093  0.7429700000000002  0.47862000000000005  1.0000
  C   C89       1.0  0.87022  0.6745300000000001  0.47962  1.0000
  C   C90       1.0  0.9637300000000001  0.8508900000000003  0.31898  1.0000
  C   C91       1.0  0.88182  0.7902800000000002  0.33546  1.0000
  C   C92       1.0  0.87073  0.7788200000000001  0.38451  1.0000
  C   C93       1.0  0.87739  0.8707000000000003  0.7055  1.0000
  C   C94       1.0  0.82597  0.78665  0.68288  1.0000
  C   C95       1.0  0.76858  0.7236400000000001  0.7084099999999999  1.0000
  C   C96       1.0  0.82859  0.7776  0.63268  1.0000
  C   C97       1.0  0.77533  0.70715  0.6072  1.0000
  C   C98       1.0  0.7779000000000003  0.7040300000000003  0.55392  1.0000
  C   C99       1.0  0.86529  0.6719700000000002  0.52974  1.0000
  C   C100      1.0  0.6954800000000001  0.73911  0.52874  1.0000
  C   C101      1.0  0.60304  0.7770800000000001  0.55437  1.0000
  C   C102      1.0  0.9538400000000001  0.63496  0.55664  1.0000
  C   C103      1.0  0.61477  0.7859900000000002  0.45238  1.0000
  C   C104      1.0  0.96382  0.6389300000000002  0.45415999999999995  1.0000
  O   O1        1.0  0.86842  0.10019000000000003  0.25403  1.0000
  O   O2        1.0  0.90921  0.033590000000000016  0.18286000000000002  1.0000
  O   O3        1.0  0.7837700000000001  0.11483  0.74071  1.0000
  O   O4        1.0  0.60113  0.3811  0.24908000000000002  1.0000
  O   O5        1.0  0.54559  0.3903800000000001  0.77795  1.0000
  O   O6        1.0  0.45985  0.36157  0.84517  1.0000
  O   O7        1.0  0.60653  0.4378400000000001  0.17556  1.0000
  O   O8        1.0  0.8934600000000001  0.08071  0.79978  1.0000
  O   O9        1.0  0.37340000000000007  0.40003  0.24766000000000002  1.0000
  O   O10       1.0  0.41323  0.4657800000000001  0.31904999999999994  1.0000
  O   O11       1.0  0.28319  0.38056  0.7593500000000001  1.0000
  O   O12       1.0  0.10137  0.12005000000000003  0.25045  1.0000
  O   O13       1.0  0.04038  0.11328  0.7218  1.0000
  O   O14       1.0  0.9597400000000001  0.13796  0.65285  1.0000
  O   O15       1.0  0.10184000000000001  0.06441  0.32408  1.0000
  O   O16       1.0  0.39091  0.41917  0.7003  1.0000
  O   O17       1.0  0.13158  0.8998000000000002  0.7459700000000001  1.0000
  O   O18       1.0  0.09079  0.9664000000000003  0.81714  1.0000
  O   O19       1.0  0.21623  0.88516  0.25928  1.0000
  O   O20       1.0  0.39886  0.6188900000000002  0.75091  1.0000
  O   O21       1.0  0.45441  0.6096100000000002  0.22204  1.0000
  O   O22       1.0  0.54015  0.63842  0.15483  1.0000
  O   O23       1.0  0.39346  0.56215  0.82443  1.0000
  O   O24       1.0  0.10653  0.9192800000000001  0.20021  1.0000
  O   O25       1.0  0.6266  0.59997  0.75234  1.0000
  O   O26       1.0  0.58677  0.5342  0.68094  1.0000
  O   O27       1.0  0.7168  0.61943  0.24064  1.0000
  O   O28       1.0  0.8986300000000003  0.8799400000000003  0.74955  1.0000
  O   O29       1.0  0.9596200000000003  0.8867100000000001  0.27819  1.0000
  O   O30       1.0  0.04025  0.86204  0.34715  1.0000
  O   O31       1.0  0.8981600000000001  0.9355800000000001  0.67591  1.0000
  O   O32       1.0  0.6090800000000002  0.58082  0.2997  1.0000
