data_image0
_chemical_formula_structural       Mn8H40C88O32
_chemical_formula_sum              "Mn8 H40 C88 O32"
_cell_length_a       5.82356
_cell_length_b       12.01348
_cell_length_c       30.87524
_cell_angle_alpha    94.32627999999998
_cell_angle_beta     89.42789000000002
_cell_angle_gamma    90.41022

_space_group_name_H-M_alt    "P 1"
_space_group_IT_number       1

loop_
  _space_group_symop_operation_xyz
  'x, y, z'

loop_
  _atom_site_type_symbol
  _atom_site_label
  _atom_site_symmetry_multiplicity
  _atom_site_fract_x
  _atom_site_fract_y
  _atom_site_fract_z
  _atom_site_occupancy
  Mn  Mn1       1.0  0.37506  0.49443  0.77301  1.0000
  Mn  Mn2       1.0  0.8644  0.514  0.72903  1.0000
  Mn  Mn3       1.0  0.60045  0.50951  0.23052  1.0000
  Mn  Mn4       1.0  0.10718  0.48633999999999994  0.27061  1.0000
  Mn  Mn5       1.0  0.52164  0.0020500000000000084  0.50408  1.0000
  Mn  Mn6       1.0  0.94792  0.015079999999999996  0.009590000000000001  1.0000
  Mn  Mn7       1.0  0.030530000000000005  0.002689999999999992  0.49603  1.0000
  Mn  Mn8       1.0  0.45381  0.005899999999999997  0.99194  1.0000
  H   H1        1.0  0.50348  0.32277  0.5118  1.0000
  H   H2        1.0  0.56813  0.52049  0.54171  1.0000
  H   H3        1.0  0.01703  0.48362  0.63554  1.0000
  H   H4        1.0  0.94633  0.28989  0.60537  1.0000
  H   H5        1.0  0.29864  0.69804  0.54839  1.0000
  H   H6        1.0  0.3116999999999999  0.7833499999999998  0.70615  1.0000
  H   H7        1.0  0.9794100000000002  0.99169  0.62139  1.0000
  H   H8        1.0  0.88497  0.17893  0.65463  1.0000
  H   H9        1.0  0.45676000000000005  0.16491  0.73963  1.0000
  H   H10       1.0  0.54792  0.9738499999999998  0.70805  1.0000
  H   H11       1.0  0.9786100000000001  0.6786499999999999  0.99005  1.0000
  H   H12       1.0  0.05557999999999999  0.48342  0.9588  1.0000
  H   H13       1.0  0.51569  0.51498  0.86444  1.0000
  H   H14       1.0  0.43499  0.7061  0.89594  1.0000
  H   H15       1.0  0.80375  0.3007199999999999  0.9518  1.0000
  H   H16       1.0  0.8206400000000003  0.21859  0.79297  1.0000
  H   H17       1.0  0.48621  0.016050000000000047  0.8776700000000001  1.0000
  H   H18       1.0  0.38970000000000005  0.8253199999999999  0.84623  1.0000
  H   H19       1.0  0.97146  0.8345199999999999  0.76064  1.0000
  H   H20       1.0  0.06434  0.02940999999999999  0.79031  1.0000
  H   H21       1.0  0.50177  0.67727  0.4905  1.0000
  H   H22       1.0  0.42534  0.48169  0.45898  1.0000
  H   H23       1.0  0.9803200000000001  0.51177  0.3665  1.0000
  H   H24       1.0  0.05983999999999999  0.7044099999999999  0.39698  1.0000
  H   H25       1.0  0.68818  0.30346  0.45284  1.0000
  H   H26       1.0  0.6854100000000001  0.21473  0.29504000000000014  1.0000
  H   H27       1.0  0.017899999999999996  0.004690000000000022  0.37819000000000014  1.0000
  H   H28       1.0  0.09655000000000001  0.8145199999999999  0.3464  1.0000
  H   H29       1.0  0.52388  0.83465  0.26198  1.0000
  H   H30       1.0  0.44485  0.02713000000000001  0.2927  1.0000
  H   H31       1.0  0.013700000000000002  0.32619  0.01106  1.0000
  H   H32       1.0  0.9494700000000001  0.52157  0.04218  1.0000
  H   H33       1.0  0.48924  0.4796099999999999  0.13727  1.0000
  H   H34       1.0  0.55526  0.28794  0.10467  1.0000
  H   H35       1.0  0.20775  0.69864  0.04905  1.0000
  H   H36       1.0  0.17809  0.7844  0.20757  1.0000
  H   H37       1.0  0.51933  0.98618  0.12239  1.0000
  H   H38       1.0  0.61549  0.17594999999999997  0.15469  1.0000
  H   H39       1.0  0.03103  0.16606999999999997  0.23907000000000006  1.0000
  H   H40       1.0  0.94016  0.9709399999999998  0.20912  1.0000
  C   C1        1.0  0.1677  0.18359  0.53668  1.0000
  C   C2        1.0  0.22103  0.29508  0.55651  1.0000
  C   C3        1.0  0.39958  0.35931  0.53905  1.0000
  C   C4        1.0  0.43752  0.46795999999999993  0.55637  1.0000
  C   C5        1.0  0.30336  0.51216  0.5920000000000001  1.0000
  C   C6        1.0  0.12693999999999997  0.44679  0.60941  1.0000
  C   C7        1.0  0.08493000000000003  0.33933  0.59184  1.0000
  C   C8        1.0  0.3311  0.6280799999999999  0.6105  1.0000
  C   C9        1.0  0.3188  0.71579  0.58315  1.0000
  C   C10       1.0  0.31758  0.82774  0.59906  1.0000
  C   C11       1.0  0.352  0.91387  0.56794  1.0000
  C   C12       1.0  0.31321  0.8547199999999999  0.64431  1.0000
  C   C13       1.0  0.32539000000000007  0.76687  0.67138  1.0000
  C   C14       1.0  0.34132000000000007  0.65499  0.65563  1.0000
  C   C15       1.0  0.36514000000000013  0.5708  0.68888  1.0000
  C   C16       1.0  0.26873  0.9692099999999999  0.6628600000000001  1.0000
  C   C17       1.0  0.08348  0.02877999999999997  0.64772  1.0000
  C   C18       1.0  0.03163  0.13484  0.66584  1.0000
  C   C19       1.0  0.16674  0.18601  0.6987  1.0000
  C   C20       1.0  0.35220000000000007  0.1261  0.71401  1.0000
  C   C21       1.0  0.40198  0.018919999999999992  0.69664  1.0000
  C   C22       1.0  0.12822  0.30262  0.7166  1.0000
  C   C23       1.0  0.6578599999999999  0.8188799999999998  0.9646500000000002  1.0000
  C   C24       1.0  0.7045299999999998  0.70495  0.9453  1.0000
  C   C25       1.0  0.8792300000000002  0.64135  0.9625400000000001  1.0000
  C   C26       1.0  0.92136  0.53318  0.9450600000000002  1.0000
  C   C27       1.0  0.7914400000000003  0.48769999999999997  0.90928  1.0000
  C   C28       1.0  0.6172900000000001  0.55142  0.89189  1.0000
  C   C29       1.0  0.57205  0.65875  0.90974  1.0000
  C   C30       1.0  0.8260200000000001  0.3727  0.89014  1.0000
  C   C31       1.0  0.8201100000000001  0.28352  0.91687  1.0000
  C   C32       1.0  0.82461  0.17219  0.90019  1.0000
  C   C33       1.0  0.85099  0.08526  0.93167  1.0000
  C   C34       1.0  0.823  0.14804  0.8549200000000002  1.0000
  C   C35       1.0  0.8293200000000001  0.23648999999999995  0.8279  1.0000
  C   C36       1.0  0.83456  0.34813  0.84452  1.0000
  C   C37       1.0  0.85284  0.43538  0.8123  1.0000
  C   C38       1.0  0.7840100000000001  0.03316000000000001  0.83692  1.0000
  C   C39       1.0  0.59405  0.9750299999999998  0.85233  1.0000
  C   C40       1.0  0.53886  0.86916  0.83451  1.0000
  C   C41       1.0  0.6774800000000001  0.81836  0.80146  1.0000
  C   C42       1.0  0.86694  0.8768199999999999  0.78579  1.0000
  C   C43       1.0  0.9198800000000001  0.9841  0.80308  1.0000
  C   C44       1.0  0.6277300000000001  0.70308  0.78339  1.0000
  C   C45       1.0  0.8357000000000001  0.81445  0.466  1.0000
  C   C46       1.0  0.78293  0.70291  0.4457  1.0000
  C   C47       1.0  0.60154  0.64032  0.4627  1.0000
  C   C48       1.0  0.55847  0.53267  0.44468  1.0000
  C   C49       1.0  0.69071  0.4868399999999999  0.40919  1.0000
  C   C50       1.0  0.8707000000000003  0.55057  0.3923  1.0000
  C   C51       1.0  0.9167500000000002  0.65756  0.41018  1.0000
  C   C52       1.0  0.66115  0.37065  0.39082  1.0000
  C   C53       1.0  0.67355  0.28332  0.41816000000000003  1.0000
  C   C54       1.0  0.67882  0.17107  0.40235  1.0000
  C   C55       1.0  0.6609899999999999  0.08785  0.4354100000000001  1.0000
  C   C56       1.0  0.68385  0.14356  0.35723  1.0000
  C   C57       1.0  0.67239  0.2315  0.32984  1.0000
  C   C58       1.0  0.65474  0.34343999999999997  0.34565  1.0000
  C   C59       1.0  0.62746  0.43068  0.31375  1.0000
  C   C60       1.0  0.7227300000000001  0.028569999999999995  0.33869  1.0000
  C   C61       1.0  0.9071300000000002  0.96732  0.35312  1.0000
  C   C62       1.0  0.95478  0.86124  0.33469  1.0000
  C   C63       1.0  0.81684  0.81248  0.30154  1.0000
  C   C64       1.0  0.63248  0.8737  0.28699  1.0000
  C   C65       1.0  0.58631  0.9806499999999998  0.30498  1.0000
  C   C66       1.0  0.8606  0.6968599999999999  0.28377  1.0000
  C   C67       1.0  0.33679  0.182  0.03669  1.0000
  C   C68       1.0  0.28791  0.2952699999999999  0.055860000000000014  1.0000
  C   C69       1.0  0.11598  0.36131  0.0385  1.0000
  C   C70       1.0  0.07996  0.4697899999999999  0.0563  1.0000
  C   C71       1.0  0.21171000000000004  0.5127  0.09234  1.0000
  C   C72       1.0  0.38331  0.44643  0.10971  1.0000
  C   C73       1.0  0.42218  0.33915  0.09133  1.0000
  C   C74       1.0  0.18019000000000007  0.6283  0.11098  1.0000
  C   C75       1.0  0.18908  0.71656  0.08392  1.0000
  C   C76       1.0  0.17802000000000004  0.82777  0.1004  1.0000
  C   C77       1.0  0.15163  0.91375  0.06867  1.0000
  C   C78       1.0  0.18045000000000003  0.85331  0.14551  1.0000
  C   C79       1.0  0.17131  0.7652799999999998  0.17271  1.0000
  C   C80       1.0  0.15846  0.65335  0.15625  1.0000
  C   C81       1.0  0.12767  0.56509  0.18769  1.0000
  C   C82       1.0  0.22063  0.96811  0.16316  1.0000
  C   C83       1.0  0.41197000000000006  0.025439999999999997  0.14796  1.0000
  C   C84       1.0  0.46606  0.13128999999999996  0.16565  1.0000
  C   C85       1.0  0.32396  0.18320999999999998  0.1977  1.0000
  C   C86       1.0  0.13628  0.12411999999999998  0.21393  1.0000
  C   C87       1.0  0.08537  0.0168  0.197  1.0000
  C   C88       1.0  0.36453  0.30017  0.21486  1.0000
  O   O1        1.0  0.28513  0.14178  0.50282  1.0000
  O   O2        1.0  0.0017599999999999994  0.12636  0.55116  1.0000
  O   O3        1.0  0.49085000000000006  0.99558  0.57738  1.0000
  O   O4        1.0  0.27109  0.8982099999999998  0.52849  1.0000
  O   O5        1.0  0.21046  0.5728  0.72011  1.0000
  O   O6        1.0  0.53364  0.50506  0.68926  1.0000
  O   O7        1.0  0.98263  0.36487  0.69927  1.0000
  O   O8        1.0  0.25198  0.33505  0.74976  1.0000
  O   O9        1.0  0.77574  0.8623  0.99709  1.0000
  O   O10       1.0  0.49181  0.87257  0.94901  1.0000
  O   O11       1.0  0.9971600000000002  0.008669999999999987  0.92731  1.0000
  O   O12       1.0  0.73174  0.10288000000000003  0.968  1.0000
  O   O13       1.0  0.70841  0.42317  0.77965  1.0000
  O   O14       1.0  0.007360000000000001  0.50977  0.81308  1.0000
  O   O15       1.0  0.4836400000000001  0.64291  0.80398  1.0000
  O   O16       1.0  0.72556  0.66971  0.74753  1.0000
  O   O17       1.0  0.7256500000000001  0.85352  0.50071  1.0000
  O   O18       1.0  0.9942600000000001  0.8724  0.44899  1.0000
  O   O19       1.0  0.51813  0.006919999999999984  0.43222  1.0000
  O   O20       1.0  0.77813  0.10868  0.47075  1.0000
  O   O21       1.0  0.7725000000000001  0.42614999999999986  0.28038  1.0000
  O   O22       1.0  0.46654000000000007  0.49956  0.31631  1.0000
  O   O23       1.0  0.014009999999999998  0.64001  0.30178  1.0000
  O   O24       1.0  0.74426  0.66075  0.25068  1.0000
  O   O25       1.0  0.21194  0.1367  0.00414  1.0000
  O   O26       1.0  0.50657  0.12668  0.04914  1.0000
  O   O27       1.0  0.01246  0.99616  0.07584  1.0000
  O   O28       1.0  0.25249  0.89468  0.03138  1.0000
  O   O29       1.0  0.27494  0.57351  0.21988  1.0000
  O   O30       1.0  0.96906  0.49394999999999994  0.18646000000000004  1.0000
  O   O31       1.0  0.5104  0.36356  0.19592  1.0000
  O   O32       1.0  0.25068  0.33346  0.24959  1.0000
