data_image0
_chemical_formula_structural       Mn8Nb4H32C64N48
_chemical_formula_sum              "Mn8 Nb4 H32 C64 N48"
_cell_length_a       10.81782
_cell_length_b       17.08358
_cell_length_c       18.52722
_cell_angle_alpha    65.28884
_cell_angle_beta     78.51899
_cell_angle_gamma    76.99821

_space_group_name_H-M_alt    "P 1"
_space_group_IT_number       1

loop_
  _space_group_symop_operation_xyz
  'x, y, z'

loop_
  _atom_site_type_symbol
  _atom_site_label
  _atom_site_symmetry_multiplicity
  _atom_site_fract_x
  _atom_site_fract_y
  _atom_site_fract_z
  _atom_site_occupancy
  Mn  Mn1       1.0  0.49107000000000006  0.7580999999999998  0.2451  1.0000
  Mn  Mn2       1.0  0.8606700000000002  0.17803999999999998  0.4194  1.0000
  Mn  Mn3       1.0  0.16357000000000002  0.31626999999999994  0.07991  1.0000
  Mn  Mn4       1.0  0.5095900000000001  0.24368  0.75387  1.0000
  Mn  Mn5       1.0  0.14023999999999995  0.82073  0.57956  1.0000
  Mn  Mn6       1.0  0.8353700000000001  0.6820100000000001  0.91988  1.0000
  Mn  Mn7       1.0  0.001689999999999995  0.99888  0.00018  1.0000
  Mn  Mn8       1.0  0.00253000000000005  0.4995599999999999  0.50058  1.0000
  Nb  Nb1       1.0  0.10760000000000004  0.98942  0.2688200000000001  1.0000
  Nb  Nb2       1.0  0.8788500000000001  0.51143  0.22963  1.0000
  Nb  Nb3       1.0  0.8929399999999998  0.009309999999999912  0.7313700000000002  1.0000
  Nb  Nb4       1.0  0.12329999999999998  0.48851999999999995  0.77035  1.0000
  H   H1        1.0  0.8661900000000001  0.84981  0.02938  1.0000
  H   H2        1.0  0.70703  0.7580899999999998  0.12300000000000001  1.0000
  H   H3        1.0  0.61677  0.9201299999999999  0.2505500000000001  1.0000
  H   H4        1.0  0.78892  0.005080000000000007  0.16283  1.0000
  H   H5        1.0  0.39923999999999993  0.58903  0.2769900000000001  1.0000
  H   H6        1.0  0.20874  0.51407  0.34532  1.0000
  H   H7        1.0  0.10075999999999996  0.67344  0.4759400000000001  1.0000
  H   H8        1.0  0.28071000000000007  0.7556  0.3990400000000001  1.0000
  H   H9        1.0  0.88564  0.9863299999999999  0.49348000000000003  1.0000
  H   H10       1.0  0.79056  0.8676  0.48997  1.0000
  H   H11       1.0  0.50185  0.05032  0.3669  1.0000
  H   H12       1.0  0.59649  0.17158999999999994  0.36742000000000014  1.0000
  H   H13       1.0  0.15962999999999997  0.22862000000000002  0.25328  1.0000
  H   H14       1.0  0.29324000000000006  0.19074  0.36222  1.0000
  H   H15       1.0  0.5639399999999999  0.33369  0.19779  1.0000
  H   H16       1.0  0.43482000000000004  0.36684000000000005  0.08684  1.0000
  H   H17       1.0  0.13134999999999997  0.15374999999999997  0.9689400000000001  1.0000
  H   H18       1.0  0.2944000000000001  0.24320999999999998  0.87709  1.0000
  H   H19       1.0  0.38309  0.08145000000000004  0.74933  1.0000
  H   H20       1.0  0.20690999999999984  0.9990800000000001  0.8350400000000002  1.0000
  H   H21       1.0  0.60159  0.41236999999999996  0.72232  1.0000
  H   H22       1.0  0.79167  0.48789999999999994  0.65443  1.0000
  H   H23       1.0  0.9021000000000001  0.32869999999999994  0.5237  1.0000
  H   H24       1.0  0.7227500000000001  0.24592999999999995  0.60021  1.0000
  H   H25       1.0  0.11261999999999998  0.013120000000000008  0.50702  1.0000
  H   H26       1.0  0.2063  0.13204  0.51115  1.0000
  H   H27       1.0  0.49659000000000003  0.95007  0.6331300000000002  1.0000
  H   H28       1.0  0.40359000000000006  0.82858  0.63175  1.0000
  H   H29       1.0  0.83863  0.7717199999999999  0.74677  1.0000
  H   H30       1.0  0.70548  0.81042  0.6374100000000003  1.0000
  H   H31       1.0  0.43452  0.6668499999999999  0.80088  1.0000
  H   H32       1.0  0.56371  0.6321699999999999  0.9120300000000002  1.0000
  C   C1        1.0  0.07728000000000006  0.99743  0.15316  1.0000
  C   C2        1.0  0.26423  0.90112  0.23294  1.0000
  C   C3        1.0  0.29263  0.006969999999999986  0.29015  1.0000
  C   C4        1.0  0.05539  0.07708999999999999  0.33391  1.0000
  C   C5        1.0  0.13656000000000001  0.11826999999999996  0.17441  1.0000
  C   C6        1.0  0.00893000000000003  0.87712  0.29769  1.0000
  C   C7        1.0  0.90495  0.05082999999999999  0.25622  1.0000
  C   C8        1.0  0.11576999999999996  0.90244  0.39556  1.0000
  C   C9        1.0  0.9721100000000001  0.43327  0.15857  1.0000
  C   C10       1.0  0.70084  0.59853  0.24601000000000003  1.0000
  C   C11       1.0  0.83616  0.59442  0.10520000000000003  1.0000
  C   C12       1.0  0.85284  0.37932999999999995  0.3214300000000001  1.0000
  C   C13       1.0  0.8947700000000002  0.51933  0.34581  1.0000
  C   C14       1.0  0.71759  0.46863  0.20611  1.0000
  C   C15       1.0  0.96144  0.63331  0.18787  1.0000
  C   C16       1.0  0.07802000000000008  0.45819999999999983  0.26043  1.0000
  C   C17       1.0  0.81185  0.86536  0.07911  1.0000
  C   C18       1.0  0.72159  0.81492  0.13071  1.0000
  C   C19       1.0  0.67398  0.90306  0.20212  1.0000
  C   C20       1.0  0.76802  0.95174  0.15178  1.0000
  C   C21       1.0  0.3308300000000001  0.60906  0.3203  1.0000
  C   C22       1.0  0.2263  0.56621  0.35987  1.0000
  C   C23       1.0  0.16582000000000008  0.6551399999999998  0.43059  1.0000
  C   C24       1.0  0.26735000000000003  0.69996  0.38888  1.0000
  C   C25       1.0  0.7995499999999999  0.0012699999999999784  0.46518000000000004  1.0000
  C   C26       1.0  0.7453099999999998  0.9355099999999996  0.46378000000000014  1.0000
  C   C27       1.0  0.58658  0.03626999999999998  0.39657  1.0000
  C   C28       1.0  0.6401000000000002  0.10372000000000003  0.39638  1.0000
  C   C29       1.0  0.25112  0.25093  0.24022  1.0000
  C   C30       1.0  0.32569999999999993  0.23067000000000001  0.3007  1.0000
  C   C31       1.0  0.47578000000000004  0.30725999999999976  0.21016000000000007  1.0000
  C   C32       1.0  0.40314  0.3273399999999999  0.14852  1.0000
  C   C33       1.0  0.9270700000000001  0.99827  0.84756  1.0000
  C   C34       1.0  0.7365100000000002  0.0985899999999999  0.7684900000000002  1.0000
  C   C35       1.0  0.7073500000000001  0.9924299999999999  0.70993  1.0000
  C   C36       1.0  0.9453600000000001  0.9215299999999998  0.6659  1.0000
  C   C37       1.0  0.8631300000000001  0.8801699999999999  0.82594  1.0000
  C   C38       1.0  0.99056  0.12186  0.70331  1.0000
  C   C39       1.0  0.09502000000000009  0.94765  0.74377  1.0000
  C   C40       1.0  0.8840700000000002  0.09728999999999997  0.60433  1.0000
  C   C41       1.0  0.02794999999999999  0.56596  0.84099  1.0000
  C   C42       1.0  0.30046  0.4021499999999998  0.7539100000000002  1.0000
  C   C43       1.0  0.16187  0.40497999999999995  0.89479  1.0000
  C   C44       1.0  0.15162000000000014  0.6200399999999998  0.67951  1.0000
  C   C45       1.0  0.10998  0.47916  0.65465  1.0000
  C   C46       1.0  0.2834200000000001  0.52952  0.79704  1.0000
  C   C47       1.0  0.03593000000000006  0.3684999999999998  0.8117200000000001  1.0000
  C   C48       1.0  0.92552  0.54322  0.73748  1.0000
  C   C49       1.0  0.18607  0.13794999999999982  0.9194300000000002  1.0000
  C   C50       1.0  0.2786100000000002  0.18693999999999997  0.86896  1.0000
  C   C51       1.0  0.32527999999999996  0.09904999999999992  0.7973100000000002  1.0000
  C   C52       1.0  0.22884000000000002  0.05189  0.84646  1.0000
  C   C53       1.0  0.67041  0.3925199999999999  0.6790500000000003  1.0000
  C   C54       1.0  0.7747000000000002  0.43566999999999995  0.6398  1.0000
  C   C55       1.0  0.8366500000000001  0.34681  0.56903  1.0000
  C   C56       1.0  0.7353199999999999  0.30169000000000007  0.61049  1.0000
  C   C57       1.0  0.19889000000000004  0.99835  0.53508  1.0000
  C   C58       1.0  0.25232  0.06425999999999997  0.53684  1.0000
  C   C59       1.0  0.4119000000000001  0.9639100000000002  0.60348  1.0000
  C   C60       1.0  0.35923999999999995  0.89634  0.6032100000000002  1.0000
  C   C61       1.0  0.7473400000000001  0.7492599999999999  0.75947  1.0000
  C   C62       1.0  0.67302  0.76999  0.69875  1.0000
  C   C63       1.0  0.52288  0.69298  0.78869  1.0000
  C   C64       1.0  0.59543  0.67219  0.85053  1.0000
  N   N1        1.0  0.06535  0.0052499999999999995  0.08864  1.0000
  N   N2        1.0  0.34960999999999987  0.85525  0.21207000000000004  1.0000
  N   N3        1.0  0.39371  0.013059999999999999  0.29971  1.0000
  N   N4        1.0  0.021889999999999996  0.12395999999999995  0.3686000000000001  1.0000
  N   N5        1.0  0.1442  0.18921999999999994  0.12603  1.0000
  N   N6        1.0  0.95698  0.81662  0.31674  1.0000
  N   N7        1.0  0.79988  0.08468999999999999  0.24258  1.0000
  N   N8        1.0  0.11917999999999992  0.8586399999999998  0.4643000000000001  1.0000
  N   N9        1.0  0.022780000000000005  0.38976  0.12250000000000001  1.0000
  N   N10       1.0  0.60561  0.64858  0.24538  1.0000
  N   N11       1.0  0.8100700000000001  0.6355999999999998  0.03943  1.0000
  N   N12       1.0  0.8388599999999998  0.30737999999999993  0.36482000000000003  1.0000
  N   N13       1.0  0.9145300000000001  0.51768  0.40684  1.0000
  N   N14       1.0  0.6297700000000002  0.44917999999999997  0.19263  1.0000
  N   N15       1.0  0.9997800000000001  0.7002899999999997  0.16276000000000004  1.0000
  N   N16       1.0  0.18006999999999998  0.4308599999999999  0.2821400000000001  1.0000
  N   N17       1.0  0.8346300000000002  0.9343199999999996  0.08887000000000003  1.0000
  N   N18       1.0  0.65024  0.8344599999999999  0.19133  1.0000
  N   N19       1.0  0.35169999999999996  0.67595  0.33479  1.0000
  N   N20       1.0  0.14556000000000005  0.58795  0.41667  1.0000
  N   N21       1.0  0.7471199999999999  0.08623999999999993  0.4308200000000001  1.0000
  N   N22       1.0  0.6381600000000001  0.95199  0.4300500000000001  1.0000
  N   N23       1.0  0.29106999999999994  0.29814  0.16324000000000005  1.0000
  N   N24       1.0  0.43856000000000006  0.25759  0.28646  1.0000
  N   N25       1.0  0.9442300000000002  0.9867099999999998  0.9122100000000002  1.0000
  N   N26       1.0  0.65213  0.14542999999999992  0.7885800000000001  1.0000
  N   N27       1.0  0.6060200000000001  0.9867999999999999  0.70028  1.0000
  N   N28       1.0  0.9797800000000001  0.8747699999999997  0.63115  1.0000
  N   N29       1.0  0.8546  0.8094999999999999  0.8745100000000002  1.0000
  N   N30       1.0  0.04238999999999997  0.18239999999999992  0.6844800000000002  1.0000
  N   N31       1.0  0.20016999999999982  0.9138899999999999  0.7574200000000002  1.0000
  N   N32       1.0  0.8808899999999997  0.14135999999999993  0.5357000000000002  1.0000
  N   N33       1.0  0.9755599999999999  0.6090999999999999  0.8771900000000002  1.0000
  N   N34       1.0  0.3954  0.35188  0.75401  1.0000
  N   N35       1.0  0.18614000000000003  0.3633699999999999  0.9609600000000001  1.0000
  N   N36       1.0  0.16473999999999997  0.69233  0.63633  1.0000
  N   N37       1.0  0.09304000000000004  0.4796099999999997  0.5934800000000002  1.0000
  N   N38       1.0  0.3703900000000001  0.5477199999999998  0.8126500000000002  1.0000
  N   N39       1.0  0.99474  0.30266  0.83613  1.0000
  N   N40       1.0  0.8243700000000002  0.5714699999999999  0.7146600000000002  1.0000
  N   N41       1.0  0.16132000000000002  0.07015999999999999  0.90868  1.0000
  N   N42       1.0  0.3501900000000001  0.16694999999999993  0.80862  1.0000
  N   N43       1.0  0.6501599999999998  0.32562  0.66432  1.0000
  N   N44       1.0  0.8559800000000001  0.41420999999999997  0.58303  1.0000
  N   N45       1.0  0.2522900000000001  0.9135299999999996  0.5687800000000002  1.0000
  N   N46       1.0  0.35956  0.04807000000000001  0.57039  1.0000
  N   N47       1.0  0.7074300000000002  0.7013199999999996  0.83624  1.0000
  N   N48       1.0  0.5603199999999998  0.74301  0.71256  1.0000
