data_image0
_chemical_formula_structural       Ca6Ce4H44C84N12O52
_chemical_formula_sum              "Ca6 Ce4 H44 C84 N12 O52"
_cell_length_a       8.68731
_cell_length_b       15.55336
_cell_length_c       22.32601
_cell_angle_alpha    112.25109000000002
_cell_angle_beta     90.18149999999999
_cell_angle_gamma    90.13104

_space_group_name_H-M_alt    "P 1"
_space_group_IT_number       1

loop_
  _space_group_symop_operation_xyz
  'x, y, z'

loop_
  _atom_site_type_symbol
  _atom_site_label
  _atom_site_symmetry_multiplicity
  _atom_site_fract_x
  _atom_site_fract_y
  _atom_site_fract_z
  _atom_site_occupancy
  Ca  Ca1       1.0  0.89592  0.49031000000000013  0.73801  1.0000
  Ca  Ca2       1.0  0.06775  0.44078  0.52752  1.0000
  Ca  Ca3       1.0  0.08264  0.9229100000000002  0.9670700000000001  1.0000
  Ca  Ca4       1.0  0.93228  0.44096  0.02931  1.0000
  Ca  Ca5       1.0  0.10318  0.49203000000000013  0.23897  1.0000
  Ca  Ca6       1.0  0.91837  0.9275500000000002  0.4694  1.0000
  Ce  Ce1       1.0  0.5189499999999999  0.68616  0.39849  1.0000
  Ce  Ce2       1.0  0.51374  0.31519  0.11289  1.0000
  Ce  Ce3       1.0  0.4801000000000001  0.31472  0.61341  1.0000
  Ce  Ce4       1.0  0.48129  0.6850200000000002  0.89879  1.0000
  H   H1        1.0  0.35312  0.6145700000000002  0.044  1.0000
  H   H2        1.0  0.52596  0.12108000000000003  0.81898  1.0000
  H   H3        1.0  0.09997  0.3415  0.67036  1.0000
  H   H4        1.0  0.28806  0.2514  0.32496  1.0000
  H   H5        1.0  0.32733  0.96405  0.34584  1.0000
  H   H6        1.0  0.04714  0.69022  0.32653  1.0000
  H   H7        1.0  0.22823  0.9367800000000002  0.12888  1.0000
  H   H8        1.0  0.79901  0.6512500000000002  0.14002  1.0000
  H   H9        1.0  0.59466  0.06937000000000001  0.64802  1.0000
  H   H10       1.0  0.51286  0.87719  0.68621  1.0000
  H   H11       1.0  0.41227  0.07077000000000003  0.14691  1.0000
  H   H12       1.0  0.42771  0.9674200000000003  0.9083100000000001  1.0000
  H   H13       1.0  0.84149  0.10707000000000003  0.8845900000000001  1.0000
  H   H14       1.0  0.69262  0.74777  0.68192  1.0000
  H   H15       1.0  0.35487  0.041510000000000005  0.57815  1.0000
  H   H16       1.0  0.30802  0.7495200000000002  0.18103  1.0000
  H   H17       1.0  0.28811  0.9138200000000002  0.76384  1.0000
  H   H18       1.0  0.59765  0.7087  0.08229  1.0000
  H   H19       1.0  0.29341  0.09144000000000001  0.74516  1.0000
  H   H20       1.0  0.16974  0.3521400000000001  0.85049  1.0000
  H   H21       1.0  0.94976  0.6885400000000002  0.8253800000000001  1.0000
  H   H22       1.0  0.71272  0.9172900000000003  0.26566  1.0000
  H   H23       1.0  0.77743  0.9349300000000003  0.62879  1.0000
  H   H24       1.0  0.57014  0.9691000000000002  0.40842000000000006  1.0000
  H   H25       1.0  0.1107  0.6382500000000002  0.80936  1.0000
  H   H26       1.0  0.59677  0.3725999999999999  0.95649  1.0000
  H   H27       1.0  0.34924  0.2876  0.91328  1.0000
  H   H28       1.0  0.70799  0.25185  0.82565  1.0000
  H   H29       1.0  0.40935  0.70719  0.58084  1.0000
  H   H30       1.0  0.88723  0.6389200000000003  0.3086  1.0000
  H   H31       1.0  0.15757  0.1075  0.38251  1.0000
  H   H32       1.0  0.47179999999999994  0.12271999999999997  0.31948  1.0000
  H   H33       1.0  0.89884  0.34305  0.17067  1.0000
  H   H34       1.0  0.96961  0.2671500000000001  0.65592  1.0000
  H   H35       1.0  0.20553  0.65115  0.63817  1.0000
  H   H36       1.0  0.70522  0.09531  0.24682  1.0000
  H   H37       1.0  0.82438  0.3533  0.34984  1.0000
  H   H38       1.0  0.6464  0.28957  0.41352  1.0000
  H   H39       1.0  0.02399  0.2673300000000001  0.15944  1.0000
  H   H40       1.0  0.6504  0.61174  0.54303  1.0000
  H   H41       1.0  0.40038  0.37416  0.45649  1.0000
  H   H42       1.0  0.6713  0.9628900000000002  0.84716  1.0000
  H   H43       1.0  0.65074  0.041790000000000015  0.07691  1.0000
  H   H44       1.0  0.48899  0.8798400000000001  0.18644  1.0000
  C   C1        1.0  0.7594  0.8422700000000002  0.35688  1.0000
  C   C2        1.0  0.21719  0.5134  0.83036  1.0000
  C   C3        1.0  0.31855  0.3650200000000001  0.25442  1.0000
  C   C4        1.0  0.496  0.8394700000000003  0.71805  1.0000
  C   C5        1.0  0.57124  0.001679999999999989  0.61043  1.0000
  C   C6        1.0  0.41454  0.28388  0.25349  1.0000
  C   C7        1.0  0.57023  0.7209800000000002  0.75697  1.0000
  C   C8        1.0  0.40395  0.7704000000000002  0.21518  1.0000
  C   C9        1.0  0.27858  0.3852000000000001  0.87089  1.0000
  C   C10       1.0  0.75862  0.17952000000000007  0.1588  1.0000
  C   C11       1.0  0.52901  0.10772000000000004  0.47624000000000005  1.0000
  C   C12       1.0  0.50414  0.026949999999999946  0.9219299999999999  1.0000
  C   C13       1.0  0.64408  0.84371  0.54854  1.0000
  C   C14       1.0  0.61823  0.14682000000000006  0.24938999999999997  1.0000
  C   C15       1.0  0.36212  0.19479  0.70868  1.0000
  C   C16       1.0  0.3102  0.18199999999999997  0.46105  1.0000
  C   C17       1.0  0.42728  0.6447  0.59086  1.0000
  C   C18       1.0  0.62834  0.8635900000000002  0.2619  1.0000
  C   C19       1.0  0.44267999999999996  0.59483  0.07054  1.0000
  C   C20       1.0  0.42478  0.51295  0.0819  1.0000
  C   C21       1.0  0.609  0.2334  0.79319  1.0000
  C   C22       1.0  0.2899  0.8797300000000002  0.472  1.0000
  C   C23       1.0  0.69021  0.6146600000000001  0.12382999999999998  1.0000
  C   C24       1.0  0.29019  0.4482800000000001  0.05621  1.0000
  C   C25       1.0  0.35857  0.84467  0.04879  1.0000
  C   C26       1.0  0.24004  0.8391100000000002  0.85531  1.0000
  C   C27       1.0  0.67451  0.9285900000000002  0.59936  1.0000
  C   C28       1.0  0.37193  0.8604800000000002  0.76075  1.0000
  C   C29       1.0  0.61696  0.3516600000000001  0.40463000000000005  1.0000
  C   C30       1.0  0.31949  0.46792000000000017  0.8640900000000001  1.0000
  C   C31       1.0  0.42001  0.9016800000000001  0.5208  1.0000
  C   C32       1.0  0.35823  0.8126900000000002  0.8024000000000001  1.0000
  C   C33       1.0  0.51627  0.39694999999999997  0.9292399999999998  1.0000
  C   C34       1.0  0.63972  0.025229999999999968  0.88823  1.0000
  C   C35       1.0  0.49010999999999993  0.16331000000000007  0.28969  1.0000
  C   C36       1.0  0.66397  0.11243000000000007  0.52078  1.0000
  C   C37       1.0  0.58177  0.902  0.02014  1.0000
  C   C38       1.0  0.49365999999999993  0.0283  0.42185  1.0000
  C   C39       1.0  0.6611  0.53251  0.13359  1.0000
  C   C40       1.0  0.6890099999999999  0.5388600000000002  0.94872  1.0000
  C   C41       1.0  0.57773  0.64602  0.09195  1.0000
  C   C42       1.0  0.22097  0.4834000000000001  0.65738  1.0000
  C   C43       1.0  0.67542  0.4686600000000001  0.36287  1.0000
  C   C44       1.0  0.56053  0.5925000000000002  0.56956  1.0000
  C   C45       1.0  0.56492  0.98817  0.07076  1.0000
  C   C46       1.0  0.54872  0.47914  0.92028  1.0000
  C   C47       1.0  0.71057  0.8797  0.9713700000000001  1.0000
  C   C48       1.0  0.77819  0.51472  0.32968  1.0000
  C   C49       1.0  0.50494  0.8421000000000002  0.21836000000000003  1.0000
  C   C50       1.0  0.44785  0.48018000000000005  0.4195400000000001  1.0000
  C   C51       1.0  0.34006  0.53219  0.63272  1.0000
  C   C52       1.0  0.78028  0.27008  0.98633  1.0000
  C   C53       1.0  0.68752  0.18169000000000002  0.9618  1.0000
  C   C54       1.0  0.37861  0.35025000000000006  0.9050000000000001  1.0000
  C   C55       1.0  0.46798  0.10634999999999999  0.97588  1.0000
  C   C56       1.0  0.70702  0.44427999999999995  0.55495  1.0000
  C   C57       1.0  0.58097  0.2830100000000002  0.7536  1.0000
  C   C58       1.0  0.57567  0.51063  0.5811  1.0000
  C   C59       1.0  0.43948  0.9875  0.57171  1.0000
  C   C60       1.0  0.37873  0.14436999999999997  0.74852  1.0000
  C   C61       1.0  0.7474  0.7588200000000003  0.53335  1.0000
  C   C62       1.0  0.42892  0.72329  0.25681  1.0000
  C   C63       1.0  0.33029  0.9299100000000002  0.09925000000000002  1.0000
  C   C64       1.0  0.33268  0.11066000000000002  0.01986  1.0000
  C   C65       1.0  0.35858  0.02617999999999999  0.38737  1.0000
  C   C66       1.0  0.47981  0.3981200000000001  0.42874  1.0000
  C   C67       1.0  0.33148  0.64093  0.25388  1.0000
  C   C68       1.0  0.38699  0.23389  0.29286  1.0000
  C   C69       1.0  0.64077  0.8158  0.30366  1.0000
  C   C70       1.0  0.50669  0.16203  0.78948  1.0000
  C   C71       1.0  0.67901  0.36352  0.75432  1.0000
  C   C72       1.0  0.31002  0.5407  0.44843  1.0000
  C   C73       1.0  0.31357  0.61423  0.62259  1.0000
  C   C74       1.0  0.26445  0.10456999999999997  0.40716  1.0000
  C   C75       1.0  0.59642  0.7682000000000002  0.71549  1.0000
  C   C76       1.0  0.71619  0.38633  0.37013  1.0000
  C   C77       1.0  0.77807  0.48298  0.15855  1.0000
  C   C78       1.0  0.25571  0.7596200000000002  0.03446  1.0000
  C   C79       1.0  0.21847  0.27015  0.48506  1.0000
  C   C80       1.0  0.43415  0.0028799999999999976  0.10959  1.0000
  C   C81       1.0  0.23695  0.17645  0.65731  1.0000
  C   C82       1.0  0.66694  0.63881  0.75432  1.0000
  C   C83       1.0  0.63299  0.19677000000000008  0.20915000000000003  1.0000
  C   C84       1.0  0.73392  0.104  0.90848  1.0000
  N   N1        1.0  0.4502  0.5139400000000002  0.88895  1.0000
  N   N2        1.0  0.47977  0.83272  0.0092  1.0000
  N   N3        1.0  0.46403000000000005  0.261  0.71089  1.0000
  N   N4        1.0  0.54557  0.5146000000000002  0.38781  1.0000
  N   N5        1.0  0.52114  0.8321700000000002  0.50952  1.0000
  N   N6        1.0  0.43872  0.18313  0.49493  1.0000
  N   N7        1.0  0.53046  0.4835100000000001  0.11329000000000002  1.0000
  N   N8        1.0  0.55792  0.18240999999999988  0.99473  1.0000
  N   N9        1.0  0.53057  0.26203  0.21073  1.0000
  N   N10       1.0  0.45722  0.74559  0.80117  1.0000
  N   N11       1.0  0.4693399999999999  0.4824400000000001  0.6128  1.0000
  N   N12       1.0  0.54131  0.7483500000000003  0.30177  1.0000
  O   O1        1.0  0.013010000000000002  0.6495600000000002  0.7897200000000001  1.0000
  O   O2        1.0  0.10068  0.2779200000000001  0.45456  1.0000
  O   O3        1.0  0.9858399999999999  0.65085  0.29003  1.0000
  O   O4        1.0  0.86611  0.89875  0.35867  1.0000
  O   O5        1.0  0.72611  0.21131  0.11435000000000001  1.0000
  O   O6        1.0  0.76923  0.4026500000000001  0.80027  1.0000
  O   O7        1.0  0.92022  0.4990900000000001  0.1514  1.0000
  O   O8        1.0  0.90044  0.47514000000000023  0.30515  1.0000
  O   O9        1.0  0.87716  0.13799  0.16356  1.0000
  O   O10       1.0  0.72689  0.33725000000000005  0.03612  1.0000
  O   O11       1.0  0.01067  0.3336300000000001  0.17186  1.0000
  O   O12       1.0  0.85249  0.7628900000000002  0.57234  1.0000
  O   O13       1.0  0.74432  0.59786  0.7042  1.0000
  O   O14       1.0  0.33702  0.3900000000000001  0.20555  1.0000
  O   O15       1.0  0.29728  0.36886000000000013  0.06009  1.0000
  O   O16       1.0  0.09449  0.47338000000000013  0.80574  1.0000
  O   O17       1.0  0.74113  0.8101700000000002  0.40209  1.0000
  O   O18       1.0  0.31311  0.6221800000000002  0.44779  1.0000
  O   O19       1.0  0.17004  0.9304900000000002  0.48819999999999997  1.0000
  O   O20       1.0  0.26586  0.59212  0.8303300000000001  1.0000
  O   O21       1.0  0.18032  0.47720000000000007  0.03146  1.0000
  O   O22       1.0  0.13388  0.8959000000000004  0.8574600000000001  1.0000
  O   O23       1.0  0.1179  0.13455999999999996  0.66085  1.0000
  O   O24       1.0  0.25373  0.59949  0.20357  1.0000
  O   O25       1.0  0.31069  0.8132000000000004  0.41849000000000003  1.0000
  O   O26       1.0  0.22789  0.4039500000000001  0.29982  1.0000
  O   O27       1.0  0.68745  0.62031  0.9481800000000001  1.0000
  O   O28       1.0  0.23522  0.04423000000000005  0.99999  1.0000
  O   O29       1.0  0.68828  0.81317  0.91782  1.0000
  O   O30       1.0  0.27067  0.33668  0.53589  1.0000
  O   O31       1.0  0.15493  0.76263  0.07455  1.0000
  O   O32       1.0  0.71066  0.6899000000000002  0.48092  1.0000
  O   O33       1.0  0.83165  0.92996  0.98774  1.0000
  O   O34       1.0  0.66316  0.38808999999999994  0.70512  1.0000
  O   O35       1.0  0.98786  0.33376  0.67203  1.0000
  O   O36       1.0  0.79402  0.50558  0.9730400000000001  1.0000
  O   O37       1.0  0.2585  0.8066900000000002  0.90026  1.0000
  O   O38       1.0  0.20473  0.5080200000000002  0.47308  1.0000
  O   O39       1.0  0.73067  0.5936  0.33002  1.0000
  O   O40       1.0  0.28907  0.69142  0.98124  1.0000
  O   O41       1.0  0.90081  0.27738999999999997  0.95734  1.0000
  O   O42       1.0  0.81875  0.4724500000000002  0.53077  1.0000
  O   O43       1.0  0.72738  0.42309000000000013  0.17944  1.0000
  O   O44       1.0  0.66411  0.17756  0.57573  1.0000
  O   O45       1.0  0.32924  0.17778  0.0738  1.0000
  O   O46       1.0  0.33522  0.6184100000000002  0.30372  1.0000
  O   O47       1.0  0.07972  0.49905999999999995  0.649  1.0000
  O   O48       1.0  0.66331  0.6158200000000003  0.80398  1.0000
  O   O49       1.0  0.69508  0.36423  0.55746  1.0000
  O   O50       1.0  0.26989  0.4239400000000001  0.67921  1.0000
  O   O51       1.0  0.27221  0.20786000000000002  0.61282  1.0000
  O   O52       1.0  0.76423  0.04815000000000001  0.50017  1.0000
