data_image0
_chemical_formula_structural       Gd8H28C72S12O50
_chemical_formula_sum              "Gd8 H28 C72 S12 O50"
_cell_length_a       11.28866
_cell_length_b       16.62481
_cell_length_c       17.55435
_cell_angle_alpha    90.39306
_cell_angle_beta     90.0
_cell_angle_gamma    90.0

_space_group_name_H-M_alt    "P 1"
_space_group_IT_number       1

loop_
  _space_group_symop_operation_xyz
  'x, y, z'

loop_
  _atom_site_type_symbol
  _atom_site_label
  _atom_site_symmetry_multiplicity
  _atom_site_fract_x
  _atom_site_fract_y
  _atom_site_fract_z
  _atom_site_occupancy
  Gd  Gd1       1.0  0.035890000000000005  0.53482  0.66446  1.0000
  Gd  Gd2       1.0  0.42611  0.59278  0.16694  1.0000
  Gd  Gd3       1.0  0.88441  0.74415  0.67622  1.0000
  Gd  Gd4       1.0  0.11559000000000003  0.24415000000000003  0.67622  1.0000
  Gd  Gd5       1.0  0.41132  0.8757899999999998  0.17362  1.0000
  Gd  Gd6       1.0  0.58868  0.37579  0.17362  1.0000
  Gd  Gd7       1.0  0.5738900000000001  0.09278  0.16694  1.0000
  Gd  Gd8       1.0  0.9641100000000002  0.03482  0.66446  1.0000
  H   H1        1.0  0.84158  0.43403  0.85357  1.0000
  H   H2        1.0  0.38308  0.19102  0.36056  1.0000
  H   H3        1.0  0.91038  0.35231  0.48967999999999995  1.0000
  H   H4        1.0  0.3989500000000001  0.28057  0.9775  1.0000
  H   H5        1.0  0.6169200000000001  0.69102  0.36056  1.0000
  H   H6        1.0  0.74143  0.41518  0.99054  1.0000
  H   H7        1.0  0.10423  0.51348  0.45806  1.0000
  H   H8        1.0  0.89577  0.01347  0.45806  1.0000
  H   H9        1.0  0.82279  0.36339  0.3484  1.0000
  H   H10       1.0  0.42281  0.24101  0.12829  1.0000
  H   H11       1.0  0.57109  0.74104  0.2169  1.0000
  H   H12       1.0  0.35153  0.60451  0.9579899999999999  1.0000
  H   H13       1.0  0.75819  0.08839  0.82436  1.0000
  H   H14       1.0  0.6484600000000001  0.10451  0.9579899999999999  1.0000
  H   H15       1.0  0.42891  0.24104  0.2169  1.0000
  H   H16       1.0  0.17721000000000003  0.86339  0.3484  1.0000
  H   H17       1.0  0.31149  0.27412  0.83712  1.0000
  H   H18       1.0  0.7157300000000002  0.70707  0.49749  1.0000
  H   H19       1.0  0.08962000000000002  0.85231  0.48967999999999995  1.0000
  H   H20       1.0  0.57719  0.74101  0.12829  1.0000
  H   H21       1.0  0.78689  0.0306  0.32434  1.0000
  H   H22       1.0  0.60104  0.78057  0.9775  1.0000
  H   H23       1.0  0.2842700000000001  0.20707  0.49749  1.0000
  H   H24       1.0  0.21311000000000005  0.5306  0.32434  1.0000
  H   H25       1.0  0.25856000000000007  0.91518  0.99054  1.0000
  H   H26       1.0  0.24181  0.58839  0.82436  1.0000
  H   H27       1.0  0.6885100000000001  0.77412  0.83712  1.0000
  H   H28       1.0  0.15841  0.93403  0.85357  1.0000
  C   C1        1.0  0.6916  0.89556  0.99075  1.0000
  C   C2        1.0  0.25743  0.71728  0.9725700000000002  1.0000
  C   C3        1.0  0.74257  0.21728  0.9725700000000002  1.0000
  C   C4        1.0  0.17871  0.40643  0.78462  1.0000
  C   C5        1.0  0.29408000000000006  0.72827  0.28584  1.0000
  C   C6        1.0  0.39251  0.04854  0.04965  1.0000
  C   C7        1.0  0.81658  0.31136  0.38512  1.0000
  C   C8        1.0  0.19124000000000002  0.08351  0.77888  1.0000
  C   C9        1.0  0.78831  0.47857  0.88347  1.0000
  C   C10       1.0  0.7017500000000001  0.23876  0.05054  1.0000
  C   C11       1.0  0.15808  0.72972  0.49061  1.0000
  C   C12       1.0  0.32545  0.03694  0.9791499999999999  1.0000
  C   C13       1.0  0.35552000000000006  0.42383  0.06434  1.0000
  C   C14       1.0  0.8419100000000003  0.22971  0.49061  1.0000
  C   C15       1.0  0.33095  0.1452  0.38893  1.0000
  C   C16       1.0  0.65876  0.82546  0.95246  1.0000
  C   C17       1.0  0.23232000000000005  0.63921  0.86306  1.0000
  C   C18       1.0  0.22803  0.38946  0.86036  1.0000
  C   C19       1.0  0.7815600000000003  0.9105  0.47761999999999993  1.0000
  C   C20       1.0  0.8629700000000001  0.30514  0.4591700000000001  1.0000
  C   C21       1.0  0.7043400000000001  0.8220999999999999  0.87809  1.0000
  C   C22       1.0  0.21844  0.4105  0.47761999999999993  1.0000
  C   C23       1.0  0.64448  0.92383  0.06434  1.0000
  C   C24       1.0  0.23563000000000006  0.05361  0.85231  1.0000
  C   C25       1.0  0.3084  0.39555  0.99075  1.0000
  C   C26       1.0  0.70592  0.22827  0.28584  1.0000
  C   C27       1.0  0.73681  0.46897  0.9558100000000002  1.0000
  C   C28       1.0  0.8444400000000001  0.20246  0.84844  1.0000
  C   C29       1.0  0.17973  0.38331  0.55347  1.0000
  C   C30       1.0  0.34832  0.04167  0.2804  1.0000
  C   C31       1.0  0.15021000000000004  0.0717  0.55277  1.0000
  C   C32       1.0  0.9267600000000001  0.21139  0.78481  1.0000
  C   C33       1.0  0.6816200000000001  0.92586  0.35347  1.0000
  C   C34       1.0  0.76437  0.55361  0.85231  1.0000
  C   C35       1.0  0.28003  0.15348  0.46174000000000004  1.0000
  C   C36       1.0  0.60749  0.54854  0.04965  1.0000
  C   C37       1.0  0.2193  0.08455  0.48349  1.0000
  C   C38       1.0  0.8212900000000001  0.90643  0.78462  1.0000
  C   C39       1.0  0.76768  0.13921  0.86306  1.0000
  C   C40       1.0  0.28988  0.64749  0.9338400000000001  1.0000
  C   C41       1.0  0.7686200000000001  0.9836400000000001  0.36542  1.0000
  C   C42       1.0  0.84979  0.5717  0.55277  1.0000
  C   C43       1.0  0.65168  0.54167  0.2804  1.0000
  C   C44       1.0  0.29566000000000003  0.3221  0.87809  1.0000
  C   C45       1.0  0.13702  0.80514  0.4591700000000001  1.0000
  C   C46       1.0  0.29825  0.73876  0.05054  1.0000
  C   C47       1.0  0.34124  0.32546  0.95246  1.0000
  C   C48       1.0  0.82578  0.97486  0.43627  1.0000
  C   C49       1.0  0.71997  0.65348  0.46174000000000004  1.0000
  C   C50       1.0  0.21168  0.9785799999999999  0.88347  1.0000
  C   C51       1.0  0.8087600000000001  0.58351  0.77888  1.0000
  C   C52       1.0  0.17422  0.47486  0.43627  1.0000
  C   C53       1.0  0.31838  0.42586  0.35347  1.0000
  C   C54       1.0  0.71012  0.14748  0.9338400000000001  1.0000
  C   C55       1.0  0.77197  0.88946  0.86036  1.0000
  C   C56       1.0  0.23994  0.74137  0.3611  1.0000
  C   C57       1.0  0.67455  0.53694  0.9791499999999999  1.0000
  C   C58       1.0  0.07324000000000001  0.71139  0.78481  1.0000
  C   C59       1.0  0.7807000000000002  0.58455  0.48349  1.0000
  C   C60       1.0  0.8892900000000002  0.19965  0.56308  1.0000
  C   C61       1.0  0.30783  0.07048  0.35574  1.0000
  C   C62       1.0  0.18342  0.81136  0.38512  1.0000
  C   C63       1.0  0.23138  0.48364  0.36542  1.0000
  C   C64       1.0  0.26318  0.9689699999999999  0.9558100000000002  1.0000
  C   C65       1.0  0.76006  0.24136999999999997  0.3611  1.0000
  C   C66       1.0  0.60094  0.9177  0.28845  1.0000
  C   C67       1.0  0.66905  0.6452  0.38893  1.0000
  C   C68       1.0  0.39906  0.4177  0.28845  1.0000
  C   C69       1.0  0.82027  0.88332  0.55347  1.0000
  C   C70       1.0  0.11070000000000002  0.69965  0.56308  1.0000
  C   C71       1.0  0.69217  0.57048  0.35574  1.0000
  C   C72       1.0  0.15556  0.70246  0.84844  1.0000
  S   S1        1.0  0.1571  0.77343  0.92125  1.0000
  S   S2        1.0  0.22546000000000005  0.00992  0.41482  1.0000
  S   S3        1.0  0.21861000000000003  0.45595  0.9358900000000001  1.0000
  S   S4        1.0  0.32111  0.1125  0.9120599999999999  1.0000
  S   S5        1.0  0.7813900000000001  0.9559600000000001  0.9358900000000001  1.0000
  S   S6        1.0  0.32873  0.35993  0.42875  1.0000
  S   S7        1.0  0.7745400000000001  0.50992  0.41482  1.0000
  S   S8        1.0  0.23724  0.66793  0.42986  1.0000
  S   S9        1.0  0.67127  0.85993  0.42875  1.0000
  S   S10       1.0  0.84289  0.27342  0.92125  1.0000
  S   S11       1.0  0.76276  0.16792  0.42986  1.0000
  S   S12       1.0  0.67889  0.61251  0.9120599999999999  1.0000
  O   O1        1.0  0.21315  0.15677  0.76089  1.0000
  O   O2        1.0  0.6730200000000001  0.46876  0.26132  1.0000
  O   O3        1.0  0.05419  0.6515  0.7389  1.0000
  O   O4        1.0  0.78685  0.65677  0.76089  1.0000
  O   O5        1.0  0.5536000000000001  0.6153799999999999  0.06036  1.0000
  O   O6        1.0  0.94729  0.25041  0.60328  1.0000
  O   O7        1.0  0.45833000000000007  0.35254  0.28035  1.0000
  O   O8        1.0  0.31433000000000005  0.8128  0.06839  1.0000
  O   O9        1.0  0.3155700000000001  0.67952  0.09456  1.0000
  O   O10       1.0  0.6668900000000001  0.1579  0.26918  1.0000
  O   O11       1.0  0.40350000000000014  0.09311  0.23971999999999996  1.0000
  O   O12       1.0  0.86848  0.53355  0.73871  1.0000
  O   O13       1.0  0.86392  0.63072  0.60002  1.0000
  O   O14       1.0  0.32698  0.9687600000000001  0.26132  1.0000
  O   O15       1.0  0.58419  0.8725  0.10233  1.0000
  O   O16       1.0  0.8748400000000002  0.9729199999999999  0.77221  1.0000
  O   O17       1.0  0.60123  0.49158999999999997  0.09861  1.0000
  O   O18       1.0  0.66219  0.9968899999999999  0.08371  1.0000
  O   O19       1.0  0.70274  0.28883  0.24180000000000001  1.0000
  O   O20       1.0  0.5965  0.59312  0.23971999999999996  1.0000
  O   O21       1.0  0.6856700000000001  0.3128  0.06839  1.0000
  O   O22       1.0  0.05271000000000001  0.75041  0.60328  1.0000
  O   O23       1.0  0.88114  0.9318  0.59447  1.0000
  O   O24       1.0  0.54167  0.85254  0.28035  1.0000
  O   O25       1.0  0.4464  0.11538  0.06036  1.0000
  O   O26       1.0  0.20749000000000006  0.31182  0.57326  1.0000
  O   O27       1.0  0.12516000000000002  0.47292  0.77221  1.0000
  O   O28       1.0  0.39877000000000007  0.99159  0.09861  1.0000
  O   O29       1.0  0.19715  0.35266  0.73388  1.0000
  O   O30       1.0  0.41581000000000007  0.3725  0.10233  1.0000
  O   O31       1.0  0.13152000000000003  0.03355  0.73871  1.0000
  O   O32       1.0  0.10084000000000001  0.00392  0.56427  1.0000
  O   O33       1.0  0.29726  0.78883  0.24180000000000001  1.0000
  O   O34       1.0  0.6844300000000001  0.17952  0.09456  1.0000
  O   O35       1.0  0.89916  0.50392  0.56427  1.0000
  O   O36       1.0  0.01796  0.77768  0.77657  1.0000
  O   O37       1.0  0.11886000000000001  0.4318  0.59447  1.0000
  O   O38       1.0  0.58965  0.97611  0.24171  1.0000
  O   O39       1.0  0.52258  0.73455  0.17107  1.0000
  O   O40       1.0  0.33311  0.6579  0.26918  1.0000
  O   O41       1.0  0.12615  0.6252699999999999  0.57991  1.0000
  O   O42       1.0  0.33781  0.49688999999999994  0.08371  1.0000
  O   O43       1.0  0.9820300000000002  0.27768  0.77657  1.0000
  O   O44       1.0  0.13608  0.13072  0.60002  1.0000
  O   O45       1.0  0.8028500000000002  0.85266  0.73388  1.0000
  O   O46       1.0  0.9458100000000003  0.1515  0.7389  1.0000
  O   O47       1.0  0.87385  0.12527  0.57991  1.0000
  O   O48       1.0  0.7925100000000003  0.81182  0.57326  1.0000
  O   O49       1.0  0.47742000000000007  0.23455  0.17107  1.0000
  O   O50       1.0  0.41034  0.47611  0.24171  1.0000
