data_image0
_chemical_formula_structural       Zn4H66C68N16O20
_chemical_formula_sum              "Zn4 H66 C68 N16 O20"
_cell_length_a       10.56289
_cell_length_b       12.595429999999999
_cell_length_c       19.79541
_cell_angle_alpha    75.48424
_cell_angle_beta     82.05292
_cell_angle_gamma    83.37835000000001

_symmetry_space_group_name_H-M    'P 1'
_symmetry_Int_Tables_number       1

loop_
  _symmetry_equiv_pos_as_xyz
  'x,y,z'

loop_
  _atom_site_type_symbol
  _atom_site_label
  _atom_site_symmetry_multiplicity
  _atom_site_fract_x
  _atom_site_fract_y
  _atom_site_fract_z
  _atom_site_occupancy
  Zn  Zn1       1.0  0.3169400000000001  0.8757999999999998  0.15299  1.0000
  Zn  Zn2       1.0  0.3096  0.8791999999999999  0.6744900000000001  1.0000
  Zn  Zn3       1.0  0.68305  0.12419999999999992  0.8470000000000001  1.0000
  Zn  Zn4       1.0  0.69039  0.12079999999999995  0.32551000000000013  1.0000
  H   H1        1.0  0.58487  0.9913499999999998  0.09905  1.0000
  H   H2        1.0  0.15039  0.58532  0.37976  1.0000
  H   H3        1.0  0.41448  0.07975  0.021200000000000004  1.0000
  H   H4        1.0  0.8982499999999999  0.8773099999999999  0.17974  1.0000
  H   H5        1.0  0.8198399999999999  0.01125999999999998  0.15931000000000006  1.0000
  H   H6        1.0  0.15464999999999998  0.63414  0.07456000000000002  1.0000
  H   H7        1.0  0.35392  0.8325599999999997  0.8909200000000002  1.0000
  H   H8        1.0  0.78429  0.9815  0.040860000000000014  1.0000
  H   H9        1.0  0.8732200000000001  0.85282  0.06082000000000001  1.0000
  H   H10       1.0  0.10101000000000003  0.6038499999999998  0.86725  1.0000
  H   H11       1.0  0.5381799999999999  0.43161  0.9448  1.0000
  H   H12       1.0  0.3986500000000001  0.5217699999999997  0.9483600000000001  1.0000
  H   H13       1.0  0.97757  0.07473  0.05186  1.0000
  H   H14       1.0  0.06784000000000001  0.9466799999999999  0.0659  1.0000
  H   H15       1.0  0.25361  0.35323999999999994  0.96888  1.0000
  H   H16       1.0  0.40072  0.2727199999999999  0.95806  1.0000
  H   H17       1.0  0.46507  0.31916  0.06603  1.0000
  H   H18       1.0  0.32436  0.40855999999999987  0.06900000000000002  1.0000
  H   H19       1.0  0.7728599999999999  0.68779  0.47032  1.0000
  H   H20       1.0  0.12427999999999997  0.28642  0.10544000000000002  1.0000
  H   H21       1.0  0.48756  0.85956  0.52032  1.0000
  H   H22       1.0  0.4920000000000001  0.7127499999999999  0.26113000000000003  1.0000
  H   H23       1.0  0.75161  0.74735  0.25837  1.0000
  H   H24       1.0  0.13168  0.7513999999999997  0.6271800000000001  1.0000
  H   H25       1.0  0.5059699999999999  0.79056  0.41572000000000003  1.0000
  H   H26       1.0  0.35924999999999996  0.7918899999999999  0.3806  1.0000
  H   H27       1.0  0.59393  0.5866999999999998  0.49488000000000004  1.0000
  H   H28       1.0  0.4411000000000001  0.5822399999999998  0.5434  1.0000
  H   H29       1.0  0.17357999999999996  0.69555  0.4978900000000001  1.0000
  H   H30       1.0  0.3438600000000001  0.5960199999999999  0.42958000000000013  1.0000
  H   H31       1.0  0.49624  0.6152399999999999  0.3829000000000001  1.0000
  H   H32       1.0  0.96762  0.90243  0.29198000000000013  1.0000
  H   H33       1.0  0.11156999999999997  0.07003  0.18563  1.0000
  H   H34       1.0  0.41511999999999993  0.008650000000000019  0.90095  1.0000
  H   H35       1.0  0.8496  0.41467999999999994  0.62023  1.0000
  H   H36       1.0  0.5855100000000001  0.9202600000000001  0.9788  1.0000
  H   H37       1.0  0.10174000000000004  0.12268999999999998  0.82026  1.0000
  H   H38       1.0  0.1801500000000001  0.9887399999999997  0.84069  1.0000
  H   H39       1.0  0.8453399999999998  0.3658600000000001  0.92544  1.0000
  H   H40       1.0  0.64607  0.16743999999999995  0.10908000000000001  1.0000
  H   H41       1.0  0.21570000000000003  0.01849999999999996  0.9591400000000001  1.0000
  H   H42       1.0  0.12678  0.14718999999999996  0.9391800000000001  1.0000
  H   H43       1.0  0.8989799999999999  0.39615  0.13274  1.0000
  H   H44       1.0  0.46180999999999994  0.5683899999999998  0.055200000000000006  1.0000
  H   H45       1.0  0.6013400000000002  0.47823  0.05164  1.0000
  H   H46       1.0  0.02242000000000006  0.9252699999999998  0.94814  1.0000
  H   H47       1.0  0.93215  0.05332999999999997  0.9341000000000002  1.0000
  H   H48       1.0  0.74638  0.64676  0.031120000000000002  1.0000
  H   H49       1.0  0.5992800000000001  0.7272799999999998  0.04194  1.0000
  H   H50       1.0  0.5349300000000003  0.6808399999999999  0.93396  1.0000
  H   H51       1.0  0.6756300000000001  0.5914399999999997  0.9309900000000001  1.0000
  H   H52       1.0  0.22713000000000003  0.31222  0.52968  1.0000
  H   H53       1.0  0.87571  0.7135799999999998  0.89456  1.0000
  H   H54       1.0  0.5124299999999999  0.14043999999999998  0.47968000000000005  1.0000
  H   H55       1.0  0.50799  0.28725999999999996  0.73887  1.0000
  H   H56       1.0  0.24838999999999997  0.2526499999999999  0.74162  1.0000
  H   H57       1.0  0.86831  0.24861000000000003  0.37282  1.0000
  H   H58       1.0  0.49402000000000007  0.20943999999999993  0.5842700000000001  1.0000
  H   H59       1.0  0.6407499999999999  0.2081099999999999  0.6193900000000002  1.0000
  H   H60       1.0  0.4060599999999999  0.4133  0.50512  1.0000
  H   H61       1.0  0.55889  0.41775999999999985  0.45660000000000006  1.0000
  H   H62       1.0  0.82641  0.30445  0.50211  1.0000
  H   H63       1.0  0.65614  0.4039799999999999  0.5704200000000001  1.0000
  H   H64       1.0  0.5037499999999998  0.38477  0.6171  1.0000
  H   H65       1.0  0.03236999999999996  0.09757999999999994  0.7080200000000001  1.0000
  H   H66       1.0  0.88842  0.92997  0.8143700000000003  1.0000
  C   C1        1.0  0.18527000000000002  0.7659299999999998  0.27631  1.0000
  C   C2        1.0  0.59265  0.9200199999999997  0.14289  1.0000
  C   C3        1.0  0.31037  0.8035899999999999  0.03207  1.0000
  C   C4        1.0  0.2570500000000001  0.7420599999999999  0.98761  1.0000
  C   C5        1.0  0.06853000000000002  0.64557  0.38102  1.0000
  C   C6        1.0  0.33299000000000006  0.10359999999999997  0.05532000000000001  1.0000
  C   C7        1.0  0.82704  0.92961  0.14801  1.0000
  C   C8        1.0  0.17550000000000002  0.6588499999999999  0.01783  1.0000
  C   C9        1.0  0.28785  0.7700699999999998  0.91487  1.0000
  C   C10       1.0  0.86335  0.93633  0.06962  1.0000
  C   C11       1.0  0.14596999999999996  0.6398499999999998  0.9011900000000002  1.0000
  C   C12       1.0  0.25648999999999994  0.76666  0.7941800000000001  1.0000
  C   C13       1.0  0.9616499999999998  0.62704  0.43113000000000007  1.0000
  C   C14       1.0  0.12163999999999997  0.6071899999999998  0.9747400000000002  1.0000
  C   C15       1.0  0.46674000000000004  0.4664799999999999  0.9811600000000001  1.0000
  C   C16       1.0  0.98614  0.9933399999999999  0.03986  1.0000
  C   C17       1.0  0.33209999999999995  0.3046199999999999  0.9967100000000001  1.0000
  C   C18       1.0  0.39696  0.37402  0.033150000000000006  1.0000
  C   C19       1.0  0.06989999999999998  0.74529  0.33031  1.0000
  C   C20       1.0  0.23130999999999993  0.7212299999999998  0.8717900000000001  1.0000
  C   C21       1.0  0.85834  0.80448  0.38093  1.0000
  C   C22       1.0  0.8559100000000001  0.70467  0.43148  1.0000
  C   C23       1.0  0.18041000000000001  0.21060999999999996  0.10072  1.0000
  C   C24       1.0  0.39581  0.8242999999999997  0.5332400000000002  1.0000
  C   C25       1.0  0.55129  0.7744099999999999  0.22771000000000002  1.0000
  C   C26       1.0  0.67814  0.7906499999999999  0.22624000000000002  1.0000
  C   C27       1.0  0.20994  0.7668799999999998  0.5854300000000001  1.0000
  C   C28       1.0  0.41514000000000006  0.75226  0.42437  1.0000
  C   C29       1.0  0.49668  0.5623399999999998  0.4963100000000001  1.0000
  C   C30       1.0  0.22899999999999995  0.7405999999999999  0.5215200000000001  1.0000
  C   C31       1.0  0.43592  0.62776  0.4307  1.0000
  C   C32       1.0  0.96542  0.82421  0.33061000000000007  1.0000
  C   C33       1.0  0.17564  0.10407999999999999  0.13965  1.0000
  C   C34       1.0  0.7486700000000001  0.89204  0.38152  1.0000
  C   C35       1.0  0.81472  0.23407  0.72369  1.0000
  C   C36       1.0  0.40734  0.07997999999999991  0.8571100000000001  1.0000
  C   C37       1.0  0.6896200000000002  0.19641  0.96793  1.0000
  C   C38       1.0  0.74294  0.25794  0.01239  1.0000
  C   C39       1.0  0.93146  0.3544299999999999  0.61898  1.0000
  C   C40       1.0  0.6669999999999999  0.8964100000000002  0.94468  1.0000
  C   C41       1.0  0.17294999999999994  0.0704  0.8519900000000001  1.0000
  C   C42       1.0  0.82449  0.34115000000000006  0.98217  1.0000
  C   C43       1.0  0.7121400000000001  0.22993  0.08513000000000001  1.0000
  C   C44       1.0  0.13663999999999996  0.06366999999999992  0.9303700000000003  1.0000
  C   C45       1.0  0.8540199999999999  0.3601599999999999  0.09881  1.0000
  C   C46       1.0  0.7435  0.23333999999999994  0.20582  1.0000
  C   C47       1.0  0.038340000000000006  0.3729699999999999  0.56887  1.0000
  C   C48       1.0  0.87835  0.39281  0.02525  1.0000
  C   C49       1.0  0.53325  0.53352  0.01883  1.0000
  C   C50       1.0  0.013850000000000005  0.00665999999999998  0.96014  1.0000
  C   C51       1.0  0.6678900000000001  0.6953799999999999  0.0032900000000000004  1.0000
  C   C52       1.0  0.6030299999999998  0.6259799999999999  0.9668500000000001  1.0000
  C   C53       1.0  0.9300900000000001  0.2547099999999999  0.6696900000000002  1.0000
  C   C54       1.0  0.76868  0.27877  0.12821  1.0000
  C   C55       1.0  0.14165  0.19552  0.61907  1.0000
  C   C56       1.0  0.14407999999999996  0.29532999999999976  0.5685200000000002  1.0000
  C   C57       1.0  0.8195800000000001  0.78939  0.89928  1.0000
  C   C58       1.0  0.60418  0.17569999999999997  0.4667600000000001  1.0000
  C   C59       1.0  0.44870000000000004  0.22558999999999982  0.7722900000000003  1.0000
  C   C60       1.0  0.32185000000000014  0.20934999999999998  0.77375  1.0000
  C   C61       1.0  0.79005  0.23311999999999997  0.4145700000000001  1.0000
  C   C62       1.0  0.5848500000000001  0.24774  0.57563  1.0000
  C   C63       1.0  0.50331  0.43765999999999994  0.50369  1.0000
  C   C64       1.0  0.771  0.2593999999999999  0.47848  1.0000
  C   C65       1.0  0.56407  0.37224  0.5693  1.0000
  C   C66       1.0  0.034570000000000004  0.17578999999999997  0.66939  1.0000
  C   C67       1.0  0.8243500000000005  0.89592  0.86035  1.0000
  C   C68       1.0  0.25132999999999994  0.10795999999999993  0.6184800000000001  1.0000
  N   N1        1.0  0.27142  0.03796000000000001  0.11081  1.0000
  N   N2        1.0  0.31456000000000006  0.8194  0.59223  1.0000
  N   N3        1.0  0.4990299999999999  0.8558499999999998  0.17544  1.0000
  N   N4        1.0  0.2804  0.20884  0.047420000000000004  1.0000
  N   N5        1.0  0.70291  0.8825599999999998  0.17238000000000003  1.0000
  N   N6        1.0  0.9495  0.52316  0.48234000000000005  1.0000
  N   N7        1.0  0.04844999999999999  0.51506  0.013810000000000001  1.0000
  N   N8        1.0  0.34631000000000006  0.7770199999999998  0.48943000000000003  1.0000
  N   N9        1.0  0.7285699999999999  0.96204  0.88919  1.0000
  N   N10       1.0  0.68543  0.18059999999999998  0.4077600000000001  1.0000
  N   N11       1.0  0.50097  0.14415999999999987  0.8245600000000002  1.0000
  N   N12       1.0  0.71959  0.7911699999999998  0.9525800000000001  1.0000
  N   N13       1.0  0.29708  0.11743999999999995  0.8276200000000001  1.0000
  N   N14       1.0  0.05049000000000003  0.4768399999999999  0.51766  1.0000
  N   N15       1.0  0.9515400000000003  0.4849399999999998  0.9861900000000001  1.0000
  N   N16       1.0  0.6536799999999999  0.22298  0.51056  1.0000
  O   O1        1.0  0.274  0.7742999999999999  0.09838000000000002  1.0000
  O   O2        1.0  0.17410000000000003  0.8581300000000001  0.22917  1.0000
  O   O3        1.0  0.38269  0.8786299999999998  0.00294  1.0000
  O   O4        1.0  0.28056  0.6972599999999999  0.27968  1.0000
  O   O5        1.0  0.36221000000000003  0.81361  0.77098  1.0000
  O   O6        1.0  0.17365000000000003  0.7661499999999999  0.75379  1.0000
  O   O7        1.0  0.07494000000000003  0.46656999999999976  0.07566000000000002  1.0000
  O   O8        1.0  0.8415999999999999  0.48146999999999995  0.4953  1.0000
  O   O9        1.0  0.66184  0.8839299999999999  0.43142  1.0000
  O   O10       1.0  0.75704  0.9735199999999998  0.32557  1.0000
  O   O11       1.0  0.7259900000000002  0.22570000000000004  0.90162  1.0000
  O   O12       1.0  0.82589  0.14187999999999998  0.77083  1.0000
  O   O13       1.0  0.6173  0.12138000000000003  0.99706  1.0000
  O   O14       1.0  0.7194300000000001  0.3027399999999998  0.7203200000000002  1.0000
  O   O15       1.0  0.63778  0.18639  0.22902000000000003  1.0000
  O   O16       1.0  0.82634  0.23385000000000003  0.24621000000000004  1.0000
  O   O17       1.0  0.92505  0.5334299999999997  0.92434  1.0000
  O   O18       1.0  0.15839000000000003  0.51853  0.5047  1.0000
  O   O19       1.0  0.33815  0.11607999999999995  0.5685800000000001  1.0000
  O   O20       1.0  0.24294999999999997  0.02648000000000002  0.67443  1.0000
