data_image0
_chemical_formula_structural       Zn8H72C96O38
_chemical_formula_sum              "Zn8 H72 C96 O38"
_cell_length_a       17.30757
_cell_length_b       17.30819
_cell_length_c       17.30768
_cell_angle_alpha    86.44801
_cell_angle_beta     86.47062
_cell_angle_gamma    86.46848

_space_group_name_H-M_alt    "P 1"
_space_group_IT_number       1

loop_
  _space_group_symop_operation_xyz
  'x, y, z'

loop_
  _atom_site_type_symbol
  _atom_site_label
  _atom_site_symmetry_multiplicity
  _atom_site_fract_x
  _atom_site_fract_y
  _atom_site_fract_z
  _atom_site_occupancy
  Zn  Zn1       1.0  0.11431  0.11488000000000001  0.24925999999999998  1.0000
  Zn  Zn2       1.0  0.1149  0.24925  0.11426  1.0000
  Zn  Zn3       1.0  0.24923000000000003  0.11430999999999998  0.11491  1.0000
  Zn  Zn4       1.0  0.24106000000000002  0.24104  0.24102000000000004  1.0000
  Zn  Zn5       1.0  0.88569  0.8851199999999999  0.75074  1.0000
  Zn  Zn6       1.0  0.8850999999999997  0.75075  0.88574  1.0000
  Zn  Zn7       1.0  0.75077  0.88569  0.88509  1.0000
  Zn  Zn8       1.0  0.75894  0.75896  0.75898  1.0000
  H   H1        1.0  0.0875  0.08801999999999999  0.49322  1.0000
  H   H2        1.0  0.26966  0.24517  0.61844  1.0000
  H   H3        1.0  0.2738900000000001  0.24152  0.47368  1.0000
  H   H4        1.0  0.98939  0.00841  0.66716  1.0000
  H   H5        1.0  0.98735  0.06508  0.57673  1.0000
  H   H6        1.0  0.05974000000000001  0.98697  0.58946  1.0000
  H   H7        1.0  0.10945  0.28325  0.87333  1.0000
  H   H8        1.0  0.24650999999999998  0.06572999999999997  0.73773  1.0000
  H   H9        1.0  0.25146999999999997  0.07097999999999999  0.8803400000000002  1.0000
  H   H10       1.0  0.037520000000000005  0.39221  0.70553  1.0000
  H   H11       1.0  0.01837999999999998  0.34047  0.7970000000000003  1.0000
  H   H12       1.0  0.10813000000000002  0.38678  0.77776  1.0000
  H   H13       1.0  0.088  0.4932799999999999  0.08742000000000003  1.0000
  H   H14       1.0  0.24509999999999998  0.61838  0.26972  1.0000
  H   H15       1.0  0.24148  0.47362  0.27383  1.0000
  H   H16       1.0  0.008400000000000005  0.6672  0.98937  1.0000
  H   H17       1.0  0.06507000000000002  0.5767899999999999  0.9873599999999999  1.0000
  H   H18       1.0  0.98695  0.58947  0.05972  1.0000
  H   H19       1.0  0.2832  0.87337  0.10947  1.0000
  H   H20       1.0  0.06567  0.73769  0.24658  1.0000
  H   H21       1.0  0.07096  0.88032  0.25151  1.0000
  H   H22       1.0  0.39213  0.70556  0.03757  1.0000
  H   H23       1.0  0.34043000000000007  0.7970399999999997  0.0184  1.0000
  H   H24       1.0  0.38675  0.7777799999999998  0.10814  1.0000
  H   H25       1.0  0.49321  0.08755  0.08802  1.0000
  H   H26       1.0  0.61845  0.26969  0.24515000000000003  1.0000
  H   H27       1.0  0.47368999999999994  0.2738699999999999  0.24152  1.0000
  H   H28       1.0  0.66711  0.9894499999999999  0.00842  1.0000
  H   H29       1.0  0.57672  0.98743  0.06512000000000001  1.0000
  H   H30       1.0  0.58939  0.05979999999999999  0.98698  1.0000
  H   H31       1.0  0.87335  0.10944  0.28325  1.0000
  H   H32       1.0  0.73771  0.24657  0.06567000000000002  1.0000
  H   H33       1.0  0.88034  0.25149  0.07095  1.0000
  H   H34       1.0  0.70555  0.03751999999999999  0.3922  1.0000
  H   H35       1.0  0.797  0.018359999999999998  0.34048  1.0000
  H   H36       1.0  0.7778  0.10808999999999999  0.38678000000000007  1.0000
  H   H37       1.0  0.9124999999999998  0.9119799999999997  0.50678  1.0000
  H   H38       1.0  0.73033  0.75483  0.38156  1.0000
  H   H39       1.0  0.72611  0.75848  0.52632  1.0000
  H   H40       1.0  0.010610000000000001  0.9915899999999999  0.33284  1.0000
  H   H41       1.0  0.012650000000000002  0.9349299999999999  0.42327  1.0000
  H   H42       1.0  0.94026  0.013029999999999995  0.41053  1.0000
  H   H43       1.0  0.8905500000000001  0.7167499999999998  0.12667  1.0000
  H   H44       1.0  0.75349  0.9342799999999999  0.26227  1.0000
  H   H45       1.0  0.74853  0.92902  0.11965  1.0000
  H   H46       1.0  0.96248  0.60779  0.29447  1.0000
  H   H47       1.0  0.9816200000000002  0.6595299999999998  0.203  1.0000
  H   H48       1.0  0.89187  0.61323  0.22224  1.0000
  H   H49       1.0  0.9119999999999999  0.50673  0.91258  1.0000
  H   H50       1.0  0.7549  0.38162  0.73028  1.0000
  H   H51       1.0  0.75852  0.5263899999999999  0.72617  1.0000
  H   H52       1.0  0.9916000000000001  0.3327999999999999  0.01063  1.0000
  H   H53       1.0  0.9349299999999999  0.42321  0.01264  1.0000
  H   H54       1.0  0.01304999999999999  0.41053999999999996  0.9402800000000001  1.0000
  H   H55       1.0  0.7168  0.12663  0.89053  1.0000
  H   H56       1.0  0.9343299999999999  0.26231  0.75342  1.0000
  H   H57       1.0  0.9290399999999999  0.11968  0.74849  1.0000
  H   H58       1.0  0.60787  0.29444  0.9624300000000001  1.0000
  H   H59       1.0  0.6595700000000001  0.20296  0.9815999999999999  1.0000
  H   H60       1.0  0.6132499999999997  0.22221999999999992  0.89185  1.0000
  H   H61       1.0  0.50679  0.91246  0.9119800000000001  1.0000
  H   H62       1.0  0.38155  0.73032  0.75485  1.0000
  H   H63       1.0  0.52631  0.7261299999999998  0.75848  1.0000
  H   H64       1.0  0.33289  0.010549999999999995  0.9915800000000001  1.0000
  H   H65       1.0  0.42328  0.012579999999999997  0.93488  1.0000
  H   H66       1.0  0.41061000000000003  0.9401999999999999  0.01302  1.0000
  H   H67       1.0  0.12665  0.89056  0.71675  1.0000
  H   H68       1.0  0.26229  0.75344  0.9343299999999999  1.0000
  H   H69       1.0  0.11966  0.74852  0.9290500000000002  1.0000
  H   H70       1.0  0.29445  0.96248  0.6078  1.0000
  H   H71       1.0  0.20299999999999996  0.9816499999999999  0.65952  1.0000
  H   H72       1.0  0.22219000000000003  0.8919099999999998  0.61322  1.0000
  C   C1        1.0  0.18129999999999996  0.16534999999999994  0.38921  1.0000
  C   C2        1.0  0.1807  0.16472999999999993  0.47548999999999997  1.0000
  C   C3        1.0  0.12704  0.1218  0.52159  1.0000
  C   C4        1.0  0.12461  0.12419999999999995  0.6022900000000001  1.0000
  C   C5        1.0  0.17638  0.16925999999999994  0.63773  1.0000
  C   C6        1.0  0.22983  0.21092999999999992  0.59067  1.0000
  C   C7        1.0  0.23248  0.20906999999999995  0.51018  1.0000
  C   C8        1.0  0.02495  0.03338  0.61845  1.0000
  C   C9        1.0  0.18391  0.18203999999999995  0.9703  1.0000
  C   C10       1.0  0.18113000000000004  0.17824  0.88472  1.0000
  C   C11       1.0  0.13917999999999997  0.2366  0.84219  1.0000
  C   C12       1.0  0.1365  0.23356  0.76187  1.0000
  C   C13       1.0  0.17576  0.17148999999999998  0.72346  1.0000
  C   C14       1.0  0.21641999999999997  0.11356999999999996  0.7671500000000001  1.0000
  C   C15       1.0  0.21962999999999996  0.11632999999999999  0.8471900000000001  1.0000
  C   C16       1.0  0.06354999999999998  0.3555799999999999  0.75203  1.0000
  C   C17       1.0  0.16536  0.38920999999999994  0.18124  1.0000
  C   C18       1.0  0.16472  0.47549  0.18063  1.0000
  C   C19       1.0  0.12177  0.52161  0.12699  1.0000
  C   C20       1.0  0.12416  0.60231  0.12461999999999998  1.0000
  C   C21       1.0  0.16919  0.63773  0.17642  1.0000
  C   C22       1.0  0.21085999999999994  0.5906499999999999  0.22986  1.0000
  C   C23       1.0  0.20903  0.5101599999999998  0.23244000000000004  1.0000
  C   C24       1.0  0.03336  0.61849  0.02494  1.0000
  C   C25       1.0  0.18205999999999994  0.9703  0.18389  1.0000
  C   C26       1.0  0.17821  0.8847099999999998  0.18116  1.0000
  C   C27       1.0  0.23657000000000003  0.8422  0.13922  1.0000
  C   C28       1.0  0.23348999999999998  0.76188  0.13654  1.0000
  C   C29       1.0  0.17144  0.72345  0.17582  1.0000
  C   C30       1.0  0.11352  0.7671299999999999  0.21649  1.0000
  C   C31       1.0  0.11631000000000004  0.8471699999999998  0.21967  1.0000
  C   C32       1.0  0.35552  0.75206  0.06358  1.0000
  C   C33       1.0  0.38922  0.1813  0.16534  1.0000
  C   C34       1.0  0.4754999999999999  0.18073  0.16473  1.0000
  C   C35       1.0  0.52158  0.12708  0.12177999999999999  1.0000
  C   C36       1.0  0.60229  0.12466  0.12418  1.0000
  C   C37       1.0  0.63773  0.17643  0.16923  1.0000
  C   C38       1.0  0.59068  0.22985999999999998  0.2109  1.0000
  C   C39       1.0  0.51019  0.23247999999999996  0.20906  1.0000
  C   C40       1.0  0.61842  0.025009999999999998  0.03339  1.0000
  C   C41       1.0  0.97031  0.1839  0.18206  1.0000
  C   C42       1.0  0.8847199999999998  0.18114  0.17823  1.0000
  C   C43       1.0  0.84219  0.1392  0.2366  1.0000
  C   C44       1.0  0.76187  0.13653  0.23354000000000003  1.0000
  C   C45       1.0  0.72345  0.17581999999999995  0.17147  1.0000
  C   C46       1.0  0.76714  0.21647999999999995  0.11353  1.0000
  C   C47       1.0  0.84719  0.21965  0.11631000000000001  1.0000
  C   C48       1.0  0.75205  0.06354  0.35557  1.0000
  C   C49       1.0  0.8187  0.83465  0.61079  1.0000
  C   C50       1.0  0.81929  0.83527  0.5245  1.0000
  C   C51       1.0  0.8729600000000001  0.87821  0.47841  1.0000
  C   C52       1.0  0.8753900000000001  0.8757999999999998  0.39771  1.0000
  C   C53       1.0  0.82362  0.8307399999999998  0.36227  1.0000
  C   C54       1.0  0.7701600000000001  0.7890799999999998  0.40933000000000014  1.0000
  C   C55       1.0  0.76752  0.79093  0.48982  1.0000
  C   C56       1.0  0.97505  0.9666199999999999  0.38154  1.0000
  C   C57       1.0  0.8160899999999999  0.81796  0.029700000000000004  1.0000
  C   C58       1.0  0.81887  0.82176  0.11528  1.0000
  C   C59       1.0  0.8608199999999998  0.7633999999999997  0.15781  1.0000
  C   C60       1.0  0.8634999999999999  0.76645  0.23813  1.0000
  C   C61       1.0  0.82424  0.82851  0.27654  1.0000
  C   C62       1.0  0.78357  0.88644  0.23285000000000003  1.0000
  C   C63       1.0  0.78037  0.88367  0.15281000000000006  1.0000
  C   C64       1.0  0.9364500000000001  0.64443  0.24796999999999997  1.0000
  C   C65       1.0  0.83464  0.61079  0.81876  1.0000
  C   C66       1.0  0.8352799999999998  0.52451  0.81936  1.0000
  C   C67       1.0  0.8782299999999998  0.4783899999999999  0.87301  1.0000
  C   C68       1.0  0.87584  0.39769  0.87538  1.0000
  C   C69       1.0  0.8308099999999999  0.36228  0.82358  1.0000
  C   C70       1.0  0.78914  0.40935999999999984  0.77014  1.0000
  C   C71       1.0  0.7909699999999998  0.48984999999999995  0.76755  1.0000
  C   C72       1.0  0.9666399999999999  0.38152  0.97506  1.0000
  C   C73       1.0  0.8179399999999999  0.029699999999999997  0.81611  1.0000
  C   C74       1.0  0.82179  0.11529000000000002  0.81884  1.0000
  C   C75       1.0  0.76343  0.15779999999999997  0.86078  1.0000
  C   C76       1.0  0.7665  0.23811999999999997  0.8634600000000002  1.0000
  C   C77       1.0  0.82856  0.27655  0.82418  1.0000
  C   C78       1.0  0.88648  0.23287999999999998  0.78351  1.0000
  C   C79       1.0  0.8836899999999996  0.15283000000000002  0.78033  1.0000
  C   C80       1.0  0.64448  0.24794  0.93642  1.0000
  C   C81       1.0  0.61078  0.8187  0.83466  1.0000
  C   C82       1.0  0.5245  0.8192799999999998  0.83527  1.0000
  C   C83       1.0  0.47841999999999996  0.87292  0.8782200000000001  1.0000
  C   C84       1.0  0.39771  0.87534  0.87581  1.0000
  C   C85       1.0  0.3622699999999999  0.82357  0.83077  1.0000
  C   C86       1.0  0.40932  0.77014  0.78909  1.0000
  C   C87       1.0  0.48980999999999997  0.7675199999999998  0.7909300000000002  1.0000
  C   C88       1.0  0.38158000000000003  0.9749899999999999  0.96661  1.0000
  C   C89       1.0  0.029689999999999998  0.8161099999999998  0.8179400000000002  1.0000
  C   C90       1.0  0.11528000000000001  0.8188599999999998  0.8217700000000002  1.0000
  C   C91       1.0  0.15779999999999997  0.86081  0.7634  1.0000
  C   C92       1.0  0.23812999999999998  0.8634699999999997  0.76646  1.0000
  C   C93       1.0  0.27655  0.8241799999999998  0.82853  1.0000
  C   C94       1.0  0.23286  0.7835199999999998  0.88647  1.0000
  C   C95       1.0  0.15281  0.78035  0.88369  1.0000
  C   C96       1.0  0.24795  0.93646  0.64443  1.0000
  O   O1        1.0  0.23078  0.20719  0.35141  1.0000
  O   O2        1.0  0.13229  0.12488999999999999  0.35966  1.0000
  O   O3        1.0  0.07405  0.0847  0.65204  1.0000
  O   O4        1.0  0.14043  0.23443  0.00333  1.0000
  O   O5        1.0  0.23026  0.13232  0.00431  1.0000
  O   O6        1.0  0.09757999999999999  0.2882299999999999  0.7155200000000002  1.0000
  O   O7        1.0  0.20723000000000003  0.3514199999999999  0.23072  1.0000
  O   O8        1.0  0.12486  0.35965  0.13229  1.0000
  O   O9        1.0  0.08466000000000001  0.6520699999999999  0.07406  1.0000
  O   O10       1.0  0.23443  0.0033399999999999992  0.14045  1.0000
  O   O11       1.0  0.13232  0.004299999999999997  0.23027000000000006  1.0000
  O   O12       1.0  0.28813  0.7155599999999998  0.09758  1.0000
  O   O13       1.0  0.35142  0.23078  0.2072  1.0000
  O   O14       1.0  0.35966  0.13233  0.12488999999999999  1.0000
  O   O15       1.0  0.65203  0.07409999999999997  0.0847  1.0000
  O   O16       1.0  0.0033600000000000014  0.14041999999999996  0.23445  1.0000
  O   O17       1.0  0.004310000000000002  0.23026999999999997  0.13233  1.0000
  O   O18       1.0  0.71553  0.09758  0.2882  1.0000
  O   O19       1.0  0.17958  0.17959  0.17959  1.0000
  O   O20       1.0  0.76922  0.79282  0.64859  1.0000
  O   O21       1.0  0.8677100000000001  0.8751099999999998  0.64033  1.0000
  O   O22       1.0  0.9259499999999999  0.9153  0.34796  1.0000
  O   O23       1.0  0.85956  0.7655699999999998  0.9966700000000001  1.0000
  O   O24       1.0  0.76974  0.8676799999999998  0.9956900000000001  1.0000
  O   O25       1.0  0.90242  0.7117699999999998  0.28448  1.0000
  O   O26       1.0  0.79277  0.64858  0.76928  1.0000
  O   O27       1.0  0.87514  0.6403599999999998  0.8677  1.0000
  O   O28       1.0  0.91534  0.34793  0.9259400000000001  1.0000
  O   O29       1.0  0.7655700000000001  0.9966599999999999  0.85955  1.0000
  O   O30       1.0  0.8676799999999999  0.9957  0.76973  1.0000
  O   O31       1.0  0.71187  0.28445  0.9024200000000001  1.0000
  O   O32       1.0  0.64857  0.76922  0.7928  1.0000
  O   O33       1.0  0.64034  0.8676699999999998  0.87511  1.0000
  O   O34       1.0  0.34797  0.9258999999999996  0.9153  1.0000
  O   O35       1.0  0.9966399999999999  0.8595799999999998  0.76555  1.0000
  O   O36       1.0  0.9956900000000001  0.76973  0.8676700000000003  1.0000
  O   O37       1.0  0.28446  0.9024200000000001  0.7118  1.0000
  O   O38       1.0  0.82042  0.82041  0.8204100000000001  1.0000
