data_image0
_chemical_formula_structural       Tb4Cu6H60C48N12O48
_chemical_formula_sum              "Tb4 Cu6 H60 C48 N12 O48"
_cell_length_a       13.41817
_cell_length_b       13.40847
_cell_length_c       14.45616
_cell_angle_alpha    90.02985
_cell_angle_beta     90.03035000000001
_cell_angle_gamma    120.10412999999998

_space_group_name_H-M_alt    "P 1"
_space_group_IT_number       1

loop_
  _space_group_symop_operation_xyz
  'x, y, z'

loop_
  _atom_site_type_symbol
  _atom_site_label
  _atom_site_symmetry_multiplicity
  _atom_site_fract_x
  _atom_site_fract_y
  _atom_site_fract_z
  _atom_site_occupancy
  Tb  Tb1       1.0  0.66667  0.33326  0.83116  1.0000
  Tb  Tb2       1.0  0.33290000000000003  0.66676  0.6685800000000001  1.0000
  Tb  Tb3       1.0  0.3332899999999999  0.6666799999999999  0.16884  1.0000
  Tb  Tb4       1.0  0.6676200000000001  0.33358  0.3318  1.0000
  Cu  Cu1       1.0  0.4999  7e-05  0.00026  1.0000
  Cu  Cu2       1.0  0.00014999999999998188  0.50013  0.99982  1.0000
  Cu  Cu3       1.0  0.5000400000000002  0.50001  6.0000000000000015e-05  1.0000
  Cu  Cu4       1.0  1.9999999999968902e-05  0.49993999999999994  0.50019  1.0000
  Cu  Cu5       1.0  0.4995899999999999  0.9997599999999999  0.49986  1.0000
  Cu  Cu6       1.0  0.4999300000000001  0.50016  0.50009  1.0000
  H   H1        1.0  0.03636000000000001  0.35884999999999995  0.58373  1.0000
  H   H2        1.0  0.91565  0.31161  0.70542  1.0000
  H   H3        1.0  0.79609  0.25945  0.6319300000000002  1.0000
  H   H4        1.0  0.86199  0.16751  0.52621  1.0000
  H   H5        1.0  0.9710000000000002  0.25865  0.44645  1.0000
  H   H6        1.0  0.6425600000000001  0.67863  0.58365  1.0000
  H   H7        1.0  0.68792  0.60356  0.70546  1.0000
  H   H8        1.0  0.74088  0.53715  0.63198  1.0000
  H   H9        1.0  0.8323300000000001  0.69284  0.5251  1.0000
  H   H10       1.0  0.7416  0.71222  0.4460400000000001  1.0000
  H   H11       1.0  0.32236000000000004  0.9633499999999999  0.58334  1.0000
  H   H12       1.0  0.3957900000000001  0.08424  0.70493  1.0000
  H   H13       1.0  0.4642500000000001  0.20388  0.63168  1.0000
  H   H14       1.0  0.30536000000000013  0.13744  0.52619  1.0000
  H   H15       1.0  0.2871000000000001  0.02834  0.4462500000000001  1.0000
  H   H16       1.0  0.35882  0.03635  0.91691  1.0000
  H   H17       1.0  0.31140000000000007  0.91597  0.7951  1.0000
  H   H18       1.0  0.25964  0.79608  0.8681100000000003  1.0000
  H   H19       1.0  0.16762  0.86185  0.97408  1.0000
  H   H20       1.0  0.25866  0.97103  0.05398  1.0000
  H   H21       1.0  0.67738  0.64183  0.9165  1.0000
  H   H22       1.0  0.6027500000000001  0.68755  0.79478  1.0000
  H   H23       1.0  0.53658  0.7408899999999999  0.86813  1.0000
  H   H24       1.0  0.6943000000000003  0.83277  0.97416  1.0000
  H   H25       1.0  0.7123200000000001  0.7416799999999999  0.05384  1.0000
  H   H26       1.0  0.9635400000000004  0.32245  0.9164  1.0000
  H   H27       1.0  0.08424999999999995  0.3961899999999999  0.7947500000000002  1.0000
  H   H28       1.0  0.20385  0.46389  0.86817  1.0000
  H   H29       1.0  0.13751  0.30545  0.97355  1.0000
  H   H30       1.0  0.028629999999999996  0.28727  0.05339  1.0000
  H   H31       1.0  0.9633000000000003  0.64068  0.41649  1.0000
  H   H32       1.0  0.08429000000000005  0.68815  0.29465  1.0000
  H   H33       1.0  0.2037  0.74036  0.36833  1.0000
  H   H34       1.0  0.13801000000000005  0.83228  0.47384  1.0000
  H   H35       1.0  0.02892999999999991  0.7414899999999999  0.5536  1.0000
  H   H36       1.0  0.35808  0.32212  0.41675  1.0000
  H   H37       1.0  0.31199  0.39621  0.29491  1.0000
  H   H38       1.0  0.2589600000000001  0.46285  0.3682  1.0000
  H   H39       1.0  0.16737000000000005  0.30564  0.47424  1.0000
  H   H40       1.0  0.25819000000000003  0.28724  0.5539  1.0000
  H   H41       1.0  0.67697  0.0364  0.4163800000000001  1.0000
  H   H42       1.0  0.60338  0.91561  0.29473  1.0000
  H   H43       1.0  0.53556  0.7959599999999999  0.36803  1.0000
  H   H44       1.0  0.69405  0.86232  0.47351  1.0000
  H   H45       1.0  0.71268  0.9717699999999999  0.55331  1.0000
  H   H46       1.0  0.64082  0.9636599999999999  0.08365  1.0000
  H   H47       1.0  0.6883  0.08427999999999998  0.20551000000000005  1.0000
  H   H48       1.0  0.7398100000000002  0.20394999999999994  0.13239  1.0000
  H   H49       1.0  0.8320400000000001  0.13828  0.026600000000000002  1.0000
  H   H50       1.0  0.7410600000000002  0.02891  0.94678  1.0000
  H   H51       1.0  0.32258  0.3582  0.08338000000000002  1.0000
  H   H52       1.0  0.39693000000000006  0.31216  0.20512  1.0000
  H   H53       1.0  0.4633500000000001  0.25903  0.13171  1.0000
  H   H54       1.0  0.30569  0.1672  0.02579  1.0000
  H   H55       1.0  0.2875  0.2582  0.94608  1.0000
  H   H56       1.0  0.036119999999999965  0.67724  0.08382  1.0000
  H   H57       1.0  0.9154500000000001  0.60271  0.20530000000000007  1.0000
  H   H58       1.0  0.7957500000000002  0.53574  0.1319  1.0000
  H   H59       1.0  0.8623600000000001  0.6944599999999997  0.02648  1.0000
  H   H60       1.0  0.9713300000000002  0.71263  0.94673  1.0000
  C   C1        1.0  0.87411  0.43885  0.66151  1.0000
  C   C2        1.0  0.88372  0.33229  0.64249  1.0000
  C   C3        1.0  0.8153900000000002  0.26226  0.43213  1.0000
  C   C4        1.0  0.9036400000000001  0.25284  0.4930400000000001  1.0000
  C   C5        1.0  0.56164  0.43458  0.6602500000000002  1.0000
  C   C6        1.0  0.66787  0.55146  0.6422  1.0000
  C   C7        1.0  0.73496  0.55126  0.43185  1.0000
  C   C8        1.0  0.7467  0.65014  0.49249  1.0000
  C   C9        1.0  0.5647  0.12552  0.6614700000000002  1.0000
  C   C10       1.0  0.4487400000000001  0.11608  0.64219  1.0000
  C   C11       1.0  0.44632  0.18419  0.43179  1.0000
  C   C12       1.0  0.34889000000000003  0.09583  0.49287  1.0000
  C   C13       1.0  0.4388200000000001  0.87433  0.8386100000000001  1.0000
  C   C14       1.0  0.33229000000000003  0.88383  0.85778  1.0000
  C   C15       1.0  0.26219999999999993  0.8152199999999998  0.06819  1.0000
  C   C16       1.0  0.25288  0.90359  0.007360000000000002  1.0000
  C   C17       1.0  0.43387  0.56136  0.83976  1.0000
  C   C18       1.0  0.55066  0.66769  0.85792  1.0000
  C   C19       1.0  0.55293  0.73776  0.0682  1.0000
  C   C20       1.0  0.65064  0.7474  0.00728  1.0000
  C   C21       1.0  0.12621  0.56522  0.83868  1.0000
  C   C22       1.0  0.11630000000000001  0.44893  0.85769  1.0000
  C   C23       1.0  0.18464999999999998  0.44681  0.06799  1.0000
  C   C24       1.0  0.09611000000000004  0.34912  0.00693  1.0000
  C   C25       1.0  0.12585  0.56103  0.33866  1.0000
  C   C26       1.0  0.11610999999999998  0.6674899999999999  0.35764  1.0000
  C   C27       1.0  0.18443000000000012  0.73766  0.5679800000000002  1.0000
  C   C28       1.0  0.09615000000000007  0.74699  0.50703  1.0000
  C   C29       1.0  0.43807000000000007  0.56535  0.33974  1.0000
  C   C30       1.0  0.33197999999999994  0.44853999999999994  0.35806  1.0000
  C   C31       1.0  0.26236  0.44711  0.56827  1.0000
  C   C32       1.0  0.25268  0.34912  0.50746  1.0000
  C   C33       1.0  0.4343100000000001  0.87346  0.33861  1.0000
  C   C34       1.0  0.55066  0.88364  0.35759  1.0000
  C   C35       1.0  0.5535400000000001  0.81586  0.56817  1.0000
  C   C36       1.0  0.65072  0.90411  0.50687  1.0000
  C   C37       1.0  0.56089  0.1259  0.16178  1.0000
  C   C38       1.0  0.66727  0.11617999999999999  0.14276  1.0000
  C   C39       1.0  0.7375900000000001  0.18461  0.93211  1.0000
  C   C40       1.0  0.7468  0.09642999999999999  0.99328  1.0000
  C   C41       1.0  0.56591  0.4384799999999999  0.16034  1.0000
  C   C42       1.0  0.4491600000000001  0.33215  0.14202  1.0000
  C   C43       1.0  0.44703000000000004  0.26224  0.9317300000000002  1.0000
  C   C44       1.0  0.34927000000000014  0.25258  0.9926300000000001  1.0000
  C   C45       1.0  0.87282  0.43365999999999993  0.16033  1.0000
  C   C46       1.0  0.8831900000000001  0.55035  0.14216000000000006  1.0000
  C   C47       1.0  0.8153700000000002  0.5532  0.93197  1.0000
  C   C48       1.0  0.90377  0.65078  0.99313  1.0000
  N   N1        1.0  0.9573400000000002  0.3467  0.56153  1.0000
  N   N2        1.0  0.65371  0.61114  0.56146  1.0000
  N   N3        1.0  0.38934  0.04241999999999999  0.5611400000000001  1.0000
  N   N4        1.0  0.3466600000000001  0.9572599999999999  0.93897  1.0000
  N   N5        1.0  0.61035  0.65357  0.93873  1.0000
  N   N6        1.0  0.04265000000000002  0.38954  0.9386100000000003  1.0000
  N   N7        1.0  0.04237  0.65303  0.43857000000000007  1.0000
  N   N8        1.0  0.34632  0.3892399999999999  0.43896  1.0000
  N   N9        1.0  0.61004  0.95733  0.4386  1.0000
  N   N10       1.0  0.6529600000000001  0.04276  0.06161  1.0000
  N   N11       1.0  0.38958  0.3463899999999999  0.06119  1.0000
  N   N12       1.0  0.95709  0.61021  0.06143  1.0000
  O   O1        1.0  0.8172100000000002  0.4385  0.73134  1.0000
  O   O2        1.0  0.9227500000000002  0.5248  0.60653  1.0000
  O   O3        1.0  0.8091400000000002  0.35433  0.43984  1.0000
  O   O4        1.0  0.7543300000000002  0.18218  0.3761700000000001  1.0000
  O   O5        1.0  0.56325  0.37608  0.72821  1.0000
  O   O6        1.0  0.47475  0.39834  0.60647  1.0000
  O   O7        1.0  0.64171  0.45398  0.43954  1.0000
  O   O8        1.0  0.8145800000000001  0.56805  0.3761900000000001  1.0000
  O   O9        1.0  0.62128  0.18228  0.73152  1.0000
  O   O10       1.0  0.60204  0.07714  0.60636  1.0000
  O   O11       1.0  0.5450500000000001  0.19150999999999999  0.43966  1.0000
  O   O12       1.0  0.42594  0.24397999999999995  0.37578  1.0000
  O   O13       1.0  0.43854  0.8176099999999998  0.76852  1.0000
  O   O14       1.0  0.52471  0.9228299999999999  0.89369  1.0000
  O   O15       1.0  0.35392  0.8086299999999997  0.06032  1.0000
  O   O16       1.0  0.18213  0.75439  0.12412000000000002  1.0000
  O   O17       1.0  0.3751900000000001  0.56253  0.7716700000000002  1.0000
  O   O18       1.0  0.39790000000000003  0.47461999999999993  0.89364  1.0000
  O   O19       1.0  0.45442  0.64583  0.06037  1.0000
  O   O20       1.0  0.5724500000000002  0.81781  0.1243  1.0000
  O   O21       1.0  0.18347999999999992  0.6220799999999999  0.76899  1.0000
  O   O22       1.0  0.07729999999999994  0.6023399999999999  0.89342  1.0000
  O   O23       1.0  0.19155  0.54536  0.06023  1.0000
  O   O24       1.0  0.24517000000000003  0.42728999999999995  0.124  1.0000
  O   O25       1.0  0.18302000000000002  0.5616  0.26892  1.0000
  O   O26       1.0  0.07691999999999997  0.4749599999999999  0.39348  1.0000
  O   O27       1.0  0.19099000000000008  0.64582  0.56013  1.0000
  O   O28       1.0  0.24522  0.81775  0.6240200000000002  1.0000
  O   O29       1.0  0.43634000000000017  0.62315  0.27132  1.0000
  O   O30       1.0  0.5249300000000001  0.60212  0.39364  1.0000
  O   O31       1.0  0.35416000000000003  0.54566  0.56031  1.0000
  O   O32       1.0  0.18239000000000002  0.42804999999999993  0.62422  1.0000
  O   O33       1.0  0.37828000000000006  0.81715  0.26827  1.0000
  O   O34       1.0  0.3958700000000001  0.92043  0.39409  1.0000
  O   O35       1.0  0.45473  0.8082999999999998  0.56043  1.0000
  O   O36       1.0  0.57425  0.7563499999999999  0.62428  1.0000
  O   O37       1.0  0.5611600000000001  0.18255  0.23185  1.0000
  O   O38       1.0  0.4752300000000001  0.07784999999999999  0.10638  1.0000
  O   O39       1.0  0.6459900000000001  0.19142999999999996  0.93976  1.0000
  O   O40       1.0  0.8176600000000003  0.24490999999999996  0.8760200000000002  1.0000
  O   O41       1.0  0.6243300000000002  0.43718  0.2285  1.0000
  O   O42       1.0  0.60207  0.52531  0.10645  1.0000
  O   O43       1.0  0.5456000000000002  0.35415  0.93956  1.0000
  O   O44       1.0  0.42752  0.18212  0.87572  1.0000
  O   O45       1.0  0.8134100000000001  0.37484999999999996  0.22857  1.0000
  O   O46       1.0  0.9233000000000001  0.39782  0.10617  1.0000
  O   O47       1.0  0.8085100000000002  0.45464999999999994  0.9396900000000002  1.0000
  O   O48       1.0  0.7549500000000002  0.57281  0.8759300000000002  1.0000
