data_image0
_chemical_formula_structural       Cd4H56C112N16O32
_chemical_formula_sum              "Cd4 H56 C112 N16 O32"
_cell_length_a       8.52284
_cell_length_b       18.9355
_cell_length_c       22.39698
_cell_angle_alpha    90.00003000000001
_cell_angle_beta     89.99955
_cell_angle_gamma    94.28427

_space_group_name_H-M_alt    "P 1"
_space_group_IT_number       1

loop_
  _space_group_symop_operation_xyz
  'x, y, z'

loop_
  _atom_site_type_symbol
  _atom_site_label
  _atom_site_symmetry_multiplicity
  _atom_site_fract_x
  _atom_site_fract_y
  _atom_site_fract_z
  _atom_site_occupancy
  Cd  Cd1       1.0  0.68664  0.01209  0.4429999999999999  1.0000
  Cd  Cd2       1.0  0.31336  0.4879  0.9429899999999998  1.0000
  Cd  Cd3       1.0  0.31335  0.9879100000000001  0.557  1.0000
  Cd  Cd4       1.0  0.68664  0.51209  0.057009999999999984  1.0000
  H   H1        1.0  0.04765  0.16372  0.45514999999999994  1.0000
  H   H2        1.0  0.9858800000000001  0.25568  0.37866  1.0000
  H   H3        1.0  0.49971999999999994  0.14082  0.3735499999999999  1.0000
  H   H4        1.0  0.41428  0.51223  0.15711  1.0000
  H   H5        1.0  0.29623  0.4348  0.23867  1.0000
  H   H6        1.0  0.55964  0.26645  0.1689  1.0000
  H   H7        1.0  0.66761  0.35083  0.09184  1.0000
  H   H8        1.0  0.13336  0.02268  0.30914  1.0000
  H   H9        1.0  0.30691  0.07009  0.22343  1.0000
  H   H10       1.0  0.78655  0.16855  0.2674  1.0000
  H   H11       1.0  0.33128  0.32252  0.95609  1.0000
  H   H12       1.0  0.26423  0.22267  0.02691  1.0000
  H   H13       1.0  0.03002000000000002  0.37101  0.13661  1.0000
  H   H14       1.0  0.10345999999999998  0.46332999999999996  0.06155999999999999  1.0000
  H   H15       1.0  0.9523400000000001  0.33627  0.95515  1.0000
  H   H16       1.0  0.01411  0.24432  0.87866  1.0000
  H   H17       1.0  0.50027  0.35916999999999993  0.87355  1.0000
  H   H18       1.0  0.58571  0.98777  0.65711  1.0000
  H   H19       1.0  0.70376  0.06519  0.7386699999999999  1.0000
  H   H20       1.0  0.44035  0.23355  0.6689  1.0000
  H   H21       1.0  0.33239  0.14917  0.59185  1.0000
  H   H22       1.0  0.86662  0.47731999999999997  0.80914  1.0000
  H   H23       1.0  0.69308  0.42990999999999996  0.72343  1.0000
  H   H24       1.0  0.21344  0.33145  0.7673899999999999  1.0000
  H   H25       1.0  0.66872  0.17746999999999996  0.4560899999999999  1.0000
  H   H26       1.0  0.73577  0.27733  0.52691  1.0000
  H   H27       1.0  0.9699800000000001  0.12899  0.63661  1.0000
  H   H28       1.0  0.89654  0.036669999999999994  0.56156  1.0000
  H   H29       1.0  0.9523400000000001  0.83627  0.54485  1.0000
  H   H30       1.0  0.014110000000000006  0.74432  0.62134  1.0000
  H   H31       1.0  0.50027  0.85917  0.62645  1.0000
  H   H32       1.0  0.58572  0.48777000000000004  0.84289  1.0000
  H   H33       1.0  0.70377  0.56519  0.76133  1.0000
  H   H34       1.0  0.44035  0.73355  0.8310999999999998  1.0000
  H   H35       1.0  0.33239  0.64917  0.9081499999999998  1.0000
  H   H36       1.0  0.86663  0.9773099999999999  0.69086  1.0000
  H   H37       1.0  0.69308  0.9299099999999999  0.7765699999999999  1.0000
  H   H38       1.0  0.21344  0.83145  0.7326  1.0000
  H   H39       1.0  0.66872  0.67747  0.04391  1.0000
  H   H40       1.0  0.73576  0.77733  0.97309  1.0000
  H   H41       1.0  0.9699800000000001  0.62898  0.86339  1.0000
  H   H42       1.0  0.89653  0.53667  0.9384399999999998  1.0000
  H   H43       1.0  0.047659999999999994  0.66372  0.044849999999999994  1.0000
  H   H44       1.0  0.9858800000000001  0.75568  0.12134  1.0000
  H   H45       1.0  0.49971999999999994  0.64082  0.12644999999999998  1.0000
  H   H46       1.0  0.41429  0.01223  0.34289  1.0000
  H   H47       1.0  0.29623  0.9348099999999999  0.26132999999999995  1.0000
  H   H48       1.0  0.55964  0.76644  0.3311  1.0000
  H   H49       1.0  0.6676  0.85082  0.4081499999999999  1.0000
  H   H50       1.0  0.13337  0.52268  0.19086  1.0000
  H   H51       1.0  0.30691  0.57009  0.27657  1.0000
  H   H52       1.0  0.78656  0.66855  0.23260999999999998  1.0000
  H   H53       1.0  0.33127  0.82253  0.54391  1.0000
  H   H54       1.0  0.26423  0.72267  0.47309  1.0000
  H   H55       1.0  0.03000999999999998  0.87101  0.36338999999999994  1.0000
  H   H56       1.0  0.10345999999999998  0.9633299999999999  0.43844  1.0000
  C   C1        1.0  0.30302  0.0911  0.4647399999999999  1.0000
  C   C2        1.0  0.27463  0.14728  0.4192799999999999  1.0000
  C   C3        1.0  0.13179  0.18015  0.4204299999999999  1.0000
  C   C4        1.0  0.0976  0.23138  0.37822  1.0000
  C   C5        1.0  0.21209999999999998  0.24985999999999997  0.33549  1.0000
  C   C6        1.0  0.35477  0.21777999999999997  0.33486999999999995  1.0000
  C   C7        1.0  0.38893  0.16598  0.37571  1.0000
  C   C8        1.0  0.4543  0.24843  0.28605  1.0000
  C   C9        1.0  0.2128  0.30178999999999995  0.28576  1.0000
  C   C10       1.0  0.44237  0.45733  0.16151  1.0000
  C   C11       1.0  0.37741  0.4144  0.20682  1.0000
  C   C12       1.0  0.41957  0.34424999999999994  0.21049999999999996  1.0000
  C   C13       1.0  0.52315  0.32001  0.16799999999999998  1.0000
  C   C14       1.0  0.58332  0.36711  0.12461999999999998  1.0000
  C   C15       1.0  0.85873  0.0645  0.34552  1.0000
  C   C16       1.0  0.9530599999999999  0.09241  0.29251  1.0000
  C   C17       1.0  0.09809000000000001  0.06467  0.28004  1.0000
  C   C18       1.0  0.19346  0.09055  0.23286999999999997  1.0000
  C   C19       1.0  0.13848  0.14471  0.19851  1.0000
  C   C20       1.0  0.9931999999999999  0.17192  0.21025  1.0000
  C   C21       1.0  0.89791  0.14666  0.2571  1.0000
  C   C22       1.0  0.21452  0.18348  0.14762  1.0000
  C   C23       1.0  0.96919  0.22938  0.16705  1.0000
  C   C24       1.0  0.26566  0.33072  0.99684  1.0000
  C   C25       1.0  0.22749  0.27522  0.036039999999999996  1.0000
  C   C26       1.0  0.14331  0.28919  0.08806  1.0000
  C   C27       1.0  0.09635  0.35767  0.09736  1.0000
  C   C28       1.0  0.13884999999999997  0.40976999999999997  0.05539  1.0000
  C   C29       1.0  0.69697  0.4089  0.9647399999999999  1.0000
  C   C30       1.0  0.72536  0.35272  0.91928  1.0000
  C   C31       1.0  0.8682  0.31985  0.9204299999999999  1.0000
  C   C32       1.0  0.9024  0.26862  0.8782199999999999  1.0000
  C   C33       1.0  0.78789  0.25013  0.83549  1.0000
  C   C34       1.0  0.64522  0.28221  0.8348699999999999  1.0000
  C   C35       1.0  0.6110700000000001  0.33402  0.87571  1.0000
  C   C36       1.0  0.5457  0.25156  0.7860499999999999  1.0000
  C   C37       1.0  0.78719  0.1982  0.78576  1.0000
  C   C38       1.0  0.55762  0.04267  0.66151  1.0000
  C   C39       1.0  0.62258  0.08559  0.7068199999999999  1.0000
  C   C40       1.0  0.58043  0.15574  0.7105  1.0000
  C   C41       1.0  0.47685  0.17999  0.668  1.0000
  C   C42       1.0  0.41668  0.13289  0.62462  1.0000
  C   C43       1.0  0.14126  0.43548999999999993  0.84552  1.0000
  C   C44       1.0  0.04692999999999997  0.40758999999999995  0.7925099999999999  1.0000
  C   C45       1.0  0.9018999999999999  0.43531999999999993  0.7800399999999998  1.0000
  C   C46       1.0  0.80653  0.40945  0.73287  1.0000
  C   C47       1.0  0.86152  0.35528  0.69851  1.0000
  C   C48       1.0  0.006790000000000001  0.32807  0.71025  1.0000
  C   C49       1.0  0.10208  0.35334  0.7571  1.0000
  C   C50       1.0  0.78548  0.31651999999999997  0.64762  1.0000
  C   C51       1.0  0.030810000000000004  0.27061  0.66705  1.0000
  C   C52       1.0  0.73433  0.16927  0.49683999999999995  1.0000
  C   C53       1.0  0.77251  0.22477000000000003  0.53603  1.0000
  C   C54       1.0  0.85669  0.2108  0.5880599999999999  1.0000
  C   C55       1.0  0.90364  0.14232  0.59736  1.0000
  C   C56       1.0  0.86115  0.09023  0.5554  1.0000
  C   C57       1.0  0.69697  0.9088999999999999  0.53526  1.0000
  C   C58       1.0  0.72536  0.85272  0.58072  1.0000
  C   C59       1.0  0.86821  0.8198499999999999  0.57957  1.0000
  C   C60       1.0  0.9024  0.76862  0.6217799999999999  1.0000
  C   C61       1.0  0.7879  0.75013  0.66451  1.0000
  C   C62       1.0  0.64522  0.78221  0.6651299999999999  1.0000
  C   C63       1.0  0.61107  0.83402  0.6242899999999999  1.0000
  C   C64       1.0  0.5457  0.75156  0.71395  1.0000
  C   C65       1.0  0.78719  0.6982  0.71424  1.0000
  C   C66       1.0  0.55762  0.54267  0.8384899999999998  1.0000
  C   C67       1.0  0.62258  0.58559  0.7931799999999999  1.0000
  C   C68       1.0  0.58043  0.65574  0.7894999999999999  1.0000
  C   C69       1.0  0.47684  0.67998  0.832  1.0000
  C   C70       1.0  0.41667000000000004  0.63289  0.87538  1.0000
  C   C71       1.0  0.14125999999999997  0.9354899999999999  0.65448  1.0000
  C   C72       1.0  0.04692999999999999  0.90759  0.7074899999999998  1.0000
  C   C73       1.0  0.9019  0.93532  0.71996  1.0000
  C   C74       1.0  0.80653  0.9094499999999999  0.7671299999999999  1.0000
  C   C75       1.0  0.86152  0.85528  0.80149  1.0000
  C   C76       1.0  0.006789999999999988  0.82807  0.78975  1.0000
  C   C77       1.0  0.10208  0.85334  0.7429  1.0000
  C   C78       1.0  0.78547  0.81652  0.85238  1.0000
  C   C79       1.0  0.030799999999999973  0.77061  0.83295  1.0000
  C   C80       1.0  0.73433  0.66927  0.00316  1.0000
  C   C81       1.0  0.77251  0.72477  0.96396  1.0000
  C   C82       1.0  0.8566799999999998  0.7108  0.9119399999999999  1.0000
  C   C83       1.0  0.90364  0.64232  0.90264  1.0000
  C   C84       1.0  0.8611400000000001  0.59023  0.94461  1.0000
  C   C85       1.0  0.30303  0.5911  0.03526  1.0000
  C   C86       1.0  0.27463  0.64728  0.08071999999999999  1.0000
  C   C87       1.0  0.13178999999999996  0.6801399999999999  0.07956999999999999  1.0000
  C   C88       1.0  0.09760000000000003  0.73138  0.12178  1.0000
  C   C89       1.0  0.2121  0.74986  0.16451  1.0000
  C   C90       1.0  0.35477  0.71778  0.16513  1.0000
  C   C91       1.0  0.38893  0.66598  0.12429  1.0000
  C   C92       1.0  0.4543  0.74843  0.21395  1.0000
  C   C93       1.0  0.21280000000000002  0.80179  0.21423  1.0000
  C   C94       1.0  0.44236999999999993  0.9573299999999999  0.33849  1.0000
  C   C95       1.0  0.3774199999999999  0.9143999999999999  0.29317999999999994  1.0000
  C   C96       1.0  0.41956  0.84425  0.2895  1.0000
  C   C97       1.0  0.52315  0.82001  0.332  1.0000
  C   C98       1.0  0.58332  0.8670999999999999  0.37537999999999994  1.0000
  C   C99       1.0  0.85873  0.5645  0.15448  1.0000
  C   C100      1.0  0.9530599999999999  0.59241  0.20748999999999995  1.0000
  C   C101      1.0  0.0981  0.56467  0.21995999999999996  1.0000
  C   C102      1.0  0.19346  0.59054  0.26713  1.0000
  C   C103      1.0  0.13848  0.64471  0.30149  1.0000
  C   C104      1.0  0.9931999999999999  0.67192  0.28975  1.0000
  C   C105      1.0  0.89792  0.64666  0.24289999999999995  1.0000
  C   C106      1.0  0.21452  0.68347  0.35238  1.0000
  C   C107      1.0  0.96919  0.72938  0.33295  1.0000
  C   C108      1.0  0.26566  0.83073  0.50316  1.0000
  C   C109      1.0  0.22748  0.77522  0.46397  1.0000
  C   C110      1.0  0.14331  0.78919  0.41194  1.0000
  C   C111      1.0  0.09634999999999998  0.8576699999999999  0.40264  1.0000
  C   C112      1.0  0.13885  0.90977  0.4446  1.0000
  N   N1        1.0  0.54446  0.43461  0.12108  1.0000
  N   N2        1.0  0.36276  0.29918  0.25724  1.0000
  N   N3        1.0  0.10944  0.23561999999999997  0.13094999999999998  1.0000
  N   N4        1.0  0.22388999999999998  0.39714999999999995  0.00635  1.0000
  N   N5        1.0  0.45553  0.06539  0.62107  1.0000
  N   N6        1.0  0.63723  0.20080999999999996  0.7572399999999999  1.0000
  N   N7        1.0  0.89055  0.26438  0.63095  1.0000
  N   N8        1.0  0.77611  0.10285  0.50635  1.0000
  N   N9        1.0  0.45552999999999993  0.56538  0.87892  1.0000
  N   N10       1.0  0.63723  0.7008099999999999  0.74276  1.0000
  N   N11       1.0  0.89055  0.76438  0.86905  1.0000
  N   N12       1.0  0.7761  0.60285  0.99365  1.0000
  N   N13       1.0  0.54446  0.9346099999999999  0.37893  1.0000
  N   N14       1.0  0.36276  0.79918  0.24275999999999995  1.0000
  N   N15       1.0  0.10944  0.73561  0.36905  1.0000
  N   N16       1.0  0.22389  0.89715  0.49365  1.0000
  O   O1        1.0  0.42658  0.05757999999999999  0.46062  1.0000
  O   O2        1.0  0.19975  0.07917999999999999  0.50546  1.0000
  O   O3        1.0  0.11018  0.33932  0.26981  1.0000
  O   O4        1.0  0.58789  0.23607999999999998  0.27243  1.0000
  O   O5        1.0  0.73107  0.09272  0.35766999999999993  1.0000
  O   O6        1.0  0.91223  0.01461  0.37572  1.0000
  O   O7        1.0  0.85675  0.26453  0.16036999999999998  1.0000
  O   O8        1.0  0.34136  0.17507  0.1242  1.0000
  O   O9        1.0  0.57341  0.44241  0.9606099999999999  1.0000
  O   O10       1.0  0.80024  0.42082  0.00546  1.0000
  O   O11       1.0  0.88981  0.16068  0.76981  1.0000
  O   O12       1.0  0.41211  0.26392  0.77243  1.0000
  O   O13       1.0  0.26892  0.40727  0.85767  1.0000
  O   O14       1.0  0.08777  0.48538  0.8757199999999998  1.0000
  O   O15       1.0  0.14324  0.23546999999999998  0.66037  1.0000
  O   O16       1.0  0.65864  0.32493  0.6242  1.0000
  O   O17       1.0  0.57342  0.94241  0.53938  1.0000
  O   O18       1.0  0.80025  0.92082  0.49454  1.0000
  O   O19       1.0  0.88981  0.66068  0.73019  1.0000
  O   O20       1.0  0.41211  0.76392  0.7275699999999999  1.0000
  O   O21       1.0  0.26892  0.9072700000000001  0.64232  1.0000
  O   O22       1.0  0.08776  0.98538  0.62428  1.0000
  O   O23       1.0  0.14324  0.73547  0.8396299999999999  1.0000
  O   O24       1.0  0.65864  0.82493  0.8758  1.0000
  O   O25       1.0  0.42658  0.55758  0.03939  1.0000
  O   O26       1.0  0.19976  0.57917  0.9945399999999999  1.0000
  O   O27       1.0  0.11017999999999997  0.83932  0.23019  1.0000
  O   O28       1.0  0.58789  0.73608  0.22756999999999997  1.0000
  O   O29       1.0  0.73107  0.59272  0.14233  1.0000
  O   O30       1.0  0.91223  0.51461  0.12427999999999999  1.0000
  O   O31       1.0  0.85675  0.76452  0.33963  1.0000
  O   O32       1.0  0.34136  0.67507  0.3758  1.0000
