data_image0
_chemical_formula_structural       Cu2H56C72N16Cl2O8
_chemical_formula_sum              "Cu2 H56 C72 N16 Cl2 O8"
_cell_length_a       4.59744
_cell_length_b       22.28155
_cell_length_c       22.277180000000005
_cell_angle_alpha    90.0018
_cell_angle_beta     89.9982
_cell_angle_gamma    90.00539000000002

_space_group_name_H-M_alt    "P 1"
_space_group_IT_number       1

loop_
  _space_group_symop_operation_xyz
  'x, y, z'

loop_
  _atom_site_type_symbol
  _atom_site_label
  _atom_site_symmetry_multiplicity
  _atom_site_fract_x
  _atom_site_fract_y
  _atom_site_fract_z
  _atom_site_occupancy
  Cu  Cu1       1.0  0.69814  8e-05  0.0  1.0000
  Cu  Cu2       1.0  0.6981699999999998  0.5001  0.49996  1.0000
  H   H1        1.0  0.3154  0.89111  0.00873  1.0000
  H   H2        1.0  0.23469  0.79148  0.9618  1.0000
  H   H3        1.0  0.57641  0.75795  0.87915  1.0000
  H   H4        1.0  0.0512  0.9233099999999999  0.90712  1.0000
  H   H5        1.0  0.01277  0.77589  0.8299699999999999  1.0000
  H   H6        1.0  0.7095  0.8841599999999998  0.75371  1.0000
  H   H7        1.0  0.3146  0.10904  0.9912999999999998  1.0000
  H   H8        1.0  0.23471  0.20861999999999997  0.03828  1.0000
  H   H9        1.0  0.57711  0.24213999999999994  0.12076  1.0000
  H   H10       1.0  0.05114  0.07673  0.0927  1.0000
  H   H11       1.0  0.00852  0.22379  0.17084  1.0000
  H   H12       1.0  0.71136  0.11605  0.24614999999999998  1.0000
  H   H13       1.0  0.31525  0.99122  0.89101  1.0000
  H   H14       1.0  0.23464999999999997  0.03819  0.79141  1.0000
  H   H15       1.0  0.57621  0.12091  0.7579599999999999  1.0000
  H   H16       1.0  0.05101  0.09283  0.9233  1.0000
  H   H17       1.0  0.01257  0.17005  0.7759299999999999  1.0000
  H   H18       1.0  0.70958  0.24623999999999996  0.88423  1.0000
  H   H19       1.0  0.31445  0.0087  0.10896  1.0000
  H   H20       1.0  0.23430999999999996  0.96188  0.20863000000000004  1.0000
  H   H21       1.0  0.57669  0.8794799999999999  0.24229  1.0000
  H   H22       1.0  0.05101  0.9073  0.07681  1.0000
  H   H23       1.0  0.00834  0.8292699999999998  0.22392  1.0000
  H   H24       1.0  0.7106  0.7541599999999999  0.11592  1.0000
  H   H25       1.0  0.3155  0.39108999999999994  0.49124999999999996  1.0000
  H   H26       1.0  0.23476  0.29151  0.53826  1.0000
  H   H27       1.0  0.57649  0.25801  0.62088  1.0000
  H   H28       1.0  0.05121  0.42336999999999997  0.59287  1.0000
  H   H29       1.0  0.01243  0.27601  0.67013  1.0000
  H   H30       1.0  0.70997  0.38416  0.74629  1.0000
  H   H31       1.0  0.31468  0.60901  0.50865  1.0000
  H   H32       1.0  0.23479000000000003  0.70862  0.46172  1.0000
  H   H33       1.0  0.57711  0.7421399999999999  0.37919  1.0000
  H   H34       1.0  0.05139  0.57677  0.40725  1.0000
  H   H35       1.0  0.00834  0.72379  0.32912  1.0000
  H   H36       1.0  0.7111  0.616  0.25371  1.0000
  H   H37       1.0  0.31506  0.49122  0.60899  1.0000
  H   H38       1.0  0.23460999999999999  0.53814  0.70861  1.0000
  H   H39       1.0  0.57634  0.6208  0.74212  1.0000
  H   H40       1.0  0.05099  0.59279  0.57672  1.0000
  H   H41       1.0  0.012  0.67014  0.72402  1.0000
  H   H42       1.0  0.70977  0.74618  0.61583  1.0000
  H   H43       1.0  0.31472  0.50867  0.39107  1.0000
  H   H44       1.0  0.23426  0.46181  0.29143  1.0000
  H   H45       1.0  0.57636  0.3793099999999999  0.25777  1.0000
  H   H46       1.0  0.05118  0.40718  0.42315  1.0000
  H   H47       1.0  0.00893  0.32927  0.27619  1.0000
  H   H48       1.0  0.71003  0.25399  0.38416  1.0000
  H   H49       1.0  0.03629  0.7507899999999998  0.74913  1.0000
  H   H50       1.0  0.9421599999999999  0.83642  0.66352  1.0000
  H   H51       1.0  0.03632  0.24899  0.25097  1.0000
  H   H52       1.0  0.94184  0.16342  0.33681  1.0000
  H   H53       1.0  0.03656  0.25083  0.7508199999999999  1.0000
  H   H54       1.0  0.94243  0.33642  0.8365000000000001  1.0000
  H   H55       1.0  0.036430000000000004  0.74897  0.24905  1.0000
  H   H56       1.0  0.9415499999999999  0.66349  0.16313  1.0000
  C   C1        1.0  0.46233  0.87436  0.97476  1.0000
  C   C2        1.0  0.41366  0.8194599999999999  0.9466799999999999  1.0000
  C   C3        1.0  0.60156  0.8013999999999999  0.90095  1.0000
  C   C4        1.0  0.83595  0.8385  0.88583  1.0000
  C   C5        1.0  0.8763399999999999  0.8928199999999998  0.9182499999999999  1.0000
  C   C6        1.0  0.20934  0.85449  0.80486  1.0000
  C   C7        1.0  0.36214  0.8202  0.7572999999999999  1.0000
  C   C8        1.0  0.61983  0.8435899999999997  0.73374  1.0000
  C   C9        1.0  0.46217  0.12574  0.02519  1.0000
  C   C10       1.0  0.4139  0.18064999999999998  0.05328  1.0000
  C   C11       1.0  0.60211  0.19869999999999993  0.09894  1.0000
  C   C12       1.0  0.83638  0.16155  0.11404  1.0000
  C   C13       1.0  0.8765600000000001  0.10725  0.08156  1.0000
  C   C14       1.0  0.21395  0.14559999999999998  0.19426  1.0000
  C   C15       1.0  0.36262  0.17962999999999998  0.24267  1.0000
  C   C16       1.0  0.62065  0.15641  0.26632  1.0000
  C   C17       1.0  0.46235  0.02518  0.8742699999999999  1.0000
  C   C18       1.0  0.4136  0.053299999999999986  0.8194  1.0000
  C   C19       1.0  0.60137  0.09907  0.80139  1.0000
  C   C20       1.0  0.83575  0.11418  0.83851  1.0000
  C   C21       1.0  0.8761999999999999  0.0817  0.8927999999999999  1.0000
  C   C22       1.0  0.20929  0.19511999999999996  0.85453  1.0000
  C   C23       1.0  0.36234  0.24266  0.82024  1.0000
  C   C24       1.0  0.62004  0.26621  0.84364  1.0000
  C   C25       1.0  0.46180999999999994  0.97482  0.12571  1.0000
  C   C26       1.0  0.41349  0.94683  0.18068  1.0000
  C   C27       1.0  0.60172  0.9012199999999999  0.19881  1.0000
  C   C28       1.0  0.83606  0.88608  0.16167  1.0000
  C   C29       1.0  0.8763499999999999  0.9184799999999999  0.10731  1.0000
  C   C30       1.0  0.21339  0.8058299999999999  0.14571  1.0000
  C   C31       1.0  0.36277  0.7575499999999998  0.17973  1.0000
  C   C32       1.0  0.62043  0.7339299999999999  0.15632  1.0000
  C   C33       1.0  0.4623999999999999  0.37438999999999995  0.52525  1.0000
  C   C34       1.0  0.41376  0.31949999999999995  0.55334  1.0000
  C   C35       1.0  0.60168  0.30146  0.59908  1.0000
  C   C36       1.0  0.83602  0.33857  0.61419  1.0000
  C   C37       1.0  0.8764199999999999  0.39288  0.58174  1.0000
  C   C38       1.0  0.21016  0.35453  0.69506  1.0000
  C   C39       1.0  0.36259  0.32023  0.74265  1.0000
  C   C40       1.0  0.6203  0.34358  0.76624  1.0000
  C   C41       1.0  0.46214  0.62575  0.47476  1.0000
  C   C42       1.0  0.41399  0.6806799999999998  0.44668  1.0000
  C   C43       1.0  0.60229  0.6987  0.4010099999999999  1.0000
  C   C44       1.0  0.83654  0.6615499999999999  0.3859  1.0000
  C   C45       1.0  0.87672  0.60727  0.41841  1.0000
  C   C46       1.0  0.21403  0.64563  0.30564  1.0000
  C   C47       1.0  0.36294  0.6797  0.2573  1.0000
  C   C48       1.0  0.62087  0.65647  0.23364  1.0000
  C   C49       1.0  0.4622200000000001  0.52516  0.62573  1.0000
  C   C50       1.0  0.41366  0.55324  0.68064  1.0000
  C   C51       1.0  0.60156  0.59899  0.69867  1.0000
  C   C52       1.0  0.83583  0.6141  0.66152  1.0000
  C   C53       1.0  0.8762300000000001  0.58163  0.60722  1.0000
  C   C54       1.0  0.21075  0.6948  0.64552  1.0000
  C   C55       1.0  0.36249  0.74256  0.67976  1.0000
  C   C56       1.0  0.62015  0.76617  0.6564  1.0000
  C   C57       1.0  0.46192000000000005  0.4747599999999999  0.37431  1.0000
  C   C58       1.0  0.41355  0.44674  0.31935  1.0000
  C   C59       1.0  0.60179  0.40109999999999996  0.30123  1.0000
  C   C60       1.0  0.83612  0.38598  0.33839  1.0000
  C   C61       1.0  0.87643  0.41843  0.39271  1.0000
  C   C62       1.0  0.21491  0.30592  0.35426  1.0000
  C   C63       1.0  0.3633  0.2575  0.32019  1.0000
  C   C64       1.0  0.62057  0.23379  0.34367  1.0000
  C   C65       1.0  0.23505  0.76937  0.7305499999999999  1.0000
  C   C66       1.0  0.7549  0.81545  0.68451  1.0000
  C   C67       1.0  0.23504  0.2304  0.26958  1.0000
  C   C68       1.0  0.75486  0.1844  0.31573  1.0000
  C   C69       1.0  0.23531  0.26942  0.7694  1.0000
  C   C70       1.0  0.7551  0.31545  0.81551  1.0000
  C   C71       1.0  0.23528  0.73048  0.23042  1.0000
  C   C72       1.0  0.75491  0.6845399999999999  0.18426  1.0000
  N   N1        1.0  0.6872  0.91027  0.96059  1.0000
  N   N2        1.0  0.03041  0.8197  0.84177  1.0000
  N   N3        1.0  0.68709  0.08983  0.03927  1.0000
  N   N4        1.0  0.03014  0.18028  0.15825  1.0000
  N   N5        1.0  0.68715  0.03934  0.9102  1.0000
  N   N6        1.0  0.03025  0.15823  0.81973  1.0000
  N   N7        1.0  0.6868  0.9607099999999998  0.08982  1.0000
  N   N8        1.0  0.02988  0.84189  0.18040999999999996  1.0000
  N   N9        1.0  0.68725  0.4103  0.53939  1.0000
  N   N10       1.0  0.03047  0.31979  0.65825  1.0000
  N   N11       1.0  0.68713  0.58986  0.46069  1.0000
  N   N12       1.0  0.030329999999999996  0.6802899999999998  0.3417  1.0000
  N   N13       1.0  0.68699  0.5393  0.5898  1.0000
  N   N14       1.0  0.03017  0.6581899999999999  0.68027  1.0000
  N   N15       1.0  0.68695  0.46068  0.41019  1.0000
  N   N16       1.0  0.03005  0.34179  0.31971  1.0000
  Cl  Cl1       1.0  0.19301  2.0000000000000005e-05  0.99996  1.0000
  Cl  Cl2       1.0  0.19307  0.50003  0.5  1.0000
  O   O1        1.0  0.23079999999999998  0.90948  0.80963  1.0000
  O   O2        1.0  0.24350000000000002  0.09092  0.18782  1.0000
  O   O3        1.0  0.23073  0.19030999999999998  0.9095099999999999  1.0000
  O   O4        1.0  0.24259999999999998  0.81215  0.09099  1.0000
  O   O5        1.0  0.23268  0.40948999999999997  0.69015  1.0000
  O   O6        1.0  0.24343  0.59094  0.3121  1.0000
  O   O7        1.0  0.23462999999999998  0.6894999999999999  0.59062  1.0000
  O   O8        1.0  0.24465  0.31229  0.40896  1.0000
