data_image0
_chemical_formula_structural       Eu2H48C88S8N8O24
_chemical_formula_sum              "Eu2 H48 C88 S8 N8 O24"
_cell_length_a       10.29741
_cell_length_b       15.44001
_cell_length_c       15.44001
_cell_angle_alpha    90.00637999999998
_cell_angle_beta     89.956
_cell_angle_gamma    90.04172999999999

_space_group_name_H-M_alt    "P 1"
_space_group_IT_number       1

loop_
  _space_group_symop_operation_xyz
  'x, y, z'

loop_
  _atom_site_type_symbol
  _atom_site_label
  _atom_site_symmetry_multiplicity
  _atom_site_fract_x
  _atom_site_fract_y
  _atom_site_fract_z
  _atom_site_occupancy
  Eu  Eu1       1.0  0.25005  0.5002300000000002  0.50022  1.0000
  Eu  Eu2       1.0  0.74994  0.49980000000000013  0.4998  1.0000
  H   H1        1.0  0.79068  0.41315  0.7369799999999997  1.0000
  H   H2        1.0  0.79055  0.27833000000000013  0.82541  1.0000
  H   H3        1.0  0.7905800000000001  0.5868000000000002  0.2630099999999999  1.0000
  H   H4        1.0  0.79063  0.72163  0.17463  1.0000
  H   H5        1.0  0.79083  0.26301  0.4133399999999999  1.0000
  H   H6        1.0  0.79068  0.17487  0.27833999999999987  1.0000
  H   H7        1.0  0.7905  0.7370100000000003  0.58687  1.0000
  H   H8        1.0  0.79056  0.82522  0.72183  1.0000
  H   H9        1.0  0.70951  0.58685  0.7369799999999997  1.0000
  H   H10       1.0  0.70933  0.7218200000000002  0.8251999999999998  1.0000
  H   H11       1.0  0.70917  0.4133600000000001  0.26305  1.0000
  H   H12       1.0  0.70922  0.27834  0.17489  1.0000
  H   H13       1.0  0.70934  0.73694  0.4131499999999999  1.0000
  H   H14       1.0  0.70935  0.8254100000000002  0.2783299999999999  1.0000
  H   H15       1.0  0.7094  0.26306  0.5867699999999998  1.0000
  H   H16       1.0  0.70926  0.17464  0.7216099999999998  1.0000
  H   H17       1.0  0.20929  0.58682  0.26298  1.0000
  H   H18       1.0  0.2094  0.7217800000000002  0.17478999999999995  1.0000
  H   H19       1.0  0.20938000000000004  0.4132  0.73702  1.0000
  H   H20       1.0  0.20933  0.2782400000000001  0.82518  1.0000
  H   H21       1.0  0.2092  0.7369500000000002  0.58669  1.0000
  H   H22       1.0  0.20934999999999998  0.8253300000000002  0.72155  1.0000
  H   H23       1.0  0.20954  0.2630200000000001  0.41312  1.0000
  H   H24       1.0  0.20947  0.17458000000000007  0.2783  1.0000
  H   H25       1.0  0.29045  0.4131400000000001  0.26305999999999996  1.0000
  H   H26       1.0  0.29062  0.2783100000000001  0.17459  1.0000
  H   H27       1.0  0.2908  0.58668  0.7369  1.0000
  H   H28       1.0  0.29073  0.7215300000000002  0.8253099999999998  1.0000
  H   H29       1.0  0.29068  0.26301  0.5868  1.0000
  H   H30       1.0  0.29068  0.17480000000000007  0.7217899999999998  1.0000
  H   H31       1.0  0.29063  0.73698  0.4132299999999999  1.0000
  H   H32       1.0  0.29077  0.8251600000000002  0.2782499999999999  1.0000
  H   H33       1.0  0.00011000000000000025  0.34301  0.9900699999999998  1.0000
  H   H34       1.0  0.9998800000000001  0.30438  0.16134999999999994  1.0000
  H   H35       1.0  0.00010000000000000025  0.6570000000000003  0.00992  1.0000
  H   H36       1.0  0.9999  0.69565  0.8386399999999998  1.0000
  H   H37       1.0  0.99989  0.00994  0.34302999999999995  1.0000
  H   H38       1.0  9.000000000000007e-05  0.83866  0.3043599999999999  1.0000
  H   H39       1.0  0.99989  0.9900600000000003  0.6569799999999998  1.0000
  H   H40       1.0  0.00011000000000000013  0.16133  0.69565  1.0000
  H   H41       1.0  0.5001  0.65733  0.9900299999999997  1.0000
  H   H42       1.0  0.49987999999999994  0.6958600000000003  0.1613  1.0000
  H   H43       1.0  0.50011  0.34267  0.009959999999999997  1.0000
  H   H44       1.0  0.4999  0.30416  0.8386899999999998  1.0000
  H   H45       1.0  0.49987999999999994  0.99004  0.3426599999999999  1.0000
  H   H46       1.0  0.50012  0.16132  0.30418  1.0000
  H   H47       1.0  0.4999  0.009950000000000004  0.6573499999999998  1.0000
  H   H48       1.0  0.50009  0.83867  0.6958499999999997  1.0000
  C   C1        1.0  0.88193  0.3844  0.7582899999999998  1.0000
  C   C2        1.0  0.8820900000000002  0.3082100000000001  0.8066299999999998  1.0000
  C   C3        1.0  0.88185  0.6155800000000001  0.24173  1.0000
  C   C4        1.0  0.88211  0.69176  0.19338  1.0000
  C   C5        1.0  0.8820800000000001  0.24179000000000006  0.38447  1.0000
  C   C6        1.0  0.88222  0.19362  0.3081599999999999  1.0000
  C   C7        1.0  0.8817600000000001  0.7582400000000001  0.61565  1.0000
  C   C8        1.0  0.8820400000000002  0.8064300000000002  0.69193  1.0000
  C   C9        1.0  0.61829  0.6155900000000002  0.7582499999999998  1.0000
  C   C10       1.0  0.61789  0.69185  0.8063899999999998  1.0000
  C   C11       1.0  0.61796  0.38453  0.24177999999999994  1.0000
  C   C12       1.0  0.61772  0.30825000000000014  0.19366999999999995  1.0000
  C   C13       1.0  0.61814  0.75831  0.38446  1.0000
  C   C14       1.0  0.61787  0.8066500000000002  0.30835  1.0000
  C   C15       1.0  0.61818  0.24171  0.6154999999999998  1.0000
  C   C16       1.0  0.61782  0.19336  0.6916199999999998  1.0000
  C   C17       1.0  0.11802  0.61562  0.24177  1.0000
  C   C18       1.0  0.11787  0.6919000000000002  0.19355999999999995  1.0000
  C   C19       1.0  0.11811000000000002  0.3844  0.7582399999999998  1.0000
  C   C20       1.0  0.11785  0.3081200000000001  0.80643  1.0000
  C   C21       1.0  0.11796  0.7582600000000003  0.6155199999999997  1.0000
  C   C22       1.0  0.11782000000000001  0.80657  0.6917299999999997  1.0000
  C   C23       1.0  0.11828  0.24173000000000006  0.38437  1.0000
  C   C24       1.0  0.11799000000000001  0.19338000000000005  0.30819  1.0000
  C   C25       1.0  0.38165  0.3844400000000001  0.24170999999999995  1.0000
  C   C26       1.0  0.38205  0.30833  0.19335999999999995  1.0000
  C   C27       1.0  0.38198  0.61545  0.7582699999999998  1.0000
  C   C28       1.0  0.38223  0.69158  0.80659  1.0000
  C   C29       1.0  0.3819  0.24175000000000005  0.6155599999999998  1.0000
  C   C30       1.0  0.38217  0.1936  0.6918199999999998  1.0000
  C   C31       1.0  0.38185  0.7582600000000003  0.38446  1.0000
  C   C32       1.0  0.38222  0.8063900000000003  0.3082099999999999  1.0000
  C   C33       1.0  3.000000000000036e-05  0.4226800000000001  0.7355999999999998  1.0000
  C   C34       1.0  0.9999400000000002  0.27039  0.83162  1.0000
  C   C35       1.0  3.0000000000000275e-05  0.18869  0.8825999999999998  1.0000
  C   C36       1.0  0.9998800000000001  0.19619  0.97425  1.0000
  C   C37       1.0  0.99995  0.27967000000000003  0.020529999999999993  1.0000
  C   C38       1.0  0.99982  0.2602700000000001  0.10623999999999997  1.0000
  C   C39       1.0  0.9997099999999999  0.16495  0.11031999999999997  1.0000
  C   C40       1.0  0.99992  0.57733  0.26442  1.0000
  C   C41       1.0  3.999999999999969e-05  0.72961  0.16839  1.0000
  C   C42       1.0  0.00012999999999999985  0.81131  0.11740999999999997  1.0000
  C   C43       1.0  0.9998800000000001  0.8038200000000002  0.025759999999999995  1.0000
  C   C44       1.0  0.99995  0.72034  0.9794699999999997  1.0000
  C   C45       1.0  0.99984  0.7397400000000002  0.8937599999999999  1.0000
  C   C46       1.0  0.9997300000000001  0.83506  0.8896899999999998  1.0000
  C   C47       1.0  0.00021000000000000028  0.2643700000000001  0.4226999999999999  1.0000
  C   C48       1.0  6.000000000000015e-05  0.16841  0.2704099999999999  1.0000
  C   C49       1.0  0.99992  0.11742000000000001  0.18869999999999995  1.0000
  C   C50       1.0  0.00012000000000000008  0.025770000000000008  0.19620999999999994  1.0000
  C   C51       1.0  5.0000000000000375e-05  0.9794800000000002  0.27968  1.0000
  C   C52       1.0  0.00016000000000000012  0.89378  0.26026  1.0000
  C   C53       1.0  0.0002800000000000003  0.8896900000000002  0.16495  1.0000
  C   C54       1.0  0.99984  0.73564  0.5772999999999998  1.0000
  C   C55       1.0  0.99995  0.83159  0.7296  1.0000
  C   C56       1.0  0.9999  0.8825800000000003  0.8113  1.0000
  C   C57       1.0  0.00011000000000000059  0.9742300000000003  0.8037999999999997  1.0000
  C   C58       1.0  5.000000000000001e-05  0.02051  0.72033  1.0000
  C   C59       1.0  0.00015999999999999999  0.10622  0.73975  1.0000
  C   C60       1.0  0.0002600000000000003  0.11030000000000002  0.8350699999999998  1.0000
  C   C61       1.0  0.50014  0.5773000000000003  0.7356299999999998  1.0000
  C   C62       1.0  0.50004  0.7295400000000002  0.8313699999999998  1.0000
  C   C63       1.0  0.50007  0.8115300000000001  0.8816099999999998  1.0000
  C   C64       1.0  0.49987999999999994  0.8042900000000002  0.9742699999999999  1.0000
  C   C65       1.0  0.49999000000000005  0.7209  0.020409999999999994  1.0000
  C   C66       1.0  0.49976  0.7402600000000003  0.10634999999999997  1.0000
  C   C67       1.0  0.49965000000000004  0.8352100000000002  0.11150999999999997  1.0000
  C   C68       1.0  0.49976  0.42270000000000013  0.2643799999999999  1.0000
  C   C69       1.0  0.49993  0.2704600000000001  0.16862  1.0000
  C   C70       1.0  0.50007  0.18848000000000006  0.11838999999999997  1.0000
  C   C71       1.0  0.49987999999999994  0.19570000000000007  0.025719999999999996  1.0000
  C   C72       1.0  0.49999000000000005  0.2791  0.9795899999999997  1.0000
  C   C73       1.0  0.49976  0.2597500000000001  0.8936399999999998  1.0000
  C   C74       1.0  0.4996300000000001  0.16481  0.88848  1.0000
  C   C75       1.0  0.50001  0.7356  0.42268  1.0000
  C   C76       1.0  0.50007  0.8314000000000002  0.27045  1.0000
  C   C77       1.0  0.49998  0.88164  0.18846  1.0000
  C   C78       1.0  0.50012  0.9742900000000002  0.1957  1.0000
  C   C79       1.0  0.50001  0.02043  0.2790999999999999  1.0000
  C   C80       1.0  0.50024  0.10637000000000003  0.2597599999999999  1.0000
  C   C81       1.0  0.50038  0.11153000000000003  0.16481  1.0000
  C   C82       1.0  0.50008  0.2644300000000001  0.57733  1.0000
  C   C83       1.0  0.49995  0.1686  0.72955  1.0000
  C   C84       1.0  0.49987999999999994  0.11838000000000003  0.81153  1.0000
  C   C85       1.0  0.50011  0.025710000000000007  0.8043199999999998  1.0000
  C   C86       1.0  0.5  0.9795700000000003  0.72091  1.0000
  C   C87       1.0  0.50022  0.8936200000000002  0.74026  1.0000
  C   C88       1.0  0.50034  0.8884700000000002  0.8352  1.0000
  S   S1        1.0  0.0006099999999999998  0.52585  0.68441  1.0000
  S   S2        1.0  0.99927  0.47414  0.31559  1.0000
  S   S3        1.0  0.0006000000000000001  0.31546  0.5258899999999999  1.0000
  S   S4        1.0  0.9995199999999999  0.68452  0.47414  1.0000
  S   S5        1.0  0.50052  0.47421  0.6845399999999998  1.0000
  S   S6        1.0  0.49933  0.5258300000000002  0.31544  1.0000
  S   S7        1.0  0.49945  0.6844500000000002  0.5257699999999997  1.0000
  S   S8        1.0  0.50069  0.31557  0.47421  1.0000
  N   N1        1.0  0.9996600000000001  0.12804  0.029969999999999993  1.0000
  N   N2        1.0  0.99967  0.87197  0.9700399999999998  1.0000
  N   N3        1.0  0.00032000000000000035  0.9700400000000002  0.12805  1.0000
  N   N4        1.0  0.0003300000000000002  0.029950000000000008  0.8719599999999997  1.0000
  N   N5        1.0  0.49969  0.8712000000000002  0.02947  1.0000
  N   N6        1.0  0.49970000000000003  0.12881  0.9705199999999998  1.0000
  N   N7        1.0  0.50031  0.029500000000000005  0.12881  1.0000
  N   N8        1.0  0.50029  0.97052  0.8711999999999998  1.0000
  O   O1        1.0  0.12218999999999998  0.52927  0.6326699999999998  1.0000
  O   O2        1.0  0.11874000000000001  0.4704700000000001  0.36883  1.0000
  O   O3        1.0  0.12220000000000002  0.36728  0.52937  1.0000
  O   O4        1.0  0.11971  0.63188  0.4706  1.0000
  O   O5        1.0  0.38047000000000003  0.47055000000000013  0.63178  1.0000
  O   O6        1.0  0.37767  0.52941  0.3672399999999999  1.0000
  O   O7        1.0  0.37788  0.63264  0.52934  1.0000
  O   O8        1.0  0.38115  0.36882  0.47044  1.0000
  O   O9        1.0  0.8774900000000001  0.47067  0.36719  1.0000
  O   O10       1.0  0.8809300000000001  0.52954  0.6313499999999997  1.0000
  O   O11       1.0  0.87815  0.6325400000000002  0.47072999999999987  1.0000
  O   O12       1.0  0.88062  0.3682600000000001  0.5293799999999997  1.0000
  O   O13       1.0  0.61925  0.5294300000000002  0.3683399999999999  1.0000
  O   O14       1.0  0.62204  0.47071000000000013  0.63261  1.0000
  O   O15       1.0  0.62242  0.36723  0.4706099999999999  1.0000
  O   O16       1.0  0.61917  0.6313700000000002  0.5295599999999998  1.0000
  O   O17       1.0  0.9998800000000001  0.5890900000000002  0.7554599999999998  1.0000
  O   O18       1.0  0.00016000000000000012  0.4109100000000001  0.24454999999999996  1.0000
  O   O19       1.0  0.9998800000000001  0.24456  0.58922  1.0000
  O   O20       1.0  5.0000000000000036e-05  0.75541  0.4107899999999999  1.0000
  O   O21       1.0  0.49993  0.41077  0.7553999999999998  1.0000
  O   O22       1.0  0.50015  0.5892300000000003  0.24456999999999995  1.0000
  O   O23       1.0  0.50008  0.7554300000000003  0.5891099999999998  1.0000
  O   O24       1.0  0.49984  0.24457000000000007  0.4109  1.0000
