data_image0
_chemical_formula_structural       Cd4H56C88N12O8
_chemical_formula_sum              "Cd4 H56 C88 N12 O8"
_cell_length_a       10.57474
_cell_length_b       15.91021
_cell_length_c       13.466759999999999
_cell_angle_alpha    62.484500000000004
_cell_angle_beta     66.85443999999998
_cell_angle_gamma    70.53132

_symmetry_space_group_name_H-M    'P 1'
_symmetry_Int_Tables_number       1

loop_
  _symmetry_equiv_pos_as_xyz
  'x,y,z'

loop_
  _atom_site_type_symbol
  _atom_site_label
  _atom_site_symmetry_multiplicity
  _atom_site_fract_x
  _atom_site_fract_y
  _atom_site_fract_z
  _atom_site_occupancy
  Cd  Cd1       1.0  0.10054000000000003  0.015610000000000008  0.52404  1.0000
  Cd  Cd2       1.0  0.35992  0.51502  0.02448  1.0000
  Cd  Cd3       1.0  0.64038  0.4849  0.97516  1.0000
  Cd  Cd4       1.0  0.89967  0.9841499999999999  0.47582  1.0000
  H   H1        1.0  0.4404000000000001  0.24177  0.27096  1.0000
  H   H2        1.0  0.56207  0.36563  0.23384999999999997  1.0000
  H   H3        1.0  0.20672000000000004  0.46590000000000004  0.47856999999999994  1.0000
  H   H4        1.0  0.08669999999999996  0.34068  0.5128  1.0000
  H   H5        1.0  0.6760000000000003  0.4122599999999999  0.28264  1.0000
  H   H6        1.0  0.8765400000000001  0.3989399999999999  0.21431  1.0000
  H   H7        1.0  0.13299000000000008  0.38468  0.13693  1.0000
  H   H8        1.0  0.1262599999999999  0.60856  0.21528  1.0000
  H   H9        1.0  0.86629  0.6265799999999998  0.30921999999999994  1.0000
  H   H10       1.0  0.29357  0.58948  0.4033799999999999  1.0000
  H   H11       1.0  0.6110900000000001  0.74749  0.383  1.0000
  H   H12       1.0  0.4925999999999999  0.88022  0.45648  1.0000
  H   H13       1.0  0.10290999999999999  0.81515  0.54959  1.0000
  H   H14       1.0  0.20192000000000007  0.6818099999999998  0.48493  1.0000
  H   H15       1.0  0.046200000000000116  0.74126  0.77253  1.0000
  H   H16       1.0  0.83818  0.8657200000000002  0.7353099999999999  1.0000
  H   H17       1.0  0.85021  0.9663600000000001  0.97881  1.0000
  H   H18       1.0  0.06130999999999996  0.84064  0.012979999999999998  1.0000
  H   H19       1.0  0.6292100000000002  0.91148  0.78491  1.0000
  H   H20       1.0  0.5116000000000002  0.8997299999999999  0.71381  1.0000
  H   H21       1.0  0.34745000000000015  0.8857999999999997  0.63569  1.0000
  H   H22       1.0  0.050129999999999945  0.10873000000000001  0.71573  1.0000
  H   H23       1.0  0.19701000000000002  0.12583999999999998  0.8111  1.0000
  H   H24       1.0  0.71361  0.09009000000000005  0.9033399999999998  1.0000
  H   H25       1.0  0.257  0.24771  0.88444  1.0000
  H   H26       1.0  0.17038000000000011  0.38091  0.9570299999999999  1.0000
  H   H27       1.0  0.53345  0.31559  0.048539999999999986  1.0000
  H   H28       1.0  0.6310500000000001  0.18159000000000006  0.9850699999999998  1.0000
  H   H29       1.0  0.9536799999999999  0.25835  0.22712  1.0000
  H   H30       1.0  0.1616100000000001  0.13398999999999994  0.26475  1.0000
  H   H31       1.0  0.15085  0.03331  0.020709999999999996  1.0000
  H   H32       1.0  0.9396000000000001  0.15857000000000004  0.9865499999999998  1.0000
  H   H33       1.0  0.37104000000000004  0.08842000000000001  0.2148  1.0000
  H   H34       1.0  0.488  0.10014999999999999  0.28632  1.0000
  H   H35       1.0  0.6521099999999999  0.11415999999999994  0.36438  1.0000
  H   H36       1.0  0.94946  0.89116  0.28448  1.0000
  H   H37       1.0  0.80263  0.87424  0.18878  1.0000
  H   H38       1.0  0.2868900000000002  0.9096999999999997  0.09632  1.0000
  H   H39       1.0  0.7431000000000001  0.75216  0.11553999999999998  1.0000
  H   H40       1.0  0.8300100000000002  0.6189999999999998  0.04281  1.0000
  H   H41       1.0  0.46684000000000025  0.68407  0.95156  1.0000
  H   H42       1.0  0.36910000000000015  0.8180299999999998  0.01496  1.0000
  H   H43       1.0  0.5596  0.75779  0.72943  1.0000
  H   H44       1.0  0.43798000000000004  0.6341400000000001  0.7658699999999999  1.0000
  H   H45       1.0  0.7933800000000001  0.5343199999999999  0.52088  1.0000
  H   H46       1.0  0.9134600000000005  0.6592499999999998  0.48725  1.0000
  H   H47       1.0  0.32417000000000007  0.58763  0.71698  1.0000
  H   H48       1.0  0.12379000000000001  0.60047  0.7860699999999999  1.0000
  H   H49       1.0  0.86737  0.6147499999999999  0.86339  1.0000
  H   H50       1.0  0.8739900000000005  0.3915200000000001  0.7839399999999997  1.0000
  H   H51       1.0  0.13392  0.37365000000000004  0.68984  1.0000
  H   H52       1.0  0.7067  0.4104499999999999  0.59638  1.0000
  H   H53       1.0  0.38933000000000006  0.25217  0.61702  1.0000
  H   H54       1.0  0.50794  0.11945999999999998  0.54351  1.0000
  H   H55       1.0  0.89752  0.18481999999999996  0.45009  1.0000
  H   H56       1.0  0.7983700000000002  0.31812  0.51487  1.0000
  C   C1        1.0  0.1904200000000001  0.19827  0.4308899999999999  1.0000
  C   C2        1.0  0.25732  0.28137  0.39682  1.0000
  C   C3        1.0  0.3899  0.2911  0.3161999999999999  1.0000
  C   C4        1.0  0.4577100000000002  0.3616099999999999  0.29512  1.0000
  C   C5        1.0  0.39425  0.42514  0.35445  1.0000
  C   C6        1.0  0.2578000000000002  0.4184799999999998  0.43065  1.0000
  C   C7        1.0  0.19051000000000018  0.3477  0.45156  1.0000
  C   C8        1.0  0.4729800000000001  0.4908799999999998  0.34526999999999997  1.0000
  C   C9        1.0  0.6197700000000002  0.47234999999999977  0.31  1.0000
  C   C10       1.0  0.6927600000000003  0.53  0.31275  1.0000
  C   C11       1.0  0.8479200000000002  0.5139  0.27133  1.0000
  C   C12       1.0  0.9261300000000007  0.4441099999999998  0.22311  1.0000
  C   C13       1.0  0.07012000000000009  0.43734999999999996  0.17591999999999997  1.0000
  C   C14       1.0  0.06682000000000012  0.56149  0.22115999999999997  1.0000
  C   C15       1.0  0.9226200000000001  0.5718  0.27235  1.0000
  C   C16       1.0  0.4069700000000001  0.5698999999999999  0.37887  1.0000
  C   C17       1.0  0.4866  0.62282  0.38272  1.0000
  C   C18       1.0  0.4184099999999999  0.70278  0.4252  1.0000
  C   C19       1.0  0.4982100000000004  0.7605499999999997  0.41975999999999997  1.0000
  C   C20       1.0  0.4315900000000001  0.8347499999999998  0.46079  1.0000
  C   C21       1.0  0.21581000000000014  0.7983699999999998  0.51375  1.0000
  C   C22       1.0  0.27315999999999996  0.72297  0.47485  1.0000
  C   C23       1.0  0.18024000000000018  0.6975599999999996  0.9326  1.0000
  C   C24       1.0  0.06482999999999987  0.7810400000000001  0.89777  1.0000
  C   C25       1.0  0.0028200000000002004  0.79083  0.8174099999999999  1.0000
  C   C26       1.0  0.8856699999999997  0.86165  0.79629  1.0000
  C   C27       1.0  0.8265299999999999  0.9252800000000001  0.85546  1.0000
  C   C28       1.0  0.8940400000000002  0.91877  0.9311399999999999  1.0000
  C   C29       1.0  0.011290000000000059  0.84774  0.952  1.0000
  C   C30       1.0  0.6909200000000001  0.9908899999999998  0.8463499999999999  1.0000
  C   C31       1.0  0.5978399999999998  0.97198  0.8116  1.0000
  C   C32       1.0  0.46437000000000017  0.029740000000000003  0.8140199999999999  1.0000
  C   C33       1.0  0.36701000000000006  0.013800000000000014  0.77225  1.0000
  C   C34       1.0  0.40767000000000003  0.9446399999999999  0.72299  1.0000
  C   C35       1.0  0.31807000000000024  0.9381899999999996  0.67518  1.0000
  C   C36       1.0  0.1509600000000001  0.061680000000000026  0.72145  1.0000
  C   C37       1.0  0.2330700000000001  0.07153000000000001  0.77344  1.0000
  C   C38       1.0  0.6441499999999999  0.07019999999999998  0.87942  1.0000
  C   C39       1.0  0.5074100000000001  0.12290000000000006  0.8834799999999998  1.0000
  C   C40       1.0  0.45303000000000004  0.2029499999999999  0.92571  1.0000
  C   C41       1.0  0.3206900000000003  0.26084000000000007  0.9205099999999998  1.0000
  C   C42       1.0  0.27271000000000006  0.33529000000000003  0.96107  1.0000
  C   C43       1.0  0.47265  0.29878  0.01324  1.0000
  C   C44       1.0  0.52885  0.22311  0.97489  1.0000
  C   C45       1.0  0.8205000000000005  0.3020599999999999  0.06646  1.0000
  C   C46       1.0  0.9355100000000002  0.21839  0.10178  1.0000
  C   C47       1.0  0.9971200000000001  0.20867  0.18237  1.0000
  C   C48       1.0  0.11429000000000003  0.13794000000000003  0.20369999999999996  1.0000
  C   C49       1.0  0.17369000000000007  0.07432  0.14449  1.0000
  C   C50       1.0  0.10659  0.08073999999999998  0.06861999999999999  1.0000
  C   C51       1.0  0.9892600000000003  0.1516  0.04767  1.0000
  C   C52       1.0  0.3093  0.00885  0.15355  1.0000
  C   C53       1.0  0.40227  0.02787000000000001  0.18823999999999996  1.0000
  C   C54       1.0  0.5357100000000001  0.97012  0.1859  1.0000
  C   C55       1.0  0.63282  0.9862  0.2277  1.0000
  C   C56       1.0  0.59201  0.05534000000000001  0.27703  1.0000
  C   C57       1.0  0.6815400000000003  0.06175000000000001  0.32492  1.0000
  C   C58       1.0  0.8486999999999999  0.93825  0.27868  1.0000
  C   C59       1.0  0.7667100000000001  0.9284899999999999  0.22652  1.0000
  C   C60       1.0  0.35618000000000005  0.92958  0.12040999999999998  1.0000
  C   C61       1.0  0.4928700000000001  0.87686  0.11648999999999998  1.0000
  C   C62       1.0  0.5471600000000001  0.7968099999999998  0.07429  1.0000
  C   C63       1.0  0.6795100000000002  0.7389599999999997  0.07946  1.0000
  C   C64       1.0  0.7276  0.66452  0.038889999999999994  1.0000
  C   C65       1.0  0.5276300000000002  0.7009100000000001  0.9868199999999999  1.0000
  C   C66       1.0  0.47134000000000037  0.7765899999999998  0.02515  1.0000
  C   C67       1.0  0.8098300000000003  0.80137  0.56965  1.0000
  C   C68       1.0  0.7428500000000002  0.7183699999999997  0.60345  1.0000
  C   C69       1.0  0.61021  0.7086299999999998  0.6839499999999998  1.0000
  C   C70       1.0  0.5423700000000001  0.6382499999999998  0.70469  1.0000
  C   C71       1.0  0.60587  0.57484  0.64517  1.0000
  C   C72       1.0  0.7423  0.58158  0.56901  1.0000
  C   C73       1.0  0.8096300000000005  0.65221  0.54843  1.0000
  C   C74       1.0  0.5272100000000002  0.50907  0.65436  1.0000
  C   C75       1.0  0.38044  0.52753  0.6896499999999999  1.0000
  C   C76       1.0  0.30749  0.4698399999999999  0.68695  1.0000
  C   C77       1.0  0.1523599999999999  0.48595  0.72833  1.0000
  C   C78       1.0  0.07418999999999996  0.55552  0.77691  1.0000
  C   C79       1.0  0.9302100000000002  0.56227  0.82409  1.0000
  C   C80       1.0  0.9334200000000001  0.43853  0.77819  1.0000
  C   C81       1.0  0.07762000000000019  0.4282599999999998  0.7269699999999999  1.0000
  C   C82       1.0  0.59331  0.43  0.62085  1.0000
  C   C83       1.0  0.5137100000000003  0.3770199999999998  0.61706  1.0000
  C   C84       1.0  0.5819500000000001  0.29704999999999987  0.57462  1.0000
  C   C85       1.0  0.5022100000000002  0.2391899999999999  0.58015  1.0000
  C   C86       1.0  0.5689000000000003  0.16501  0.53911  1.0000
  C   C87       1.0  0.78462  0.2015399999999999  0.48599  1.0000
  C   C88       1.0  0.7272099999999999  0.27692000000000005  0.52493  1.0000
  N   N1        1.0  0.6276500000000003  0.6029  0.35046  1.0000
  N   N2        1.0  0.14044000000000004  0.4963699999999999  0.17136  1.0000
  N   N3        1.0  0.2918300000000002  0.8551699999999998  0.50653  1.0000
  N   N4        1.0  0.41861  0.10283000000000007  0.8514399999999999  1.0000
  N   N5        1.0  0.19295000000000034  0.9970899999999996  0.67077  1.0000
  N   N6        1.0  0.34698000000000007  0.35579  0.00606  1.0000
  N   N7        1.0  0.5815800000000001  0.89695  0.14859  1.0000
  N   N8        1.0  0.80662  0.0028000000000000056  0.32942  1.0000
  N   N9        1.0  0.6533600000000002  0.64396  0.99394  1.0000
  N   N10       1.0  0.3726700000000004  0.39690999999999993  0.64929  1.0000
  N   N11       1.0  0.8598400000000002  0.50344  0.82832  1.0000
  N   N12       1.0  0.7086600000000002  0.14468  0.49324999999999997  1.0000
  O   O1        1.0  0.2624900000000001  0.13231  0.39013  1.0000
  O   O2        1.0  0.06852999999999997  0.19543  0.50195  1.0000
  O   O3        1.0  0.21279999999999982  0.6301300000000001  0.8945  1.0000
  O   O4        1.0  0.23557000000000006  0.69586  0.0017999999999999997  1.0000
  O   O5        1.0  0.78711  0.36898  0.10559  1.0000
  O   O6        1.0  0.7667900000000004  0.30441999999999997  0.99588  1.0000
  O   O7        1.0  0.7377099999999998  0.86728  0.61045  1.0000
  O   O8        1.0  0.9316899999999996  0.80429  0.49856  1.0000
