data_image0
_chemical_formula_structural       Ca6Si4H68C112O32
_chemical_formula_sum              "Ca6 Si4 H68 C112 O32"
_cell_length_a       14.01514
_cell_length_b       14.389170000000002
_cell_length_c       23.93661
_cell_angle_alpha    90.0
_cell_angle_beta     90.0
_cell_angle_gamma    116.13720000000002

_symmetry_space_group_name_H-M    'P 1'
_symmetry_Int_Tables_number       1

loop_
  _symmetry_equiv_pos_as_xyz
  'x,y,z'

loop_
  _atom_site_type_symbol
  _atom_site_label
  _atom_site_symmetry_multiplicity
  _atom_site_fract_x
  _atom_site_fract_y
  _atom_site_fract_z
  _atom_site_occupancy
  Ca  Ca1       1.0  0.026049999999999993  0.01868  0.65064  1.0000
  Ca  Ca2       1.0  0.97395  0.4813199999999999  0.15064  1.0000
  Ca  Ca3       1.0  0.97395  0.98132  0.34936  1.0000
  Ca  Ca4       1.0  0.026049999999999997  0.51868  0.84936  1.0000
  Ca  Ca5       1.0  0.0  0.0  0.5  1.0000
  Ca  Ca6       1.0  0.0  0.5  0.0  1.0000
  Si  Si1       1.0  0.7078499999999998  0.38218  0.50759  1.0000
  Si  Si2       1.0  0.29215  0.11781999999999997  0.00759  1.0000
  Si  Si3       1.0  0.29215  0.61782  0.4924000000000001  1.0000
  Si  Si4       1.0  0.7078499999999998  0.88219  0.9924  1.0000
  H   H1        1.0  0.8743699999999998  0.43296  0.60138  1.0000
  H   H2        1.0  0.9664399999999997  0.33179  0.63966  1.0000
  H   H3        1.0  0.8121099999999999  0.09456999999999997  0.51721  1.0000
  H   H4        1.0  0.7182099999999999  0.19240999999999997  0.47924  1.0000
  H   H5        1.0  0.59499  0.20441999999999994  0.58578  1.0000
  H   H6        1.0  0.40644  0.10512  0.61369  1.0000
  H   H7        1.0  0.3174999999999999  0.28962  0.50334  1.0000
  H   H8        1.0  0.50695  0.3977  0.4803800000000001  1.0000
  H   H9        1.0  0.8938799999999998  0.57835  0.47397  1.0000
  H   H10       1.0  0.9783699999999997  0.7529499999999999  0.51542  1.0000
  H   H11       1.0  0.7268899999999998  0.6679199999999997  0.63545  1.0000
  H   H12       1.0  0.63886  0.48999  0.5943  1.0000
  H   H13       1.0  0.56048  0.32264  0.40501000000000004  1.0000
  H   H14       1.0  0.59683  0.33327  0.30337000000000003  1.0000
  H   H15       1.0  0.9304899999999998  0.44367  0.33599  1.0000
  H   H16       1.0  0.8949599999999999  0.42731  0.4378000000000001  1.0000
  H   H17       1.0  0.7351499999999999  0.38075999999999993  0.17783000000000004  1.0000
  H   H18       1.0  0.12563  0.06704  0.10138000000000001  1.0000
  H   H19       1.0  0.03356  0.16821  0.13966  1.0000
  H   H20       1.0  0.18789  0.40543  0.017210000000000003  1.0000
  H   H21       1.0  0.28179  0.30759  0.9792400000000001  1.0000
  H   H22       1.0  0.40501  0.29558  0.08578000000000002  1.0000
  H   H23       1.0  0.59356  0.39488  0.11369000000000001  1.0000
  H   H24       1.0  0.6824999999999999  0.21039  0.00335  1.0000
  H   H25       1.0  0.49305  0.1023  0.98038  1.0000
  H   H26       1.0  0.10611999999999995  0.9216499999999999  0.97397  1.0000
  H   H27       1.0  0.02162999999999991  0.74705  0.01542  1.0000
  H   H28       1.0  0.27310999999999985  0.8320899999999998  0.13545  1.0000
  H   H29       1.0  0.36114  0.01001  0.09430000000000002  1.0000
  H   H30       1.0  0.43952  0.17736  0.90501  1.0000
  H   H31       1.0  0.40317  0.16672999999999996  0.8033700000000001  1.0000
  H   H32       1.0  0.06951  0.05633  0.83599  1.0000
  H   H33       1.0  0.10504  0.07269  0.9378000000000002  1.0000
  H   H34       1.0  0.26485  0.11924999999999998  0.67783  1.0000
  H   H35       1.0  0.12562999999999994  0.56704  0.39862  1.0000
  H   H36       1.0  0.033559999999999944  0.66821  0.36033  1.0000
  H   H37       1.0  0.18789000000000006  0.90543  0.48279000000000005  1.0000
  H   H38       1.0  0.28178999999999993  0.8075899999999999  0.52076  1.0000
  H   H39       1.0  0.40501  0.79558  0.41422  1.0000
  H   H40       1.0  0.59356  0.89488  0.38631  1.0000
  H   H41       1.0  0.6824999999999999  0.71039  0.4966500000000001  1.0000
  H   H42       1.0  0.49305  0.6023  0.51962  1.0000
  H   H43       1.0  0.10611999999999999  0.42165  0.52603  1.0000
  H   H44       1.0  0.021630000000000003  0.24705  0.48458000000000007  1.0000
  H   H45       1.0  0.2731099999999999  0.3320899999999999  0.3645500000000001  1.0000
  H   H46       1.0  0.36114  0.51001  0.4057  1.0000
  H   H47       1.0  0.43952  0.67736  0.59498  1.0000
  H   H48       1.0  0.40317  0.66673  0.69663  1.0000
  H   H49       1.0  0.06951000000000002  0.55633  0.66401  1.0000
  H   H50       1.0  0.10504  0.5727  0.5622  1.0000
  H   H51       1.0  0.26484999999999986  0.6192499999999999  0.8221700000000001  1.0000
  H   H52       1.0  0.8743699999999998  0.9329599999999998  0.89862  1.0000
  H   H53       1.0  0.9664399999999996  0.8317899999999998  0.8603300000000002  1.0000
  H   H54       1.0  0.81211  0.59457  0.98279  1.0000
  H   H55       1.0  0.71821  0.69241  0.02076  1.0000
  H   H56       1.0  0.5949799999999997  0.70443  0.91422  1.0000
  H   H57       1.0  0.40644  0.60512  0.88631  1.0000
  H   H58       1.0  0.3174999999999999  0.7896199999999999  0.99665  1.0000
  H   H59       1.0  0.50695  0.89771  0.01962  1.0000
  H   H60       1.0  0.8938799999999998  0.07835  0.026030000000000005  1.0000
  H   H61       1.0  0.9783699999999999  0.25295  0.9845800000000002  1.0000
  H   H62       1.0  0.7268899999999999  0.16792  0.8645500000000003  1.0000
  H   H63       1.0  0.63886  0.9899999999999998  0.9057000000000002  1.0000
  H   H64       1.0  0.5604799999999998  0.8226399999999998  0.09499  1.0000
  H   H65       1.0  0.59683  0.8332799999999998  0.19663000000000003  1.0000
  H   H66       1.0  0.9304899999999998  0.94367  0.16401  1.0000
  H   H67       1.0  0.89496  0.92731  0.06220000000000001  1.0000
  H   H68       1.0  0.7351499999999999  0.88076  0.32217  1.0000
  C   C1        1.0  0.78832  0.31925  0.53801  1.0000
  C   C2        1.0  0.8596099999999998  0.35855  0.58302  1.0000
  C   C3        1.0  0.9118799999999998  0.30306  0.60451  1.0000
  C   C4        1.0  0.8944899999999998  0.20787999999999995  0.58071  1.0000
  C   C5        1.0  0.8247499999999998  0.16846  0.53533  1.0000
  C   C6        1.0  0.77217  0.22361  0.5145100000000001  1.0000
  C   C7        1.0  0.94761  0.14660999999999996  0.60407  1.0000
  C   C8        1.0  0.56573  0.30737  0.52987  1.0000
  C   C9        1.0  0.5351899999999998  0.22483999999999996  0.56811  1.0000
  C   C10       1.0  0.42895  0.1683  0.58384  1.0000
  C   C11       1.0  0.3501599999999999  0.19024999999999995  0.5596  1.0000
  C   C12       1.0  0.3791699999999999  0.27273  0.5217300000000001  1.0000
  C   C13       1.0  0.48586999999999997  0.3319  0.50835  1.0000
  C   C14       1.0  0.23493  0.12487999999999999  0.57134  1.0000
  C   C15       1.0  0.7606799999999999  0.51975  0.53194  1.0000
  C   C16       1.0  0.8558899999999998  0.5958399999999999  0.50941  1.0000
  C   C17       1.0  0.90391  0.69489  0.53215  1.0000
  C   C18       1.0  0.8581599999999999  0.72049  0.57805  1.0000
  C   C19       1.0  0.7618599999999998  0.64657  0.6001  1.0000
  C   C20       1.0  0.7135099999999999  0.54731  0.57698  1.0000
  C   C21       1.0  0.9145999999999997  0.82575  0.60319  1.0000
  C   C22       1.0  0.72536  0.37888  0.4295  1.0000
  C   C23       1.0  0.64203  0.35027  0.39053000000000004  1.0000
  C   C24       1.0  0.66173  0.35574999999999996  0.33315  1.0000
  C   C25       1.0  0.7663299999999997  0.39182  0.31348  1.0000
  C   C26       1.0  0.85008  0.41791  0.35177  1.0000
  C   C27       1.0  0.8293299999999998  0.4099199999999999  0.40885  1.0000
  C   C28       1.0  0.7917299999999999  0.40464  0.25313  1.0000
  C   C29       1.0  0.21168  0.18076  0.03801  1.0000
  C   C30       1.0  0.14039  0.14145  0.08302  1.0000
  C   C31       1.0  0.08811999999999996  0.19693999999999995  0.10451000000000002  1.0000
  C   C32       1.0  0.10551  0.29213  0.08071  1.0000
  C   C33       1.0  0.17525  0.33154  0.03533  1.0000
  C   C34       1.0  0.22782999999999995  0.2764  0.014510000000000002  1.0000
  C   C35       1.0  0.052389999999999944  0.35338999999999987  0.10407  1.0000
  C   C36       1.0  0.43426999999999977  0.19262999999999997  0.029870000000000004  1.0000
  C   C37       1.0  0.46481  0.27516  0.06811  1.0000
  C   C38       1.0  0.57105  0.3317  0.08384  1.0000
  C   C39       1.0  0.6498399999999999  0.30975  0.05960000000000001  1.0000
  C   C40       1.0  0.62083  0.22727  0.02173  1.0000
  C   C41       1.0  0.51413  0.16811  0.00835  1.0000
  C   C42       1.0  0.7650699999999998  0.37511999999999995  0.07134  1.0000
  C   C43       1.0  0.2393199999999999  0.98026  0.03194  1.0000
  C   C44       1.0  0.14410999999999993  0.9041599999999997  0.00941  1.0000
  C   C45       1.0  0.09608999999999988  0.8051199999999997  0.03215  1.0000
  C   C46       1.0  0.14183999999999994  0.7795199999999999  0.07805  1.0000
  C   C47       1.0  0.23814000000000005  0.85343  0.1001  1.0000
  C   C48       1.0  0.2864899999999998  0.9527  0.07698  1.0000
  C   C49       1.0  0.08539999999999993  0.6742499999999999  0.10319  1.0000
  C   C50       1.0  0.27463999999999994  0.12111999999999998  0.9295  1.0000
  C   C51       1.0  0.3579699999999999  0.14973  0.8905300000000002  1.0000
  C   C52       1.0  0.33826999999999996  0.14425  0.8331500000000001  1.0000
  C   C53       1.0  0.23367000000000002  0.10818  0.8134800000000002  1.0000
  C   C54       1.0  0.14991999999999994  0.08209  0.85177  1.0000
  C   C55       1.0  0.17067  0.09009  0.9088500000000003  1.0000
  C   C56       1.0  0.20827  0.09536  0.7531300000000001  1.0000
  C   C57       1.0  0.21167999999999987  0.6807599999999999  0.46199  1.0000
  C   C58       1.0  0.14039  0.64145  0.4169800000000001  1.0000
  C   C59       1.0  0.08812  0.69694  0.3954900000000001  1.0000
  C   C60       1.0  0.10551000000000005  0.79213  0.41929  1.0000
  C   C61       1.0  0.17524999999999993  0.8315399999999997  0.46467  1.0000
  C   C62       1.0  0.2278299999999999  0.7764  0.48549  1.0000
  C   C63       1.0  0.05238999999999999  0.85339  0.3959300000000001  1.0000
  C   C64       1.0  0.4342699999999999  0.69263  0.4701300000000001  1.0000
  C   C65       1.0  0.46481  0.77516  0.43189  1.0000
  C   C66       1.0  0.57105  0.8316999999999998  0.41616000000000003  1.0000
  C   C67       1.0  0.6498399999999998  0.8097499999999999  0.4404  1.0000
  C   C68       1.0  0.62083  0.72727  0.47827  1.0000
  C   C69       1.0  0.5141299999999999  0.6681099999999999  0.49165  1.0000
  C   C70       1.0  0.7650699999999999  0.8751199999999998  0.42866  1.0000
  C   C71       1.0  0.23931999999999995  0.48026  0.4680600000000001  1.0000
  C   C72       1.0  0.14410999999999996  0.40415999999999996  0.49059  1.0000
  C   C73       1.0  0.09608999999999994  0.30512  0.46785000000000004  1.0000
  C   C74       1.0  0.14184  0.27952  0.42195  1.0000
  C   C75       1.0  0.23814  0.35343  0.3999  1.0000
  C   C76       1.0  0.2864899999999999  0.4527  0.4230200000000001  1.0000
  C   C77       1.0  0.0854  0.17425  0.39681  1.0000
  C   C78       1.0  0.27463999999999994  0.62113  0.57049  1.0000
  C   C79       1.0  0.3579699999999999  0.64973  0.60946  1.0000
  C   C80       1.0  0.33826999999999996  0.64425  0.66685  1.0000
  C   C81       1.0  0.23366999999999993  0.60818  0.68652  1.0000
  C   C82       1.0  0.14991999999999991  0.58209  0.64823  1.0000
  C   C83       1.0  0.17066999999999996  0.5900899999999999  0.59114  1.0000
  C   C84       1.0  0.20827  0.59536  0.74686  1.0000
  C   C85       1.0  0.7883099999999997  0.81925  0.96199  1.0000
  C   C86       1.0  0.8596099999999997  0.8585499999999998  0.9169800000000002  1.0000
  C   C87       1.0  0.9118799999999998  0.8030599999999999  0.89549  1.0000
  C   C88       1.0  0.8944899999999998  0.7078799999999998  0.91928  1.0000
  C   C89       1.0  0.8247499999999998  0.66846  0.96467  1.0000
  C   C90       1.0  0.7721599999999998  0.72361  0.98549  1.0000
  C   C91       1.0  0.94761  0.6466099999999999  0.89593  1.0000
  C   C92       1.0  0.56573  0.80737  0.97013  1.0000
  C   C93       1.0  0.5351899999999998  0.72484  0.93189  1.0000
  C   C94       1.0  0.42895  0.66831  0.91616  1.0000
  C   C95       1.0  0.3501599999999999  0.69025  0.9404000000000001  1.0000
  C   C96       1.0  0.3791699999999999  0.77273  0.9782700000000001  1.0000
  C   C97       1.0  0.48586999999999997  0.8319  0.99165  1.0000
  C   C98       1.0  0.23493  0.62488  0.92866  1.0000
  C   C99       1.0  0.7606799999999999  0.019739999999999997  0.96806  1.0000
  C   C100      1.0  0.8558899999999998  0.09583999999999998  0.9905900000000001  1.0000
  C   C101      1.0  0.90391  0.19489  0.9678500000000002  1.0000
  C   C102      1.0  0.8581599999999998  0.22048999999999994  0.9219500000000003  1.0000
  C   C103      1.0  0.7618599999999998  0.14657  0.8999  1.0000
  C   C104      1.0  0.7135099999999999  0.0473  0.92302  1.0000
  C   C105      1.0  0.9145999999999997  0.3257499999999999  0.8968100000000001  1.0000
  C   C106      1.0  0.72536  0.87888  0.07049  1.0000
  C   C107      1.0  0.64203  0.85027  0.10947  1.0000
  C   C108      1.0  0.6617299999999999  0.8557499999999998  0.16685  1.0000
  C   C109      1.0  0.7663299999999997  0.89183  0.18652  1.0000
  C   C110      1.0  0.85008  0.91792  0.14823  1.0000
  C   C111      1.0  0.8293299999999998  0.90992  0.09115  1.0000
  C   C112      1.0  0.7917299999999999  0.90464  0.24687000000000006  1.0000
  O   O1        1.0  0.99024  0.16672999999999996  0.65207  1.0000
  O   O2        1.0  0.9457  0.0704  0.57445  1.0000
  O   O3        1.0  0.17035  0.10718999999999998  0.5314800000000001  1.0000
  O   O4        1.0  0.20622999999999994  0.08902  0.6214300000000001  1.0000
  O   O5        1.0  0.8859699999999999  0.8463199999999997  0.65001  1.0000
  O   O6        1.0  0.9951899999999997  0.8943399999999998  0.5760700000000001  1.0000
  O   O7        1.0  0.8859599999999999  0.44915  0.23642  1.0000
  O   O8        1.0  0.7089999999999997  0.36707  0.21896000000000002  1.0000
  O   O9        1.0  0.009759999999999975  0.33327  0.15207000000000004  1.0000
  O   O10       1.0  0.054300000000000015  0.4296  0.07445  1.0000
  O   O11       1.0  0.82965  0.39281  0.03148  1.0000
  O   O12       1.0  0.79377  0.41098  0.12143  1.0000
  O   O13       1.0  0.11402999999999995  0.65368  0.15001  1.0000
  O   O14       1.0  0.004800000000000006  0.60566  0.07607  1.0000
  O   O15       1.0  0.11403999999999997  0.05085  0.73641  1.0000
  O   O16       1.0  0.291  0.13293  0.71896  1.0000
  O   O17       1.0  0.00975999999999996  0.83327  0.3479300000000001  1.0000
  O   O18       1.0  0.054299999999999876  0.9296099999999998  0.42555000000000004  1.0000
  O   O19       1.0  0.82965  0.89281  0.46852000000000005  1.0000
  O   O20       1.0  0.79377  0.9109799999999999  0.37856  1.0000
  O   O21       1.0  0.11402999999999998  0.15368  0.34999000000000013  1.0000
  O   O22       1.0  0.004809999999999998  0.10566  0.42393000000000003  1.0000
  O   O23       1.0  0.11403999999999997  0.55085  0.7635800000000001  1.0000
  O   O24       1.0  0.291  0.63293  0.7810400000000001  1.0000
  O   O25       1.0  0.99024  0.6667399999999999  0.84793  1.0000
  O   O26       1.0  0.9457  0.5704  0.9255500000000002  1.0000
  O   O27       1.0  0.17035  0.6072  0.9685100000000002  1.0000
  O   O28       1.0  0.2062299999999999  0.5890299999999999  0.87856  1.0000
  O   O29       1.0  0.8859699999999999  0.34632  0.8499800000000001  1.0000
  O   O30       1.0  0.9952  0.39433999999999997  0.92393  1.0000
  O   O31       1.0  0.8859599999999996  0.9491599999999998  0.26358  1.0000
  O   O32       1.0  0.7089999999999997  0.8670699999999999  0.28104  1.0000
