data_image0
_chemical_formula_structural       Cd4H48C96O20
_chemical_formula_sum              "Cd4 H48 C96 O20"
_cell_length_a       12.86957
_cell_length_b       13.65028
_cell_length_c       23.44533
_cell_angle_alpha    108.03732999999998
_cell_angle_beta     108.11122999999999
_cell_angle_gamma    86.50274999999999

_symmetry_space_group_name_H-M    'P 1'
_symmetry_Int_Tables_number       1

loop_
  _symmetry_equiv_pos_as_xyz
  'x,y,z'

loop_
  _atom_site_type_symbol
  _atom_site_label
  _atom_site_symmetry_multiplicity
  _atom_site_fract_x
  _atom_site_fract_y
  _atom_site_fract_z
  _atom_site_occupancy
  Cd  Cd1       1.0  0.85997  0.5148  0.00608  1.0000
  Cd  Cd2       1.0  0.82746  0.30066  0.04352  1.0000
  Cd  Cd3       1.0  0.80338  0.7327800000000002  0.9625300000000001  1.0000
  Cd  Cd4       1.0  0.78307  0.05961999999999999  0.95731  1.0000
  H   H1        1.0  0.05426999999999998  0.21498  0.20408  1.0000
  H   H2        1.0  0.8084699999999999  0.97045  0.12894000000000003  1.0000
  H   H3        1.0  0.46377  0.09217999999999998  0.63742  1.0000
  H   H4        1.0  0.8907699999999997  0.6333700000000001  0.34935  1.0000
  H   H5        1.0  0.9366500000000001  0.005940000000000082  0.7526200000000001  1.0000
  H   H6        1.0  0.6588  0.8279  0.58254  1.0000
  H   H7        1.0  0.29952  0.92336  0.36576  1.0000
  H   H8        1.0  0.5698999999999997  0.5207699999999998  0.7542  1.0000
  H   H9        1.0  0.20142999999999994  0.6116600000000001  0.10988  1.0000
  H   H10       1.0  0.6157599999999998  0.8937100000000001  0.10004  1.0000
  H   H11       1.0  0.7721399999999998  0.64921  0.16938000000000003  1.0000
  H   H12       1.0  0.15484  0.12193000000000002  0.49115  1.0000
  H   H13       1.0  0.86289  0.38965000000000005  0.8432900000000001  1.0000
  H   H14       1.0  0.12558999999999998  0.7376100000000002  0.28151000000000004  1.0000
  H   H15       1.0  0.23955999999999994  0.16252  0.77321  1.0000
  H   H16       1.0  0.9170599999999998  0.04543999999999993  0.65256  1.0000
  H   H17       1.0  0.5981099999999999  0.9878300000000002  0.20629  1.0000
  H   H18       1.0  0.6149  0.33436000000000005  0.8368400000000001  1.0000
  H   H19       1.0  0.5026199999999998  0.09718000000000003  0.89132  1.0000
  H   H20       1.0  0.6992500000000001  0.13701000000000008  0.7101100000000002  1.0000
  H   H21       1.0  0.8515599999999999  0.75571  0.76729  1.0000
  H   H22       1.0  0.042350000000000006  0.89765  0.15633  1.0000
  H   H23       1.0  0.373  0.027340000000000184  0.7829800000000002  1.0000
  H   H24       1.0  0.35831  0.6782000000000002  0.20783  1.0000
  H   H25       1.0  0.64651  0.98491  0.84521  1.0000
  H   H26       1.0  0.8029799999999998  0.8150900000000002  0.67213  1.0000
  H   H27       1.0  0.9860899999999999  0.9928400000000001  0.5610400000000001  1.0000
  H   H28       1.0  0.12144999999999999  0.17086  0.30455  1.0000
  H   H29       1.0  0.83772  0.9973400000000001  0.34575  1.0000
  H   H30       1.0  0.7274500000000002  0.35288  0.5900200000000001  1.0000
  H   H31       1.0  0.63964  0.8960600000000001  0.49440000000000006  1.0000
  H   H32       1.0  0.050090000000000016  0.60632  0.17733000000000002  1.0000
  H   H33       1.0  0.12753  0.28838  0.81134  1.0000
  H   H34       1.0  0.85116  0.25539  0.74171  1.0000
  H   H35       1.0  0.99053  0.8586200000000003  0.28588  1.0000
  H   H36       1.0  0.062270000000000124  0.3528000000000001  0.9055400000000002  1.0000
  H   H37       1.0  0.46231000000000005  0.007160000000000068  0.4507500000000001  1.0000
  H   H38       1.0  0.8754099999999999  0.06872000000000003  0.84723  1.0000
  H   H39       1.0  0.86872  0.9300200000000001  0.22984000000000002  1.0000
  H   H40       1.0  0.19318  0.9615400000000002  0.25686  1.0000
  H   H41       1.0  0.09858000000000001  0.17217000000000005  0.39422000000000007  1.0000
  H   H42       1.0  0.04379999999999999  0.68122  0.43876  1.0000
  H   H43       1.0  0.4891699999999999  0.8305400000000002  0.23660000000000006  1.0000
  H   H44       1.0  0.6071099999999999  0.04989000000000004  0.7546300000000001  1.0000
  H   H45       1.0  0.8179699999999998  0.49922000000000016  0.24473000000000006  1.0000
  H   H46       1.0  0.5569199999999996  0.3860400000000002  0.6512  1.0000
  H   H47       1.0  0.4857499999999999  0.2650500000000001  0.72841  1.0000
  H   H48       1.0  0.75903  0.7435100000000002  0.27593  1.0000
  C   C1        1.0  0.71653  0.4628  0.8052  1.0000
  C   C2        1.0  0.8756699999999998  0.014749999999999996  0.16802  1.0000
  C   C3        1.0  0.057630000000000015  0.68642  0.27375  1.0000
  C   C4        1.0  0.03656000000000012  0.14266000000000006  0.7754500000000001  1.0000
  C   C5        1.0  0.22825  0.08265000000000002  0.6765  1.0000
  C   C6        1.0  0.2884799999999999  0.72591  0.197  1.0000
  C   C7        1.0  0.4699399999999999  0.9681200000000001  0.40415  1.0000
  C   C8        1.0  0.18569000000000022  0.12068000000000008  0.7269800000000002  1.0000
  C   C9        1.0  0.7097799999999997  0.27148  0.5807500000000001  1.0000
  C   C10       1.0  0.09169000000000001  0.09165000000000004  0.3912900000000001  1.0000
  C   C11       1.0  0.004099999999999988  0.05415000000000001  0.65952  1.0000
  C   C12       1.0  0.62338  0.38649999999999995  0.69349  1.0000
  C   C13       1.0  0.66036  0.05660000000000001  0.5507  1.0000
  C   C14       1.0  0.9302699999999999  0.1170600000000001  0.8394100000000002  1.0000
  C   C15       1.0  0.5672  0.21953  0.87056  1.0000
  C   C16       1.0  0.018540000000000004  0.71066  0.06725  1.0000
  C   C17       1.0  0.5782799999999998  0.9190700000000002  0.33091  1.0000
  C   C18       1.0  0.9641699999999999  0.08192000000000009  0.7859000000000002  1.0000
  C   C19       1.0  0.19336999999999996  0.004679999999999996  0.56082  1.0000
  C   C20       1.0  0.12926999999999997  0.9382900000000002  0.50272  1.0000
  C   C21       1.0  0.11063999999999997  0.84934  0.16855  1.0000
  C   C22       1.0  0.4985000000000001  0.13302000000000008  0.8552300000000003  1.0000
  C   C23       1.0  0.6517799999999999  0.94921  0.54152  1.0000
  C   C24       1.0  0.6987299999999997  0.20536000000000004  0.51679  1.0000
  C   C25       1.0  0.42567  0.09472  0.79487  1.0000
  C   C26       1.0  0.7900599999999995  0.8353500000000001  0.87163  1.0000
  C   C27       1.0  0.6460099999999998  0.8610700000000002  0.13876  1.0000
  C   C28       1.0  0.07523999999999999  0.10462000000000006  0.71995  1.0000
  C   C29       1.0  0.7982899999999998  0.82008  0.76391  1.0000
  C   C30       1.0  0.6792299999999998  0.8729900000000003  0.24879  1.0000
  C   C31       1.0  0.4846399999999999  0.8671800000000001  0.28402  1.0000
  C   C32       1.0  0.7037199999999999  0.9385100000000001  0.7070900000000001  1.0000
  C   C33       1.0  0.015110000000000012  0.15281  0.21071  1.0000
  C   C34       1.0  0.79525  0.3874000000000002  0.8012700000000001  1.0000
  C   C35       1.0  0.88561  0.55173  0.25390000000000007  1.0000
  C   C36       1.0  0.76379  0.9886600000000002  0.35716  1.0000
  C   C37       1.0  0.04342  0.022000000000000047  0.6082000000000001  1.0000
  C   C38       1.0  0.7881  0.31198  0.74409  1.0000
  C   C39       1.0  0.56183  0.2672  0.82467  1.0000
  C   C40       1.0  0.9255799999999998  0.25723  0.93816  1.0000
  C   C41       1.0  0.07292999999999991  0.24021000000000006  0.81962  1.0000
  C   C42       1.0  0.9285599999999998  0.54597  0.20477000000000004  1.0000
  C   C43       1.0  0.73467  0.7234300000000001  0.17791  1.0000
  C   C44       1.0  0.64766  0.25790000000000013  0.93435  1.0000
  C   C45       1.0  0.3772399999999999  0.92055  0.35594  1.0000
  C   C46       1.0  0.28663999999999995  0.82457  0.23953  1.0000
  C   C47       1.0  0.3784299999999999  0.07900999999999996  0.63254  1.0000
  C   C48       1.0  0.66505  0.03256000000000002  0.43957  1.0000
  C   C49       1.0  0.7702099999999998  0.85314  0.71071  1.0000
  C   C50       1.0  0.15625000000000006  0.031700000000000096  0.6154200000000001  1.0000
  C   C51       1.0  0.87913  0.4696800000000001  0.14225000000000002  1.0000
  C   C52       1.0  0.7277900000000002  0.5486000000000001  0.8649800000000001  1.0000
  C   C53       1.0  0.69632  0.23596000000000006  0.62647  1.0000
  C   C54       1.0  0.9109799999999998  0.9916000000000003  0.22450000000000006  1.0000
  C   C55       1.0  0.051199999999999975  0.12854  0.26684  1.0000
  C   C56       1.0  0.4204799999999999  0.14157  0.74833  1.0000
  C   C57       1.0  0.7586299999999998  0.8702900000000002  0.81468  1.0000
  C   C58       1.0  0.04154000000000001  0.018070000000000003  0.33263  1.0000
  C   C59       1.0  0.9276999999999999  0.09535000000000002  0.16081000000000004  1.0000
  C   C60       1.0  0.0367  0.27653  0.87211  1.0000
  C   C61       1.0  0.19532  0.8847500000000001  0.22502  1.0000
  C   C62       1.0  0.6774  0.12569  0.6134800000000001  1.0000
  C   C63       1.0  0.48971000000000003  0.22794000000000006  0.7639300000000001  1.0000
  C   C64       1.0  0.12454  0.06327999999999999  0.44573  1.0000
  C   C65       1.0  0.06661999999999998  0.88448  0.38512  1.0000
  C   C66       1.0  0.67161  0.09405000000000001  0.50209  1.0000
  C   C67       1.0  0.72682  0.77649  0.23754000000000006  1.0000
  C   C68       1.0  0.6873300000000001  0.9514800000000002  0.8095500000000002  1.0000
  C   C69       1.0  0.34326  0.09982000000000002  0.68415  1.0000
  C   C70       1.0  0.04890000000000003  0.7785  0.3833500000000001  1.0000
  C   C71       1.0  0.5730499999999998  0.9699200000000003  0.3936300000000001  1.0000
  C   C72       1.0  0.08392000000000001  0.83719  0.49983000000000005  1.0000
  C   C73       1.0  0.66194  0.9865900000000001  0.7573100000000001  1.0000
  C   C74       1.0  0.016149999999999984  0.61232  0.2153  1.0000
  C   C75       1.0  0.7678199999999998  0.03517000000000001  0.4227  1.0000
  C   C76       1.0  0.05939  0.75839  0.43833  1.0000
  C   C77       1.0  0.20148  0.68875  0.14195000000000002  1.0000
  C   C78       1.0  0.9652199999999997  0.21501000000000012  0.8825900000000001  1.0000
  C   C79       1.0  0.6300499999999999  0.4614300000000001  0.75077  1.0000
  C   C80       1.0  0.00016999999999999584  0.047060000000000025  0.27451  1.0000
  C   C81       1.0  0.011930000000000062  0.69593  0.32248000000000004  1.0000
  C   C82       1.0  0.6815099999999997  0.9781800000000003  0.65295  1.0000
  C   C83       1.0  0.11343999999999996  0.96004  0.44455  1.0000
  C   C84       1.0  0.68441  0.08465000000000004  0.66253  1.0000
  C   C85       1.0  0.30647  0.03947999999999997  0.56772  1.0000
  C   C86       1.0  0.7201199999999998  0.71396  0.06698  1.0000
  C   C87       1.0  0.11240000000000001  0.7508300000000002  0.12665000000000004  1.0000
  C   C88       1.0  0.7025599999999999  0.31098999999999993  0.6892000000000001  1.0000
  C   C89       1.0  0.9267599999999999  0.62612  0.312  1.0000
  C   C90       1.0  0.03011999999999997  0.91537  0.33082  1.0000
  C   C91       1.0  0.6968899999999998  0.7660300000000002  0.12831  1.0000
  C   C92       1.0  0.38311999999999996  0.8688700000000003  0.29461  1.0000
  C   C93       1.0  0.89037  0.12098  0.10066000000000001  1.0000
  C   C94       1.0  0.6759099999999999  0.9293400000000003  0.3138500000000001  1.0000
  C   C95       1.0  0.6635199999999999  0.9107300000000003  0.59106  1.0000
  C   C96       1.0  0.63662  0.9137100000000001  0.19831000000000004  1.0000
  O   O1        1.0  0.9210499999999998  0.4618500000000001  0.09717  1.0000
  O   O2        1.0  0.70409  0.76658  0.028700000000000003  1.0000
  O   O3        1.0  0.67148  0.19516000000000003  0.96891  1.0000
  O   O4        1.0  0.83605  0.7516400000000002  0.87133  1.0000
  O   O5        1.0  0.011649999999999988  0.6132200000000002  0.04042  1.0000
  O   O6        1.0  0.9354399999999996  0.3531300000000001  0.96591  1.0000
  O   O7        1.0  0.9528699999999999  0.77635  0.04855000000000001  1.0000
  O   O8        1.0  0.3433  0.02904000000000001  0.52296  1.0000
  O   O9        1.0  0.66115  0.6194800000000003  0.8666200000000002  1.0000
  O   O10       1.0  0.07395999999999998  0.8149600000000002  0.54548  1.0000
  O   O11       1.0  0.6983899999999997  0.24271000000000004  0.47441  1.0000
  O   O12       1.0  0.8835199999999997  0.19412  0.9575300000000001  1.0000
  O   O13       1.0  0.76656  0.8916200000000002  0.92242  1.0000
  O   O14       1.0  0.82035  0.057320000000000024  0.054090000000000006  1.0000
  O   O15       1.0  0.801  0.4097800000000001  0.13460000000000003  1.0000
  O   O16       1.0  0.6925799999999999  0.3466500000000001  0.95433  1.0000
  O   O17       1.0  0.75709  0.6232600000000003  0.059650000000000016  1.0000
  O   O18       1.0  0.8569  0.061620000000000036  0.46541000000000005  1.0000
  O   O19       1.0  0.8150099999999999  0.5512800000000002  0.9132000000000001  1.0000
  O   O20       1.0  0.9297199999999999  0.20337999999999998  0.09947  1.0000
