data_image0
_chemical_formula_structural       Mg6H48C84N12O24
_chemical_formula_sum              "Mg6 H48 C84 N12 O24"
_cell_length_a       15.22006
_cell_length_b       15.22167
_cell_length_c       17.42515
_cell_angle_alpha    71.26896
_cell_angle_beta     71.16567
_cell_angle_gamma    71.46896000000001

_symmetry_space_group_name_H-M    'P 1'
_symmetry_Int_Tables_number       1

loop_
  _symmetry_equiv_pos_as_xyz
  'x,y,z'

loop_
  _atom_site_type_symbol
  _atom_site_label
  _atom_site_symmetry_multiplicity
  _atom_site_fract_x
  _atom_site_fract_y
  _atom_site_fract_z
  _atom_site_occupancy
  Mg  Mg1       1.0  0.36884000000000006  0.98062  0.18982  1.0000
  Mg  Mg2       1.0  0.01977000000000003  0.63081  0.3102199999999999  1.0000
  Mg  Mg3       1.0  0.6311699999999999  0.01938000000000007  0.8101799999999998  1.0000
  Mg  Mg4       1.0  0.98023  0.3691900000000001  0.6897799999999997  1.0000
  Mg  Mg5       1.0  0.5  0.0  0.0  1.0000
  Mg  Mg6       1.0  0.0  0.5000000000000001  0.4999999999999999  1.0000
  H   H1        1.0  0.2802700000000001  0.72005  0.18501  1.0000
  H   H2        1.0  0.51194  0.09103000000000003  0.2943999999999999  1.0000
  H   H3        1.0  0.60408  0.17926  0.3268  1.0000
  H   H4        1.0  0.55068  0.77529  0.027179999999999992  1.0000
  H   H5        1.0  0.30913  0.58149  0.12493999999999997  1.0000
  H   H6        1.0  0.5813099999999997  0.6323800000000002  0.9714999999999998  1.0000
  H   H7        1.0  0.6715  0.14161  0.03805999999999998  1.0000
  H   H8        1.0  0.76402  0.23120999999999997  0.06995  1.0000
  H   H9        1.0  0.19732000000000008  0.4113800000000001  0.8833399999999998  1.0000
  H   H10       1.0  0.30934000000000006  0.2526  0.9262599999999998  1.0000
  H   H11       1.0  0.11618999999999996  0.20343  0.16907  1.0000
  H   H12       1.0  0.0030699999999999894  0.36030000000000006  0.12599  1.0000
  H   H13       1.0  0.28021000000000007  0.71951  0.3152099999999999  1.0000
  H   H14       1.0  0.90888  0.48798  0.20585999999999993  1.0000
  H   H15       1.0  0.8204099999999999  0.3960800000000001  0.17341  1.0000
  H   H16       1.0  0.22467999999999996  0.44939000000000007  0.4726999999999999  1.0000
  H   H17       1.0  0.41858000000000006  0.6907699999999999  0.37518  1.0000
  H   H18       1.0  0.3674400000000001  0.41883999999999993  0.5283  1.0000
  H   H19       1.0  0.85849  0.32822000000000007  0.4619199999999999  1.0000
  H   H20       1.0  0.76868  0.23597  0.4299699999999999  1.0000
  H   H21       1.0  0.58832  0.8030100000000002  0.6165999999999998  1.0000
  H   H22       1.0  0.74725  0.69086  0.5736499999999998  1.0000
  H   H23       1.0  0.7972899999999999  0.88328  0.33093  1.0000
  H   H24       1.0  0.64024  0.99652  0.3739  1.0000
  H   H25       1.0  0.7197299999999999  0.27995000000000003  0.8149899999999998  1.0000
  H   H26       1.0  0.4880599999999999  0.90897  0.7055999999999998  1.0000
  H   H27       1.0  0.39592  0.82074  0.6731999999999998  1.0000
  H   H28       1.0  0.44932000000000005  0.22472000000000011  0.9728199999999998  1.0000
  H   H29       1.0  0.6908700000000001  0.41851000000000016  0.8750699999999998  1.0000
  H   H30       1.0  0.41869  0.36762  0.028499999999999994  1.0000
  H   H31       1.0  0.32849999999999996  0.8583900000000001  0.9619399999999998  1.0000
  H   H32       1.0  0.23598000000000008  0.76879  0.9300499999999998  1.0000
  H   H33       1.0  0.80268  0.58862  0.11666  1.0000
  H   H34       1.0  0.69066  0.7474  0.07375  1.0000
  H   H35       1.0  0.8838100000000001  0.7965700000000001  0.8309299999999997  1.0000
  H   H36       1.0  0.9969299999999999  0.6397  0.8740099999999997  1.0000
  H   H37       1.0  0.7197900000000004  0.28049  0.68479  1.0000
  H   H38       1.0  0.09112000000000005  0.51202  0.7941399999999997  1.0000
  H   H39       1.0  0.17959000000000003  0.6039200000000003  0.8265899999999998  1.0000
  H   H40       1.0  0.7753199999999999  0.55061  0.5273  1.0000
  H   H41       1.0  0.5814200000000002  0.30923000000000006  0.6248199999999998  1.0000
  H   H42       1.0  0.63256  0.5811600000000001  0.4716999999999999  1.0000
  H   H43       1.0  0.14150999999999994  0.67178  0.53808  1.0000
  H   H44       1.0  0.23132000000000008  0.7640300000000001  0.5700299999999998  1.0000
  H   H45       1.0  0.41168000000000005  0.19699000000000003  0.3833999999999999  1.0000
  H   H46       1.0  0.25275000000000003  0.3091400000000001  0.4263499999999999  1.0000
  H   H47       1.0  0.20271000000000003  0.11672000000000002  0.66908  1.0000
  H   H48       1.0  0.3597700000000001  0.0034800000000000625  0.6260999999999998  1.0000
  C   C1        1.0  0.4002899999999999  0.83657  0.14456999999999995  1.0000
  C   C2        1.0  0.28730999999999995  0.12866  0.07964999999999997  1.0000
  C   C3        1.0  0.4150400000000001  0.75472  0.11044999999999998  1.0000
  C   C4        1.0  0.58657  0.1111  0.16434999999999994  1.0000
  C   C5        1.0  0.5299  0.05987999999999999  0.14567  1.0000
  C   C6        1.0  0.34582  0.7011700000000001  0.13837999999999995  1.0000
  C   C7        1.0  0.56723  0.12200000000000003  0.24585999999999994  1.0000
  C   C8        1.0  0.61834  0.17052000000000003  0.2640299999999999  1.0000
  C   C9        1.0  0.44753999999999994  0.59794  0.04684999999999999  1.0000
  C   C10       1.0  0.49931999999999993  0.7312300000000002  0.049079999999999985  1.0000
  C   C11       1.0  0.36161  0.62396  0.10536999999999998  1.0000
  C   C12       1.0  0.69012  0.20952  0.20014  1.0000
  C   C13       1.0  0.51625  0.65271  0.01794  1.0000
  C   C14       1.0  0.21954000000000004  0.21982  0.050599999999999985  1.0000
  C   C15       1.0  0.65779  0.15025  0.10073999999999997  1.0000
  C   C16       1.0  0.70887  0.19975  0.11832999999999998  1.0000
  C   C17       1.0  0.18053000000000002  0.3648700000000002  0.9454999999999998  1.0000
  C   C18       1.0  0.24263000000000004  0.2772400000000001  0.9694199999999997  1.0000
  C   C19       1.0  0.13255999999999998  0.24977  0.10680999999999997  1.0000
  C   C20       1.0  0.07020999999999998  0.33648  0.08314999999999997  1.0000
  C   C21       1.0  0.09453999999999999  0.3954  0.0023699999999999993  1.0000
  C   C22       1.0  0.16360999999999998  0.59963  0.3554299999999999  1.0000
  C   C23       1.0  0.8717700000000002  0.7125199999999999  0.42048  1.0000
  C   C24       1.0  0.24537000000000003  0.5849  0.38957999999999987  1.0000
  C   C25       1.0  0.88889  0.41327  0.3357499999999999  1.0000
  C   C26       1.0  0.93996  0.47011000000000003  0.3544199999999999  1.0000
  C   C27       1.0  0.29901  0.65402  0.36175  1.0000
  C   C28       1.0  0.8779099999999999  0.43267  0.25431  1.0000
  C   C29       1.0  0.82933  0.38165  0.23610999999999993  1.0000
  C   C30       1.0  0.4021200000000001  0.5524299999999998  0.4531599999999999  1.0000
  C   C31       1.0  0.2687700000000002  0.50071  0.4508299999999999  1.0000
  C   C32       1.0  0.37617000000000006  0.63826  0.39473999999999987  1.0000
  C   C33       1.0  0.79039  0.30984  0.29991  1.0000
  C   C34       1.0  0.34725999999999996  0.48383  0.48193999999999987  1.0000
  C   C35       1.0  0.7804300000000002  0.7803400000000001  0.4493999999999999  1.0000
  C   C36       1.0  0.8497999999999999  0.34201000000000004  0.3992799999999999  1.0000
  C   C37       1.0  0.8002399999999997  0.29103000000000007  0.3816499999999999  1.0000
  C   C38       1.0  0.6349999999999999  0.8196300000000001  0.5544299999999998  1.0000
  C   C39       1.0  0.7226899999999999  0.75746  0.5305299999999997  1.0000
  C   C40       1.0  0.75068  0.8671200000000001  0.3931599999999999  1.0000
  C   C41       1.0  0.6638700000000001  0.92952  0.4167799999999999  1.0000
  C   C42       1.0  0.60466  0.90546  0.4975499999999999  1.0000
  C   C43       1.0  0.5997099999999999  0.16344000000000009  0.8554299999999998  1.0000
  C   C44       1.0  0.7126900000000002  0.87134  0.9203599999999997  1.0000
  C   C45       1.0  0.5849600000000001  0.24528000000000005  0.8895499999999997  1.0000
  C   C46       1.0  0.4134300000000001  0.8889000000000001  0.8356499999999998  1.0000
  C   C47       1.0  0.47009999999999996  0.9401200000000001  0.8543299999999998  1.0000
  C   C48       1.0  0.65418  0.29883000000000004  0.8616199999999998  1.0000
  C   C49       1.0  0.43277  0.878  0.75415  1.0000
  C   C50       1.0  0.38166000000000017  0.82948  0.7359699999999998  1.0000
  C   C51       1.0  0.55246  0.40206000000000003  0.9531499999999998  1.0000
  C   C52       1.0  0.5006800000000001  0.26877  0.9509199999999998  1.0000
  C   C53       1.0  0.63839  0.37604000000000004  0.8946299999999998  1.0000
  C   C54       1.0  0.30988000000000016  0.79048  0.7998599999999998  1.0000
  C   C55       1.0  0.48375000000000007  0.34729000000000015  0.9820599999999998  1.0000
  C   C56       1.0  0.78046  0.7801800000000002  0.9493999999999998  1.0000
  C   C57       1.0  0.3422100000000001  0.8497500000000001  0.8992599999999997  1.0000
  C   C58       1.0  0.29113  0.80025  0.88168  1.0000
  C   C59       1.0  0.81947  0.63513  0.054499999999999986  1.0000
  C   C60       1.0  0.7573700000000001  0.7227599999999998  0.030579999999999993  1.0000
  C   C61       1.0  0.86744  0.7502300000000001  0.89319  1.0000
  C   C62       1.0  0.92979  0.6635200000000002  0.9168499999999998  1.0000
  C   C63       1.0  0.90546  0.6046  0.9976299999999998  1.0000
  C   C64       1.0  0.8363899999999999  0.40037  0.64457  1.0000
  C   C65       1.0  0.1282300000000001  0.2874799999999999  0.57952  1.0000
  C   C66       1.0  0.7546299999999999  0.4151  0.61042  1.0000
  C   C67       1.0  0.11111000000000001  0.58673  0.6642499999999998  1.0000
  C   C68       1.0  0.06004000000000003  0.5298900000000001  0.6455799999999998  1.0000
  C   C69       1.0  0.70099  0.34598  0.63825  1.0000
  C   C70       1.0  0.12209000000000012  0.56733  0.7456899999999997  1.0000
  C   C71       1.0  0.17067000000000007  0.61835  0.7638899999999997  1.0000
  C   C72       1.0  0.5978799999999999  0.4475700000000001  0.54684  1.0000
  C   C73       1.0  0.7312300000000002  0.4992900000000001  0.5491699999999998  1.0000
  C   C74       1.0  0.62383  0.36174  0.60526  1.0000
  C   C75       1.0  0.2096099999999999  0.6901600000000002  0.7000899999999998  1.0000
  C   C76       1.0  0.65274  0.5161700000000002  0.51807  1.0000
  C   C77       1.0  0.21956999999999996  0.21967000000000006  0.5506099999999998  1.0000
  C   C78       1.0  0.15019999999999997  0.65799  0.60072  1.0000
  C   C79       1.0  0.19976000000000005  0.7089700000000001  0.6183499999999997  1.0000
  C   C80       1.0  0.36500000000000005  0.18037000000000003  0.4455699999999999  1.0000
  C   C81       1.0  0.27731000000000006  0.24253999999999998  0.46947  1.0000
  C   C82       1.0  0.2493200000000001  0.13288000000000005  0.6068399999999998  1.0000
  C   C83       1.0  0.33613000000000015  0.07048000000000006  0.5832199999999997  1.0000
  C   C84       1.0  0.39534  0.09454000000000004  0.5024499999999997  1.0000
  N   N1        1.0  0.45766  0.51612  0.020099999999999993  1.0000
  N   N2        1.0  0.74566  0.26101  0.21171  1.0000
  N   N3        1.0  0.03740000000000005  0.48608000000000007  0.9726299999999998  1.0000
  N   N4        1.0  0.48391000000000006  0.54231  0.47993999999999987  1.0000
  N   N5        1.0  0.73883  0.25434999999999997  0.28835  1.0000
  N   N6        1.0  0.51389  0.9626700000000001  0.52735  1.0000
  N   N7        1.0  0.5423500000000002  0.48389000000000004  0.9798999999999998  1.0000
  N   N8        1.0  0.25433999999999996  0.7389900000000001  0.7882899999999998  1.0000
  N   N9        1.0  0.9626  0.51393  0.02736999999999999  1.0000
  N   N10       1.0  0.51609  0.45770000000000005  0.5200599999999997  1.0000
  N   N11       1.0  0.26116999999999996  0.74565  0.71165  1.0000
  N   N12       1.0  0.4861200000000001  0.03733000000000001  0.47266  1.0000
  O   O1        1.0  0.46166  0.031170000000000017  0.20675999999999994  1.0000
  O   O2        1.0  0.55084  0.04824  0.07249  1.0000
  O   O3        1.0  0.36619  0.10056  0.029869999999999994  1.0000
  O   O4        1.0  0.26227  0.08346  0.15678  1.0000
  O   O5        1.0  0.33769000000000005  0.84941  0.21221999999999994  1.0000
  O   O6        1.0  0.45282999999999995  0.89804  0.10632  1.0000
  O   O7        1.0  0.96849  0.53844  0.2934  1.0000
  O   O8        1.0  0.9517999999999999  0.44917  0.4274599999999999  1.0000
  O   O9        1.0  0.8992700000000001  0.63348  0.47011999999999987  1.0000
  O   O10       1.0  0.9178  0.73767  0.3435899999999999  1.0000
  O   O11       1.0  0.15084000000000003  0.66218  0.28787  1.0000
  O   O12       1.0  0.10208000000000007  0.54713  0.3936099999999999  1.0000
  O   O13       1.0  0.5383399999999999  0.96883  0.79324  1.0000
  O   O14       1.0  0.4491600000000001  0.9517600000000003  0.9275099999999997  1.0000
  O   O15       1.0  0.6338100000000002  0.8994400000000002  0.9701299999999998  1.0000
  O   O16       1.0  0.73773  0.91654  0.8432199999999997  1.0000
  O   O17       1.0  0.6623100000000001  0.15059000000000008  0.7877799999999998  1.0000
  O   O18       1.0  0.54717  0.10196000000000004  0.8936799999999998  1.0000
  O   O19       1.0  0.03151000000000006  0.46156  0.7065999999999998  1.0000
  O   O20       1.0  0.04820000000000001  0.55083  0.57255  1.0000
  O   O21       1.0  0.1007300000000001  0.36652000000000007  0.5298799999999998  1.0000
  O   O22       1.0  0.08220000000000009  0.26233000000000006  0.6564099999999998  1.0000
  O   O23       1.0  0.8491600000000002  0.33782000000000006  0.7121299999999998  1.0000
  O   O24       1.0  0.89792  0.4528700000000001  0.60639  1.0000
