data_image0
_chemical_formula_structural       Cu4H88C96N16O16
_chemical_formula_sum              "Cu4 H88 C96 N16 O16"
_cell_length_a       12.28158
_cell_length_b       17.19437
_cell_length_c       17.18012
_cell_angle_alpha    82.60845999999998
_cell_angle_beta     69.0203
_cell_angle_gamma    69.04141

_space_group_name_H-M_alt    "P 1"
_space_group_IT_number       1

loop_
  _space_group_symop_operation_xyz
  'x, y, z'

loop_
  _atom_site_type_symbol
  _atom_site_label
  _atom_site_symmetry_multiplicity
  _atom_site_fract_x
  _atom_site_fract_y
  _atom_site_fract_z
  _atom_site_occupancy
  Cu  Cu1       1.0  0.0  0.0  0.0  1.0000
  Cu  Cu2       1.0  1.0000000000050452e-05  0.5  0.5  1.0000
  Cu  Cu3       1.0  0.5  0.0  0.5  1.0000
  Cu  Cu4       1.0  0.0  0.5  0.0  1.0000
  H   H1        1.0  0.38354999999999995  0.16532  0.45383  1.0000
  H   H2        1.0  0.07833000000000001  0.97795  0.23502  1.0000
  H   H3        1.0  0.16738999999999996  0.99066  0.34009  1.0000
  H   H4        1.0  0.29031  0.18573  0.19354  1.0000
  H   H5        1.0  0.20232999999999982  0.28738  0.41638  1.0000
  H   H6        1.0  0.1455  0.26275  0.34405  1.0000
  H   H7        1.0  0.2907799999999999  0.27834  0.30866  1.0000
  H   H8        1.0  0.19817999999999994  0.17333  0.09037  1.0000
  H   H9        1.0  0.50153  0.89857  0.3541  1.0000
  H   H10       1.0  0.41736  0.9262  0.28267  1.0000
  H   H11       1.0  0.34599999999999953  0.9021  0.38823  1.0000
  H   H12       1.0  0.002540000000000015  0.33487  0.04591  1.0000
  H   H13       1.0  0.29085999999999995  0.52159  0.26528  1.0000
  H   H14       1.0  0.49808999999999987  0.50935  0.16031  1.0000
  H   H15       1.0  0.66981  0.31426  0.30659  1.0000
  H   H16       1.0  0.90551  0.21272  0.08374  1.0000
  H   H17       1.0  0.75135  0.23756  0.15618  1.0000
  H   H18       1.0  0.87677  0.22199  0.19156  1.0000
  H   H19       1.0  0.46192999999999995  0.32644  0.40985  1.0000
  H   H20       1.0  0.7548299999999999  0.60127  0.14598  1.0000
  H   H21       1.0  0.6263599999999998  0.57409  0.21767  1.0000
  H   H22       1.0  0.6363500000000001  0.59859  0.11214999999999997  1.0000
  H   H23       1.0  0.04872000000000007  0.45407  0.3344999999999999  1.0000
  H   H24       1.0  0.55731  0.23387999999999995  0.52094  1.0000
  H   H25       1.0  0.65873  0.33933  0.50854  1.0000
  H   H26       1.0  0.9776699999999999  0.19358  0.31346  1.0000
  H   H27       1.0  0.9902299999999998  0.4163  0.21219  1.0000
  H   H28       1.0  0.9083199999999998  0.34408  0.23708  1.0000
  H   H29       1.0  0.06925999999999996  0.30859  0.22132  1.0000
  H   H30       1.0  0.87349  0.0901  0.32578  1.0000
  H   H31       1.0  0.9008400000000001  0.35376  0.6011  1.0000
  H   H32       1.0  0.84382  0.28234  0.57404  1.0000
  H   H33       1.0  0.7486100000000001  0.38783  0.598  1.0000
  H   H34       1.0  0.8375199999999998  0.04555  0.16515  1.0000
  H   H35       1.0  0.3133699999999999  0.26461  0.97777  1.0000
  H   H36       1.0  0.50791  0.15976  0.9902299999999998  1.0000
  H   H37       1.0  0.48493  0.30592  0.18505  1.0000
  H   H38       1.0  0.61831  0.0833  0.28746  1.0000
  H   H39       1.0  0.48932000000000003  0.15571  0.26245  1.0000
  H   H40       1.0  0.59937  0.19087  0.27804  1.0000
  H   H41       1.0  0.28931  0.409  0.17302  1.0000
  H   H42       1.0  0.8560500000000001  0.14649  0.89827  1.0000
  H   H43       1.0  0.7001599999999999  0.21761  0.92617  1.0000
  H   H44       1.0  0.73495  0.11238  0.90115  1.0000
  H   H45       1.0  0.61646  0.83468  0.54617  1.0000
  H   H46       1.0  0.9216700000000005  0.02206  0.76497  1.0000
  H   H47       1.0  0.83261  0.00934  0.6599  1.0000
  H   H48       1.0  0.7097000000000003  0.81427  0.80646  1.0000
  H   H49       1.0  0.7976800000000001  0.71262  0.58362  1.0000
  H   H50       1.0  0.8545099999999998  0.73725  0.65595  1.0000
  H   H51       1.0  0.70922  0.72166  0.69134  1.0000
  H   H52       1.0  0.80184  0.82668  0.90963  1.0000
  H   H53       1.0  0.49847999999999976  0.10143  0.6459  1.0000
  H   H54       1.0  0.5826499999999998  0.07379  0.71733  1.0000
  H   H55       1.0  0.65401  0.0979  0.61177  1.0000
  H   H56       1.0  0.9974699999999997  0.66513  0.95409  1.0000
  H   H57       1.0  0.70915  0.47841  0.73471  1.0000
  H   H58       1.0  0.50192  0.49065  0.8396899999999998  1.0000
  H   H59       1.0  0.3301999999999998  0.68573  0.6934  1.0000
  H   H60       1.0  0.09449999999999999  0.78728  0.91626  1.0000
  H   H61       1.0  0.24865000000000012  0.76243  0.84383  1.0000
  H   H62       1.0  0.12323999999999999  0.77801  0.80844  1.0000
  H   H63       1.0  0.53809  0.67356  0.59014  1.0000
  H   H64       1.0  0.2451799999999998  0.39872  0.85401  1.0000
  H   H65       1.0  0.3736499999999999  0.42591  0.78232  1.0000
  H   H66       1.0  0.3636599999999999  0.40139999999999987  0.88785  1.0000
  H   H67       1.0  0.9512900000000001  0.5459199999999997  0.66551  1.0000
  H   H68       1.0  0.4426999999999999  0.76611  0.47906  1.0000
  H   H69       1.0  0.3412700000000002  0.66067  0.49146  1.0000
  H   H70       1.0  0.02234000000000004  0.80642  0.68654  1.0000
  H   H71       1.0  0.00977999999999995  0.5837  0.78781  1.0000
  H   H72       1.0  0.09168  0.65592  0.76292  1.0000
  H   H73       1.0  0.93075  0.69141  0.77869  1.0000
  H   H74       1.0  0.12651000000000004  0.9099  0.67422  1.0000
  H   H75       1.0  0.09916000000000003  0.64623  0.39891  1.0000
  H   H76       1.0  0.15619  0.71765  0.42596  1.0000
  H   H77       1.0  0.2514  0.61216  0.402  1.0000
  H   H78       1.0  0.16249999999999992  0.95445  0.8348499999999998  1.0000
  H   H79       1.0  0.6866399999999997  0.73538  0.02222  1.0000
  H   H80       1.0  0.49210999999999977  0.84023  0.00976  1.0000
  H   H81       1.0  0.5150699999999998  0.69408  0.81494  1.0000
  H   H82       1.0  0.38170000000000015  0.91669  0.71253  1.0000
  H   H83       1.0  0.5106900000000001  0.84429  0.73754  1.0000
  H   H84       1.0  0.4006399999999998  0.80913  0.72196  1.0000
  H   H85       1.0  0.7106900000000002  0.591  0.82697  1.0000
  H   H86       1.0  0.1439499999999998  0.85352  0.10172  1.0000
  H   H87       1.0  0.29984000000000005  0.7824  0.07383  1.0000
  H   H88       1.0  0.2650599999999999  0.88762  0.09885  1.0000
  C   C1        1.0  0.12469  0.023309999999999994  0.22658  1.0000
  C   C2        1.0  0.2944599999999997  0.09153  0.33463  1.0000
  C   C3        1.0  0.13233  0.07495  0.15593  1.0000
  C   C4        1.0  0.17575  0.03004  0.28487  1.0000
  C   C5        1.0  0.2366  0.0883  0.27423  1.0000
  C   C6        1.0  0.36988  0.02205  0.3678899999999999  1.0000
  C   C7        1.0  0.28892  0.16214  0.37073  1.0000
  C   C8        1.0  0.24232000000000004  0.14093999999999995  0.20389  1.0000
  C   C9        1.0  0.08431  0.06553  0.08992999999999997  1.0000
  C   C10       1.0  0.22858000000000006  0.25245  0.35961  1.0000
  C   C11       1.0  0.1909  0.13415  0.14573  1.0000
  C   C12       1.0  0.4112499999999999  0.93223  0.34702  1.0000
  C   C13       1.0  0.3743600000000001  0.47632  0.27353  1.0000
  C   C14       1.0  0.7203900000000001  0.40866  0.16558  1.0000
  C   C15       1.0  0.36324  0.42478  0.34421  1.0000
  C   C16       1.0  0.49046000000000006  0.4697999999999999  0.21538  1.0000
  C   C17       1.0  0.599  0.41169  0.22608  1.0000
  C   C18       1.0  0.75947  0.47813  0.13206  1.0000
  C   C19       1.0  0.8213999999999997  0.338  0.12924  1.0000
  C   C20       1.0  0.5872  0.35888  0.29629  1.0000
  C   C21       1.0  0.23981000000000005  0.43479  0.41031  1.0000
  C   C22       1.0  0.8398699999999998  0.24774  0.14049  1.0000
  C   C23       1.0  0.47080999999999984  0.36555  0.35443  1.0000
  C   C24       1.0  0.69056  0.56802  0.15323  1.0000
  C   C25       1.0  0.64917  0.2258  0.47577  1.0000
  C   C26       1.0  0.8866899999999996  0.33423  0.40823  1.0000
  C   C27       1.0  0.70915  0.15527  0.42417  1.0000
  C   C28       1.0  0.7066800000000001  0.28415  0.46925  1.0000
  C   C29       1.0  0.8259999999999998  0.27372  0.41119  1.0000
  C   C30       1.0  0.8921599999999998  0.36761  0.47778  1.0000
  C   C31       1.0  0.9516  0.37052  0.33755  1.0000
  C   C32       1.0  0.88486  0.20366  0.3583  1.0000
  C   C33       1.0  0.65162  0.08935  0.43372  1.0000
  C   C34       1.0  0.9812899999999996  0.3595799999999999  0.2472  1.0000
  C   C35       1.0  0.82695  0.14537  0.36495  1.0000
  C   C36       1.0  0.84392  0.34663  0.56773  1.0000
  C   C37       1.0  0.35128999999999994  0.27295999999999987  0.02318  1.0000
  C   C38       1.0  0.62936  0.16498  0.09118  1.0000
  C   C39       1.0  0.28856  0.34348  0.07488  1.0000
  C   C40       1.0  0.46073  0.21474  0.02983  1.0000
  C   C41       1.0  0.5111199999999999  0.22531  0.088  1.0000
  C   C42       1.0  0.7380499999999998  0.13185  0.02167  1.0000
  C   C43       1.0  0.65966  0.12872  0.16193  1.0000
  C   C44       1.0  0.44673999999999986  0.2955  0.14065  1.0000
  C   C45       1.0  0.17462  0.40963  0.0656  1.0000
  C   C46       1.0  0.58799  0.13997  0.25228  1.0000
  C   C47       1.0  0.3371199999999999  0.35362  0.13399  1.0000
  C   C48       1.0  0.7586999999999998  0.15326  0.9318  1.0000
  C   C49       1.0  0.8753200000000001  0.9767  0.77341  1.0000
  C   C50       1.0  0.70554  0.90847  0.66537  1.0000
  C   C51       1.0  0.8676900000000001  0.92506  0.84406  1.0000
  C   C52       1.0  0.8242599999999995  0.96997  0.71512  1.0000
  C   C53       1.0  0.7634100000000004  0.9117  0.72577  1.0000
  C   C54       1.0  0.6301199999999996  0.97795  0.63211  1.0000
  C   C55       1.0  0.7110899999999999  0.83786  0.62927  1.0000
  C   C56       1.0  0.7576900000000001  0.85906  0.7961099999999998  1.0000
  C   C57       1.0  0.9157000000000001  0.93448  0.91007  1.0000
  C   C58       1.0  0.7714299999999996  0.74755  0.64039  1.0000
  C   C59       1.0  0.8091200000000001  0.86585  0.85426  1.0000
  C   C60       1.0  0.5887599999999997  0.06776  0.65298  1.0000
  C   C61       1.0  0.6256499999999998  0.52368  0.72647  1.0000
  C   C62       1.0  0.27962000000000004  0.59134  0.83442  1.0000
  C   C63       1.0  0.63678  0.57522  0.65579  1.0000
  C   C64       1.0  0.5095500000000003  0.5302  0.7846199999999998  1.0000
  C   C65       1.0  0.4010100000000001  0.58831  0.7739199999999998  1.0000
  C   C66       1.0  0.2405400000000001  0.52186  0.8679399999999998  1.0000
  C   C67       1.0  0.17861000000000002  0.662  0.87076  1.0000
  C   C68       1.0  0.41281  0.64112  0.70371  1.0000
  C   C69       1.0  0.7602100000000002  0.56521  0.58968  1.0000
  C   C70       1.0  0.16013000000000008  0.75226  0.85952  1.0000
  C   C71       1.0  0.5291999999999998  0.63445  0.64557  1.0000
  C   C72       1.0  0.30945000000000017  0.43198  0.8467599999999997  1.0000
  C   C73       1.0  0.35084000000000004  0.7742  0.52423  1.0000
  C   C74       1.0  0.1133099999999999  0.66577  0.59178  1.0000
  C   C75       1.0  0.29086000000000006  0.84473  0.57583  1.0000
  C   C76       1.0  0.29333  0.71585  0.53075  1.0000
  C   C77       1.0  0.17399999999999993  0.72628  0.58882  1.0000
  C   C78       1.0  0.10785000000000002  0.63238  0.52222  1.0000
  C   C79       1.0  0.04839999999999997  0.62948  0.66246  1.0000
  C   C80       1.0  0.11513999999999998  0.79634  0.6417  1.0000
  C   C81       1.0  0.3483899999999999  0.91065  0.56628  1.0000
  C   C82       1.0  0.018720000000000108  0.64042  0.7528  1.0000
  C   C83       1.0  0.17304999999999995  0.85463  0.63505  1.0000
  C   C84       1.0  0.15608999999999992  0.65337  0.43228  1.0000
  C   C85       1.0  0.6487200000000002  0.72704  0.97681  1.0000
  C   C86       1.0  0.3706399999999999  0.83501  0.90881  1.0000
  C   C87       1.0  0.7114499999999999  0.65651  0.92511  1.0000
  C   C88       1.0  0.5392799999999999  0.78526  0.97017  1.0000
  C   C89       1.0  0.48888999999999994  0.77468  0.91199  1.0000
  C   C90       1.0  0.26194999999999996  0.86816  0.9783199999999997  1.0000
  C   C91       1.0  0.34035  0.87128  0.83807  1.0000
  C   C92       1.0  0.5532699999999997  0.7045  0.85935  1.0000
  C   C93       1.0  0.82538  0.59036  0.93441  1.0000
  C   C94       1.0  0.41202000000000005  0.86003  0.74771  1.0000
  C   C95       1.0  0.66288  0.64637  0.86601  1.0000
  C   C96       1.0  0.24130000000000001  0.84674  0.0682  1.0000
  N   N1        1.0  0.3558299999999999  0.13353  0.42249  1.0000
  N   N2        1.0  0.40717999999999993  0.04915  0.42079  1.0000
  N   N3        1.0  0.91127  0.36652  0.07682  1.0000
  N   N4        1.0  0.8766399999999998  0.45089  0.07878  1.0000
  N   N5        1.0  0.9889999999999999  0.4228  0.36617999999999995  1.0000
  N   N6        1.0  0.9561399999999999  0.42079  0.45065  1.0000
  N   N7        1.0  0.7783  0.07688  0.13337  1.0000
  N   N8        1.0  0.8280299999999999  0.07877  0.04891  1.0000
  N   N9        1.0  0.6441800000000001  0.86647  0.57751  1.0000
  N   N10       1.0  0.59283  0.95084  0.57921  1.0000
  N   N11       1.0  0.08873999999999996  0.63348  0.92318  1.0000
  N   N12       1.0  0.12337000000000013  0.5491  0.9212199999999998  1.0000
  N   N13       1.0  0.01101999999999995  0.5772  0.63383  1.0000
  N   N14       1.0  0.04386999999999997  0.5792  0.54935  1.0000
  N   N15       1.0  0.22171999999999994  0.92312  0.86662  1.0000
  N   N16       1.0  0.17198000000000008  0.92123  0.9510799999999998  1.0000
  O   O1        1.0  0.026099999999999995  0.01137  0.1062  1.0000
  O   O2        1.0  0.10186  0.10629  0.02367  1.0000
  O   O3        1.0  0.14374999999999993  0.48905  0.39395  1.0000
  O   O4        1.0  0.2318500000000001  0.3943399999999999  0.47673  1.0000
  O   O5        1.0  0.5393299999999998  0.10563  0.4883  1.0000
  O   O6        1.0  0.7095099999999996  0.02342  0.39266  1.0000
  O   O7        1.0  0.13310000000000002  0.39394  0.01089  1.0000
  O   O8        1.0  0.12535999999999997  0.47533  0.10711  1.0000
  O   O9        1.0  0.9739199999999998  0.98864  0.89379  1.0000
  O   O10       1.0  0.8981499999999999  0.89372  0.97632  1.0000
  O   O11       1.0  0.8562600000000001  0.51095  0.60605  1.0000
  O   O12       1.0  0.7681699999999997  0.6056699999999998  0.52327  1.0000
  O   O13       1.0  0.46068  0.89436  0.51169  1.0000
  O   O14       1.0  0.29051000000000005  0.9765799999999998  0.60734  1.0000
  O   O15       1.0  0.8669099999999998  0.60606  0.9891  1.0000
  O   O16       1.0  0.87462  0.52465  0.89292  1.0000
