data_image0
_chemical_formula_structural       Cd12H40C96N12O48
_chemical_formula_sum              "Cd12 H40 C96 N12 O48"
_cell_length_a       13.52768
_cell_length_b       13.510249999999997
_cell_length_c       26.195680000000003
_cell_angle_alpha    97.94572
_cell_angle_beta     97.97316000000001
_cell_angle_gamma    90.13151

_symmetry_space_group_name_H-M    'P 1'
_symmetry_Int_Tables_number       1

loop_
  _symmetry_equiv_pos_as_xyz
  'x,y,z'

loop_
  _atom_site_type_symbol
  _atom_site_label
  _atom_site_symmetry_multiplicity
  _atom_site_fract_x
  _atom_site_fract_y
  _atom_site_fract_z
  _atom_site_occupancy
  Cd  Cd1       1.0  0.22565999999999997  0.38778  0.4325099999999999  1.0000
  Cd  Cd2       1.0  0.21712000000000006  0.44469000000000003  0.29607  1.0000
  Cd  Cd3       1.0  0.20251  0.11472999999999997  0.4392399999999999  1.0000
  Cd  Cd4       1.0  0.61268  0.7755  0.0681  1.0000
  Cd  Cd5       1.0  0.55621  0.7805400000000001  0.20394999999999996  1.0000
  Cd  Cd6       1.0  0.8841300000000001  0.79852  0.0604  1.0000
  Cd  Cd7       1.0  0.7743300000000001  0.61222  0.56749  1.0000
  Cd  Cd8       1.0  0.7828700000000002  0.5553100000000001  0.70393  1.0000
  Cd  Cd9       1.0  0.7974699999999999  0.8852600000000003  0.56076  1.0000
  Cd  Cd10      1.0  0.38731  0.22448999999999994  0.9318999999999997  1.0000
  Cd  Cd11      1.0  0.44376999999999994  0.21944999999999995  0.7960499999999998  1.0000
  Cd  Cd12      1.0  0.11586000000000006  0.20148000000000008  0.9396  1.0000
  H   H1        1.0  0.197  0.04685  0.16095  1.0000
  H   H2        1.0  0.4169800000000001  0.5839199999999999  0.31813999999999987  1.0000
  H   H3        1.0  0.6456900000000002  0.79911  0.39234  1.0000
  H   H4        1.0  0.99177  0.5540199999999998  0.4400099999999999  1.0000
  H   H5        1.0  0.50828  0.6130000000000002  0.48463  1.0000
  H   H6        1.0  0.99802  0.8687200000000003  0.49964999999999987  1.0000
  H   H7        1.0  0.17161999999999997  0.76002  0.37848999999999994  1.0000
  H   H8        1.0  0.19373  0.22859  0.19806  1.0000
  H   H9        1.0  0.20566999999999996  0.95768  0.31437  1.0000
  H   H10       1.0  0.20562  0.91533  0.21756999999999999  1.0000
  H   H11       1.0  0.9531700000000002  0.80332  0.3391799999999999  1.0000
  H   H12       1.0  0.41717000000000004  0.58322  0.18206  1.0000
  H   H13       1.0  0.20093  0.35459000000000007  0.10884999999999997  1.0000
  H   H14       1.0  0.44652  0.005089999999999996  0.059599999999999986  1.0000
  H   H15       1.0  0.38671  0.49045  0.01573  1.0000
  H   H16       1.0  0.13198000000000001  0.0016300000000000004  0.00018999999999999998  1.0000
  H   H17       1.0  0.23879  0.8287  0.12198999999999997  1.0000
  H   H18       1.0  0.77163  0.80698  0.30214  1.0000
  H   H19       1.0  0.04190000000000001  0.79374  0.18561  1.0000
  H   H20       1.0  0.08431  0.7939  0.28245  1.0000
  H   H21       1.0  0.80299  0.95315  0.83905  1.0000
  H   H22       1.0  0.583  0.41608000000000006  0.6818599999999999  1.0000
  H   H23       1.0  0.3543  0.20089  0.60766  1.0000
  H   H24       1.0  0.00822000000000002  0.4459800000000001  0.55999  1.0000
  H   H25       1.0  0.4917100000000001  0.38700000000000007  0.51537  1.0000
  H   H26       1.0  0.0019600000000000025  0.13128  0.50035  1.0000
  H   H27       1.0  0.8283700000000003  0.23998000000000003  0.62151  1.0000
  H   H28       1.0  0.80626  0.77141  0.8019399999999999  1.0000
  H   H29       1.0  0.79432  0.04232  0.68563  1.0000
  H   H30       1.0  0.7943600000000001  0.08466999999999993  0.7824299999999997  1.0000
  H   H31       1.0  0.046810000000000004  0.19668000000000005  0.66082  1.0000
  H   H32       1.0  0.58282  0.41677999999999993  0.8179399999999998  1.0000
  H   H33       1.0  0.7990500000000003  0.6454000000000001  0.8911499999999998  1.0000
  H   H34       1.0  0.5534700000000001  0.9949  0.9404  1.0000
  H   H35       1.0  0.6132800000000003  0.5095499999999998  0.9842699999999998  1.0000
  H   H36       1.0  0.8680100000000002  0.99837  0.9998099999999999  1.0000
  H   H37       1.0  0.7611900000000003  0.17128999999999994  0.8780099999999998  1.0000
  H   H38       1.0  0.22834999999999994  0.19301999999999997  0.6978599999999998  1.0000
  H   H39       1.0  0.9580800000000003  0.20626  0.81439  1.0000
  H   H40       1.0  0.9156700000000001  0.2061  0.71755  1.0000
  C   C1        1.0  0.6505300000000003  0.7578000000000003  0.4904899999999999  1.0000
  C   C2        1.0  0.5416700000000001  0.72592  0.29868999999999996  1.0000
  C   C3        1.0  0.9157300000000003  0.6888900000000002  0.5096899999999999  1.0000
  C   C4        1.0  0.12786000000000003  0.9279199999999999  0.43871999999999994  1.0000
  C   C5        1.0  0.08874  0.8250700000000002  0.43908  1.0000
  C   C6        1.0  0.1981  0.06841999999999998  0.20261999999999994  1.0000
  C   C7        1.0  0.4530200000000001  0.59102  0.40207  1.0000
  C   C8        1.0  0.46283  0.6191600000000002  0.35343  1.0000
  C   C9        1.0  0.59234  0.74024  0.39482  1.0000
  C   C10       1.0  0.37634  0.51425  0.40621  1.0000
  C   C11       1.0  0.018540000000000004  0.62981  0.43952  1.0000
  C   C12       1.0  0.98677  0.70912  0.47338  1.0000
  C   C13       1.0  0.08491000000000001  0.64845  0.40530999999999995  1.0000
  C   C14       1.0  0.58429  0.71008  0.4431699999999999  1.0000
  C   C15       1.0  0.11993000000000001  0.5657600000000002  0.3689699999999999  1.0000
  C   C16       1.0  0.51442  0.63584  0.4469399999999999  1.0000
  C   C17       1.0  0.022290000000000004  0.8067300000000001  0.47348  1.0000
  C   C18       1.0  0.11979  0.7460200000000002  0.4050199999999999  1.0000
  C   C19       1.0  0.53211  0.6943900000000001  0.3499699999999999  1.0000
  C   C20       1.0  0.20214  0.11703999999999999  0.30948999999999993  1.0000
  C   C21       1.0  0.19925  0.19269  0.27693999999999996  1.0000
  C   C22       1.0  0.19636  0.16956000000000002  0.22259  1.0000
  C   C23       1.0  0.20326  0.01520000000000001  0.289  1.0000
  C   C24       1.0  0.20206000000000005  0.9928900000000002  0.23511  1.0000
  C   C25       1.0  0.24138000000000007  0.3476  0.010559999999999998  1.0000
  C   C26       1.0  0.27303000000000005  0.46083  0.20203999999999994  1.0000
  C   C27       1.0  0.31137  0.08195000000000002  0.98943  1.0000
  C   C28       1.0  0.0715  0.87386  0.06218  1.0000
  C   C29       1.0  0.17461999999999997  0.91186  0.06135  1.0000
  C   C30       1.0  0.93153  0.80202  0.29749  1.0000
  C   C31       1.0  0.40921  0.54638  0.09818999999999997  1.0000
  C   C32       1.0  0.38134000000000007  0.53708  0.14698999999999998  1.0000
  C   C33       1.0  0.26  0.40753  0.10608999999999999  1.0000
  C   C34       1.0  0.48630000000000007  0.62333  0.09455999999999999  1.0000
  C   C35       1.0  0.3704500000000001  0.9794200000000002  0.06024  1.0000
  C   C36       1.0  0.2915  0.011590000000000001  0.026269999999999995  1.0000
  C   C37       1.0  0.35129000000000005  0.91371  0.09478999999999997  1.0000
  C   C38       1.0  0.28988000000000014  0.41472  0.05754999999999998  1.0000
  C   C39       1.0  0.4339800000000001  0.87784  0.13094  1.0000
  C   C40       1.0  0.36402  0.48467  0.05347999999999999  1.0000
  C   C41       1.0  0.19361000000000006  0.97726  0.026529999999999998  1.0000
  C   C42       1.0  0.25342000000000003  0.8802200000000001  0.09539  1.0000
  C   C43       1.0  0.3056900000000001  0.46855  0.15076  1.0000
  C   C44       1.0  0.8828100000000002  0.79771  0.19055  1.0000
  C   C45       1.0  0.8073700000000003  0.8008500000000002  0.22317  1.0000
  C   C46       1.0  0.8305200000000003  0.80397  0.2775599999999999  1.0000
  C   C47       1.0  0.9845200000000002  0.7963600000000001  0.21101999999999999  1.0000
  C   C48       1.0  0.006860000000000003  0.79765  0.26492  1.0000
  C   C49       1.0  0.34946  0.2422  0.50951  1.0000
  C   C50       1.0  0.45832  0.27408000000000005  0.70131  1.0000
  C   C51       1.0  0.08426  0.3111100000000001  0.49031  1.0000
  C   C52       1.0  0.8721300000000001  0.07208  0.56128  1.0000
  C   C53       1.0  0.9112500000000002  0.17492999999999997  0.5609199999999999  1.0000
  C   C54       1.0  0.80189  0.93158  0.79738  1.0000
  C   C55       1.0  0.54697  0.40898  0.5979299999999999  1.0000
  C   C56       1.0  0.5371600000000001  0.38084000000000007  0.6465699999999998  1.0000
  C   C57       1.0  0.40765  0.25975  0.6051799999999999  1.0000
  C   C58       1.0  0.6236400000000002  0.48575000000000007  0.59379  1.0000
  C   C59       1.0  0.9814500000000003  0.37019  0.56048  1.0000
  C   C60       1.0  0.013219999999999977  0.29088  0.5266199999999999  1.0000
  C   C61       1.0  0.9150800000000002  0.35155  0.5946899999999999  1.0000
  C   C62       1.0  0.41569  0.28992  0.55683  1.0000
  C   C63       1.0  0.88005  0.43424  0.63103  1.0000
  C   C64       1.0  0.4855600000000001  0.36416  0.55306  1.0000
  C   C65       1.0  0.9776900000000002  0.19326999999999997  0.5265199999999999  1.0000
  C   C66       1.0  0.8802000000000002  0.25398  0.59498  1.0000
  C   C67       1.0  0.46788000000000013  0.30561  0.65003  1.0000
  C   C68       1.0  0.79785  0.8829500000000001  0.69051  1.0000
  C   C69       1.0  0.80073  0.80731  0.72306  1.0000
  C   C70       1.0  0.80363  0.83044  0.77741  1.0000
  C   C71       1.0  0.7967300000000003  0.9848  0.7109999999999997  1.0000
  C   C72       1.0  0.79792  0.007109999999999997  0.76489  1.0000
  C   C73       1.0  0.7586100000000001  0.6523999999999999  0.9894399999999998  1.0000
  C   C74       1.0  0.72696  0.53917  0.79796  1.0000
  C   C75       1.0  0.68861  0.9180400000000002  0.01057  1.0000
  C   C76       1.0  0.9284900000000003  0.12613999999999992  0.9378199999999998  1.0000
  C   C77       1.0  0.82537  0.08814  0.93865  1.0000
  C   C78       1.0  0.06846  0.19798  0.70251  1.0000
  C   C79       1.0  0.5907800000000001  0.45360999999999996  0.9018099999999998  1.0000
  C   C80       1.0  0.61865  0.4629200000000001  0.85301  1.0000
  C   C81       1.0  0.73998  0.59246  0.8939099999999998  1.0000
  C   C82       1.0  0.51369  0.37666999999999995  0.9054399999999998  1.0000
  C   C83       1.0  0.6295300000000003  0.020580000000000025  0.93976  1.0000
  C   C84       1.0  0.7084900000000002  0.9884100000000001  0.97373  1.0000
  C   C85       1.0  0.6487000000000002  0.08627999999999998  0.9052099999999997  1.0000
  C   C86       1.0  0.7101100000000002  0.5852800000000002  0.94245  1.0000
  C   C87       1.0  0.5660100000000001  0.12215999999999996  0.8690599999999998  1.0000
  C   C88       1.0  0.6359700000000001  0.51533  0.94652  1.0000
  C   C89       1.0  0.80637  0.02273999999999994  0.9734699999999997  1.0000
  C   C90       1.0  0.7465600000000002  0.11978000000000003  0.9046099999999999  1.0000
  C   C91       1.0  0.6943  0.53144  0.84924  1.0000
  C   C92       1.0  0.11718000000000006  0.20229  0.80945  1.0000
  C   C93       1.0  0.19262  0.19915  0.77683  1.0000
  C   C94       1.0  0.16946000000000003  0.19602999999999998  0.7224399999999997  1.0000
  C   C95       1.0  0.015460000000000008  0.20364  0.78898  1.0000
  C   C96       1.0  0.99313  0.20233999999999994  0.7350799999999997  1.0000
  N   N1        1.0  0.20555  0.2627  0.35756  1.0000
  N   N2        1.0  0.20162000000000005  0.28216  0.30874  1.0000
  N   N3        1.0  0.20566999999999996  0.16472000000000003  0.3594899999999999  1.0000
  N   N4        1.0  0.7373300000000003  0.7944700000000002  0.14256  1.0000
  N   N5        1.0  0.7179800000000002  0.7986000000000001  0.19141  1.0000
  N   N6        1.0  0.8351100000000002  0.7941900000000002  0.14053  1.0000
  N   N7        1.0  0.79444  0.7372999999999998  0.6424399999999998  1.0000
  N   N8        1.0  0.79836  0.71784  0.69126  1.0000
  N   N9        1.0  0.7943200000000001  0.8352700000000002  0.64051  1.0000
  N   N10       1.0  0.26266  0.20553000000000005  0.85744  1.0000
  N   N11       1.0  0.28201  0.20139999999999994  0.8085899999999998  1.0000
  N   N12       1.0  0.16487999999999994  0.20580999999999994  0.8594699999999997  1.0000
  O   O1        1.0  0.6999700000000002  0.83649  0.4860499999999999  1.0000
  O   O2        1.0  0.65517  0.72024  0.53274  1.0000
  O   O3        1.0  0.5997500000000002  0.79957  0.296  1.0000
  O   O4        1.0  0.4915100000000001  0.67946  0.25724  1.0000
  O   O5        1.0  0.9049100000000002  0.7549999999999999  0.5482799999999999  1.0000
  O   O6        1.0  0.8693200000000002  0.60447  0.50158  1.0000
  O   O7        1.0  0.17573999999999998  0.94529  0.40182999999999996  1.0000
  O   O8        1.0  0.11423999999999998  0.99761  0.47511999999999993  1.0000
  O   O9        1.0  0.34437000000000006  0.51443  0.44985999999999987  1.0000
  O   O10       1.0  0.11465  0.47518  0.37761  1.0000
  O   O11       1.0  0.15520000000000003  0.58966  0.3293399999999999  1.0000
  O   O12       1.0  0.3447800000000001  0.45024  0.3665499999999999  1.0000
  O   O13       1.0  0.16132  0.3002800000000001  0.014969999999999999  1.0000
  O   O14       1.0  0.27954  0.3401799999999999  0.9684199999999997  1.0000
  O   O15       1.0  0.20116000000000006  0.40051  0.20489999999999997  1.0000
  O   O16       1.0  0.31640000000000007  0.5144  0.24318999999999993  1.0000
  O   O17       1.0  0.24511000000000005  0.09108000000000001  0.95059  1.0000
  O   O18       1.0  0.39506  0.12969999999999998  0.9974199999999999  1.0000
  O   O19       1.0  0.05467999999999999  0.82423  0.09853999999999997  1.0000
  O   O20       1.0  0.0010399999999999997  0.89011  0.026619999999999994  1.0000
  O   O21       1.0  0.4849700000000001  0.6594800000000002  0.05190999999999999  1.0000
  O   O22       1.0  0.52438  0.8851300000000001  0.12243  1.0000
  O   O23       1.0  0.4105  0.8401  0.16999999999999996  1.0000
  O   O24       1.0  0.5514  0.65079  0.13429  1.0000
  O   O25       1.0  0.30002  0.16351  0.51395  1.0000
  O   O26       1.0  0.34481  0.27975  0.46726  1.0000
  O   O27       1.0  0.40024  0.20043000000000005  0.704  1.0000
  O   O28       1.0  0.5084800000000002  0.32054  0.7427599999999999  1.0000
  O   O29       1.0  0.09507000000000002  0.245  0.45172  1.0000
  O   O30       1.0  0.13067  0.39553  0.49841999999999986  1.0000
  O   O31       1.0  0.8242400000000001  0.05471000000000001  0.59817  1.0000
  O   O32       1.0  0.88575  0.0023900000000000128  0.52488  1.0000
  O   O33       1.0  0.65562  0.48557  0.55014  1.0000
  O   O34       1.0  0.8853400000000002  0.52482  0.62239  1.0000
  O   O35       1.0  0.8447800000000002  0.4103399999999999  0.6706599999999999  1.0000
  O   O36       1.0  0.6552100000000001  0.54976  0.63345  1.0000
  O   O37       1.0  0.8386600000000001  0.69972  0.9850299999999997  1.0000
  O   O38       1.0  0.72044  0.65982  0.03158  1.0000
  O   O39       1.0  0.7988200000000002  0.59949  0.7951  1.0000
  O   O40       1.0  0.6835800000000001  0.4856  0.7568099999999998  1.0000
  O   O41       1.0  0.7548800000000002  0.9089200000000002  0.04941  1.0000
  O   O42       1.0  0.60493  0.8703000000000002  0.00258  1.0000
  O   O43       1.0  0.9453100000000001  0.17577000000000007  0.90146  1.0000
  O   O44       1.0  0.9989500000000001  0.10989  0.9733799999999999  1.0000
  O   O45       1.0  0.51502  0.3405200000000001  0.9480899999999999  1.0000
  O   O46       1.0  0.47561000000000003  0.11486999999999994  0.8775699999999999  1.0000
  O   O47       1.0  0.5894900000000001  0.1599  0.83  1.0000
  O   O48       1.0  0.4485800000000001  0.34921  0.86571  1.0000
