data_image0
_chemical_formula_structural       Cd4H56C80N12O16
_chemical_formula_sum              "Cd4 H56 C80 N12 O16"
_cell_length_a       11.30502
_cell_length_b       11.30291
_cell_length_c       18.751060000000003
_cell_angle_alpha    93.78664000000002
_cell_angle_beta     93.78319
_cell_angle_gamma    115.24768000000002

_space_group_name_H-M_alt    "P 1"
_space_group_IT_number       1

loop_
  _space_group_symop_operation_xyz
  'x, y, z'

loop_
  _atom_site_type_symbol
  _atom_site_label
  _atom_site_symmetry_multiplicity
  _atom_site_fract_x
  _atom_site_fract_y
  _atom_site_fract_z
  _atom_site_occupancy
  Cd  Cd1       1.0  0.86925  0.63461  0.59265  1.0000
  Cd  Cd2       1.0  0.63482  0.86942  0.0928  1.0000
  Cd  Cd3       1.0  0.36518000000000006  0.13059  0.90721  1.0000
  Cd  Cd4       1.0  0.13074999999999998  0.36538999999999994  0.40736  1.0000
  H   H1        1.0  0.004719999999999979  0.17081999999999997  0.9235399999999999  1.0000
  H   H2        1.0  0.58932  0.43033  0.93808  1.0000
  H   H3        1.0  0.15295  0.07699  0.03977999999999999  1.0000
  H   H4        1.0  0.43033000000000005  0.58932  0.43809999999999993  1.0000
  H   H5        1.0  0.7459900000000002  0.26889  0.87809  1.0000
  H   H6        1.0  0.4115200000000001  0.71532  0.82114  1.0000
  H   H7        1.0  0.4200700000000001  0.23726000000000003  0.46574  1.0000
  H   H8        1.0  0.26613000000000003  0.80457  0.93552  1.0000
  H   H9        1.0  0.1628  0.0594  0.23782  1.0000
  H   H10       1.0  0.61432  0.97135  0.39694  1.0000
  H   H11       1.0  0.9952800000000003  0.82918  0.07646  1.0000
  H   H12       1.0  0.97141  0.61435  0.89692  1.0000
  H   H13       1.0  0.23736000000000002  0.42013  0.96575  1.0000
  H   H14       1.0  0.5714100000000001  0.8551900000000001  0.9235799999999998  1.0000
  H   H15       1.0  0.26892  0.746  0.37813999999999987  1.0000
  H   H16       1.0  0.9231299999999998  0.84708  0.46014999999999995  1.0000
  H   H17       1.0  0.36533  0.8331999999999999  0.70486  1.0000
  H   H18       1.0  0.73387  0.19543  0.06449  1.0000
  H   H19       1.0  0.57993  0.76274  0.53427  1.0000
  H   H20       1.0  0.25401  0.73111  0.12191  1.0000
  H   H21       1.0  0.19541  0.73395  0.56448  1.0000
  H   H22       1.0  0.7294900000000001  0.04954999999999999  0.83717  1.0000
  H   H23       1.0  0.8551400000000001  0.57126  0.4235  1.0000
  H   H24       1.0  0.05933000000000001  0.16281  0.73767  1.0000
  H   H25       1.0  0.8291100000000002  0.99519  0.57651  1.0000
  H   H26       1.0  0.07687000000000002  0.15292  0.53985  1.0000
  H   H27       1.0  0.58848  0.28468  0.17887  1.0000
  H   H28       1.0  0.42859  0.14481  0.07642999999999997  1.0000
  H   H29       1.0  0.16688999999999993  0.6348799999999999  0.7952199999999998  1.0000
  H   H30       1.0  0.58884  0.17944  0.6685  1.0000
  H   H31       1.0  0.41068  0.56967  0.06193  1.0000
  H   H32       1.0  0.8913200000000001  0.29905  0.8365999999999998  1.0000
  H   H33       1.0  0.8470399999999999  0.92301  0.9602299999999998  1.0000
  H   H34       1.0  0.3856800000000001  0.028649999999999985  0.6030599999999999  1.0000
  H   H35       1.0  0.82064  0.41122000000000003  0.83152  1.0000
  H   H36       1.0  0.10868000000000001  0.70095  0.16340999999999994  1.0000
  H   H37       1.0  0.29907999999999996  0.8913499999999999  0.3366  1.0000
  H   H38       1.0  0.8331  0.36512  0.20478  1.0000
  H   H39       1.0  0.8372000000000002  0.9406  0.7621799999999997  1.0000
  H   H40       1.0  0.27051  0.95045  0.16282999999999995  1.0000
  H   H41       1.0  0.76264  0.57987  0.03425  1.0000
  H   H42       1.0  0.2849  0.58868  0.6789399999999999  1.0000
  H   H43       1.0  0.9406699999999999  0.8371999999999999  0.26233  1.0000
  H   H44       1.0  0.7310700000000001  0.25401  0.62186  1.0000
  H   H45       1.0  0.14486  0.42874  0.5765  1.0000
  H   H46       1.0  0.63467  0.16680999999999999  0.29513999999999996  1.0000
  H   H47       1.0  0.04950000000000007  0.72926  0.33729999999999993  1.0000
  H   H48       1.0  0.028590000000000008  0.38565  0.10307999999999998  1.0000
  H   H49       1.0  0.17936  0.58879  0.16848  1.0000
  H   H50       1.0  0.41115  0.82057  0.3315  1.0000
  H   H51       1.0  0.7151  0.41133  0.32107  1.0000
  H   H52       1.0  0.70092  0.10865  0.6634  1.0000
  H   H53       1.0  0.56967  0.41068  0.5619  1.0000
  H   H54       1.0  0.9505000000000001  0.27074  0.6627  1.0000
  H   H55       1.0  0.8045900000000002  0.26606  0.4355299999999999  1.0000
  H   H56       1.0  0.17089000000000001  0.004819999999999996  0.4235  1.0000
  C   C1        1.0  0.75735  0.49693  0.43050999999999995  1.0000
  C   C2        1.0  0.52661  0.79032  0.6753099999999999  1.0000
  C   C3        1.0  0.59385  0.40213000000000004  0.99226  1.0000
  C   C4        1.0  0.6740900000000002  0.9784100000000001  0.7914799999999999  1.0000
  C   C5        1.0  0.8547100000000002  0.46834  0.21683999999999998  1.0000
  C   C6        1.0  0.26625  0.08264  0.25019  1.0000
  C   C7        1.0  0.34672  0.8404  0.3668099999999999  1.0000
  C   C8        1.0  0.14529  0.53166  0.78316  1.0000
  C   C9        1.0  0.9235400000000001  0.13839  0.95679  1.0000
  C   C10       1.0  0.68908  0.48533  0.04629999999999999  1.0000
  C   C11       1.0  0.65328  0.1596  0.6332  1.0000
  C   C12       1.0  0.8404000000000003  0.3467199999999999  0.8668099999999999  1.0000
  C   C13       1.0  0.24667  0.27061  0.84633  1.0000
  C   C14       1.0  0.97842  0.674  0.29153  1.0000
  C   C15       1.0  0.15959999999999996  0.65328  0.13318999999999995  1.0000
  C   C16       1.0  0.9476300000000001  0.54068  0.275  1.0000
  C   C17       1.0  0.48538  0.68918  0.54631  1.0000
  C   C18       1.0  0.59407  0.32055  0.12626  1.0000
  C   C19       1.0  0.016550000000000002  0.43771  0.0584  1.0000
  C   C20       1.0  0.47339000000000003  0.20968000000000003  0.32468999999999987  1.0000
  C   C21       1.0  0.43772000000000005  0.01658  0.55839  1.0000
  C   C22       1.0  0.32591  0.02159  0.20853  1.0000
  C   C23       1.0  0.51462  0.31082  0.45369999999999994  1.0000
  C   C24       1.0  0.45919  0.05238  0.22507  1.0000
  C   C25       1.0  0.01615000000000003  0.84521  0.47571  1.0000
  C   C26       1.0  0.42455  0.92296  0.43456  1.0000
  C   C27       1.0  0.98919  0.52526  0.67978  1.0000
  C   C28       1.0  0.3649200000000001  0.94242  0.49478999999999995  1.0000
  C   C29       1.0  0.5978300000000001  0.40605  0.50773  1.0000
  C   C30       1.0  0.54081  0.94763  0.77494  1.0000
  C   C31       1.0  0.08250999999999999  0.26625999999999994  0.7501399999999999  1.0000
  C   C32       1.0  0.9423600000000001  0.36491  0.99482  1.0000
  C   C33       1.0  0.66098  0.8223  0.69235  1.0000
  C   C34       1.0  0.31092  0.51467  0.9537  1.0000
  C   C35       1.0  0.07706000000000003  0.57547  0.06543  1.0000
  C   C36       1.0  0.3092400000000001  0.55499  0.8845499999999998  1.0000
  C   C37       1.0  0.07646000000000008  0.86162  0.04322  1.0000
  C   C38       1.0  0.27072  0.24698999999999996  0.34626  1.0000
  C   C39       1.0  0.32060999999999995  0.59417  0.62629  1.0000
  C   C40       1.0  0.21663999999999994  0.84763  0.9685999999999999  1.0000
  C   C41       1.0  0.5622800000000001  0.9834200000000001  0.44161999999999996  1.0000
  C   C42       1.0  0.20954000000000003  0.47345000000000004  0.8247  1.0000
  C   C43       1.0  0.01080999999999998  0.47474  0.32021999999999995  1.0000
  C   C44       1.0  0.6907500000000001  0.44501  0.11546  1.0000
  C   C45       1.0  0.13847000000000007  0.92364  0.4567399999999999  1.0000
  C   C46       1.0  0.55493  0.30925  0.38455  1.0000
  C   C47       1.0  0.53151  0.14534999999999998  0.28317999999999993  1.0000
  C   C48       1.0  0.8476  0.21658  0.46863  1.0000
  C   C49       1.0  0.5754500000000001  0.07704  0.56544  1.0000
  C   C50       1.0  0.05763999999999999  0.6351  0.005189999999999999  1.0000
  C   C51       1.0  0.75333  0.72939  0.15367999999999998  1.0000
  C   C52       1.0  0.40615  0.59787  0.00775  1.0000
  C   C53       1.0  0.49705000000000005  0.7573899999999999  0.9305599999999999  1.0000
  C   C54       1.0  0.78336  0.15237  0.0314  1.0000
  C   C55       1.0  0.021579999999999953  0.32601  0.7084699999999998  1.0000
  C   C56       1.0  0.05236000000000006  0.45932  0.72501  1.0000
  C   C57       1.0  0.1524  0.78342  0.5313699999999999  1.0000
  C   C58       1.0  0.5029500000000001  0.24262000000000003  0.06944999999999997  1.0000
  C   C59       1.0  0.92294  0.4245300000000001  0.93457  1.0000
  C   C60       1.0  0.47446000000000005  0.01020999999999999  0.8202599999999999  1.0000
  C   C61       1.0  0.7904600000000002  0.52655  0.17531  1.0000
  C   C62       1.0  0.15483000000000005  0.9839200000000001  0.02424  1.0000
  C   C63       1.0  0.8451699999999999  0.016080000000000004  0.97576  1.0000
  C   C64       1.0  0.17751000000000006  0.33903  0.80765  1.0000
  C   C65       1.0  0.91749  0.73374  0.24987  1.0000
  C   C66       1.0  0.52554  0.98979  0.17975  1.0000
  C   C67       1.0  0.82249  0.66097  0.19234999999999994  1.0000
  C   C68       1.0  0.33902  0.1777  0.30765  1.0000
  C   C69       1.0  0.67939  0.40583  0.3737099999999999  1.0000
  C   C70       1.0  0.73375  0.91736  0.74982  1.0000
  C   C71       1.0  0.98345  0.56229  0.94161  1.0000
  C   C72       1.0  0.40593  0.67945  0.87374  1.0000
  C   C73       1.0  0.24265  0.50308  0.56949  1.0000
  C   C74       1.0  0.4684900000000001  0.85465  0.71682  1.0000
  C   C75       1.0  0.86153  0.07636  0.54327  1.0000
  C   C76       1.0  0.9838500000000002  0.15479  0.5243  1.0000
  C   C77       1.0  0.7292800000000002  0.75302  0.65374  1.0000
  C   C78       1.0  0.63508  0.057589999999999975  0.5052099999999998  1.0000
  C   C79       1.0  0.44507000000000013  0.69076  0.61546  1.0000
  C   C80       1.0  0.40217  0.59395  0.49228  1.0000
  N   N1        1.0  0.2243  0.88348  0.49285  1.0000
  N   N2        1.0  0.49784  0.71798  0.99684  1.0000
  N   N3        1.0  0.75805  0.02581  0.02182  1.0000
  N   N4        1.0  0.88339  0.22426  0.99287  1.0000
  N   N5        1.0  0.11661000000000003  0.77574  0.00713  1.0000
  N   N6        1.0  0.50216  0.28202  0.00316  1.0000
  N   N7        1.0  0.9741400000000002  0.24193000000000003  0.4782299999999999  1.0000
  N   N8        1.0  0.28208  0.50229  0.50321  1.0000
  N   N9        1.0  0.025850000000000005  0.75808  0.5217699999999998  1.0000
  N   N10       1.0  0.7757  0.11652000000000001  0.50716  1.0000
  N   N11       1.0  0.7179200000000001  0.4977100000000001  0.49679  1.0000
  N   N12       1.0  0.24195000000000003  0.9742000000000001  0.9781899999999999  1.0000
  O   O1        1.0  0.17244  0.17671  0.37871  1.0000
  O   O2        1.0  0.017980000000000003  0.64604  0.69626  1.0000
  O   O3        1.0  0.35350999999999994  0.98067  0.8038599999999998  1.0000
  O   O4        1.0  0.9099700000000001  0.45673  0.62473  1.0000
  O   O5        1.0  0.64649  0.019339999999999993  0.19614999999999996  1.0000
  O   O6        1.0  0.9820200000000001  0.35396  0.30374  1.0000
  O   O7        1.0  0.68954  0.63041  0.6568899999999998  1.0000
  O   O8        1.0  0.31045999999999996  0.36959  0.34312  1.0000
  O   O9        1.0  0.8237800000000001  0.82757  0.12123  1.0000
  O   O10       1.0  0.17622  0.17243  0.87877  1.0000
  O   O11       1.0  0.45717  0.91021  0.12481  1.0000
  O   O12       1.0  0.8275600000000001  0.82329  0.6213  1.0000
  O   O13       1.0  0.3692  0.31  0.8430999999999998  1.0000
  O   O14       1.0  0.6308  0.69  0.1569  1.0000
  O   O15       1.0  0.54283  0.08979999999999998  0.8751899999999999  1.0000
  O   O16       1.0  0.09001999999999999  0.54327  0.37527  1.0000
