data_image0
_chemical_formula_structural       Zn8H48C96N16O32
_chemical_formula_sum              "Zn8 H48 C96 N16 O32"
_cell_length_a       19.81214
_cell_length_b       19.811209999999996
_cell_length_c       22.85556
_cell_angle_alpha    102.11392
_cell_angle_beta     101.84210000000002
_cell_angle_gamma    121.81690000000002

_space_group_name_H-M_alt    "P 1"
_space_group_IT_number       1

loop_
  _space_group_symop_operation_xyz
  'x, y, z'

loop_
  _atom_site_type_symbol
  _atom_site_label
  _atom_site_symmetry_multiplicity
  _atom_site_fract_x
  _atom_site_fract_y
  _atom_site_fract_z
  _atom_site_occupancy
  Zn  Zn1       1.0  0.47202999999999995  0.41447999999999985  0.7340099999999999  1.0000
  Zn  Zn2       1.0  0.73061  0.46079999999999993  0.53727  1.0000
  Zn  Zn3       1.0  0.18162  0.73715  0.76569  1.0000
  Zn  Zn4       1.0  0.4217199999999999  0.19293999999999997  0.9619399999999999  1.0000
  Zn  Zn5       1.0  0.52797  0.58552  0.266  1.0000
  Zn  Zn6       1.0  0.2693900000000001  0.53921  0.46274  1.0000
  Zn  Zn7       1.0  0.8183900000000001  0.26286  0.23431999999999994  1.0000
  Zn  Zn8       1.0  0.5782800000000001  0.80707  0.03806  1.0000
  H   H1        1.0  0.4410200000000001  0.49266999999999994  0.63504  1.0000
  H   H2        1.0  0.16736000000000004  0.35405  0.55461  1.0000
  H   H3        1.0  0.15712999999999994  0.2789499999999999  0.6317799999999999  1.0000
  H   H4        1.0  0.16299000000000002  0.23590999999999995  0.70854  1.0000
  H   H5        1.0  0.17860000000000006  0.17459000000000005  0.79183  1.0000
  H   H6        1.0  0.44449000000000005  0.3053299999999999  0.82045  1.0000
  H   H7        1.0  0.61729  0.43321  0.62049  1.0000
  H   H8        1.0  0.40497  0.16602000000000003  0.52836  1.0000
  H   H9        1.0  0.47137000000000007  0.15129  0.44839  1.0000
  H   H10       1.0  0.5336  0.14952  0.3841  1.0000
  H   H11       1.0  0.6233000000000001  0.15906  0.31872  1.0000
  H   H12       1.0  0.80689  0.42765  0.43817  1.0000
  H   H13       1.0  0.35907999999999995  0.80539  0.86523  1.0000
  H   H14       1.0  0.2997700000000001  0.61361  0.94622  1.0000
  H   H15       1.0  0.14716999999999997  0.52521  0.8682  1.0000
  H   H16       1.0  0.025979999999999975  0.45376  0.79092  1.0000
  H   H17       1.0  0.88119  0.38598999999999994  0.7066299999999999  1.0000
  H   H18       1.0  0.9857599999999999  0.62345  0.6786199999999999  1.0000
  H   H19       1.0  0.31080000000000013  0.99533  0.87839  1.0000
  H   H20       1.0  0.13778999999999983  0.8749499999999997  0.9706899999999999  1.0000
  H   H21       1.0  0.20298000000000002  0.022029999999999994  0.050599999999999985  1.0000
  H   H22       1.0  0.2663  0.14930999999999994  0.11531999999999999  1.0000
  H   H23       1.0  0.34116  0.30484  0.18087  1.0000
  H   H24       1.0  0.48816  0.36921  0.06114  1.0000
  H   H25       1.0  0.5589799999999999  0.50733  0.36496  1.0000
  H   H26       1.0  0.83265  0.64596  0.4454  1.0000
  H   H27       1.0  0.84287  0.72106  0.36822999999999995  1.0000
  H   H28       1.0  0.83701  0.76409  0.29147  1.0000
  H   H29       1.0  0.8214000000000001  0.82541  0.20816999999999997  1.0000
  H   H30       1.0  0.55551  0.69468  0.17955999999999997  1.0000
  H   H31       1.0  0.38271  0.5668  0.37951  1.0000
  H   H32       1.0  0.5950299999999998  0.8339799999999999  0.47164  1.0000
  H   H33       1.0  0.5286299999999999  0.8487199999999998  0.55161  1.0000
  H   H34       1.0  0.46641  0.85048  0.6159  1.0000
  H   H35       1.0  0.3767  0.84094  0.68129  1.0000
  H   H36       1.0  0.19310999999999998  0.57236  0.56183  1.0000
  H   H37       1.0  0.6409200000000002  0.19462  0.13477  1.0000
  H   H38       1.0  0.70024  0.3864  0.053779999999999994  1.0000
  H   H39       1.0  0.85283  0.4748  0.13179999999999997  1.0000
  H   H40       1.0  0.9740199999999997  0.54624  0.20909  1.0000
  H   H41       1.0  0.11881000000000001  0.61402  0.29338  1.0000
  H   H42       1.0  0.01424000000000002  0.37656  0.32138  1.0000
  H   H43       1.0  0.68921  0.004679999999999992  0.12160999999999997  1.0000
  H   H44       1.0  0.86221  0.12505  0.02931  1.0000
  H   H45       1.0  0.7970300000000002  0.97797  0.9493999999999999  1.0000
  H   H46       1.0  0.7337000000000001  0.85069  0.88469  1.0000
  H   H47       1.0  0.6588399999999999  0.69516  0.8191299999999998  1.0000
  H   H48       1.0  0.5118499999999999  0.6307999999999999  0.9388599999999998  1.0000
  C   C1        1.0  0.37725  0.44543999999999995  0.63305  1.0000
  C   C2        1.0  0.30495999999999995  0.42910999999999994  0.5889699999999999  1.0000
  C   C3        1.0  0.2246  0.36801  0.58865  1.0000
  C   C4        1.0  0.21926  0.32643  0.63169  1.0000
  C   C5        1.0  0.29449  0.34561  0.67412  1.0000
  C   C6        1.0  0.29664  0.30444  0.721  1.0000
  C   C7        1.0  0.22455000000000003  0.2501  0.73368  1.0000
  C   C8        1.0  0.23268999999999995  0.21579999999999994  0.7796899999999999  1.0000
  C   C9        1.0  0.3125800000000001  0.23537000000000005  0.81203  1.0000
  C   C10       1.0  0.38152  0.28905  0.79637  1.0000
  C   C11       1.0  0.58353  0.37031  0.58254  1.0000
  C   C12       1.0  0.50705  0.30047  0.58079  1.0000
  C   C13       1.0  0.46539  0.22076999999999994  0.531  1.0000
  C   C14       1.0  0.5022199999999999  0.2132399999999999  0.4865599999999999  1.0000
  C   C15       1.0  0.57945  0.28593  0.49157  1.0000
  C   C16       1.0  0.6249  0.28374  0.44799  1.0000
  C   C17       1.0  0.5949  0.2101399999999999  0.3959299999999999  1.0000
  C   C18       1.0  0.64433  0.21522  0.35907  1.0000
  C   C19       1.0  0.72201  0.29412  0.37353  1.0000
  C   C20       1.0  0.74735  0.36489999999999995  0.42572999999999994  1.0000
  C   C21       1.0  0.31747  0.47976  0.54613  1.0000
  C   C22       1.0  0.32468  0.20270999999999995  0.86431  1.0000
  C   C23       1.0  0.4696299999999999  0.3121399999999998  0.6299499999999999  1.0000
  C   C24       1.0  0.7776199999999999  0.30813999999999997  0.33447999999999994  1.0000
  C   C25       1.0  0.31338  0.74384  0.8672  1.0000
  C   C26       1.0  0.34101999999999993  0.7162999999999998  0.91168  1.0000
  C   C27       1.0  0.27982  0.6364  0.91194  1.0000
  C   C28       1.0  0.19489  0.58745  0.86839  1.0000
  C   C29       1.0  0.1718  0.61977  0.82566  1.0000
  C   C30       1.0  0.08351  0.5749  0.7784299999999998  1.0000
  C   C31       1.0  0.015659999999999896  0.49018999999999985  0.7655899999999999  1.0000
  C   C32       1.0  0.9352  0.45232999999999995  0.71922  1.0000
  C   C33       1.0  0.9230099999999998  0.49995999999999996  0.68692  1.0000
  C   C34       1.0  0.9931299999999997  0.5845299999999998  0.7027199999999999  1.0000
  C   C35       1.0  0.28642  0.99963  0.91644  1.0000
  C   C36       1.0  0.2189099999999998  0.9246599999999998  0.9183499999999999  1.0000
  C   C37       1.0  0.18950999999999998  0.9329499999999998  0.9680699999999999  1.0000
  C   C38       1.0  0.2264  0.01461  0.01248  1.0000
  C   C39       1.0  0.29369  0.08708  0.007479999999999999  1.0000
  C   C40       1.0  0.3354  0.17659999999999995  0.05118  1.0000
  C   C41       1.0  0.31455  0.19888  0.10339999999999999  1.0000
  C   C42       1.0  0.35652  0.28549  0.14038  1.0000
  C   C43       1.0  0.42040000000000005  0.34895  0.12597  1.0000
  C   C44       1.0  0.43839  0.32192  0.07361999999999999  1.0000
  C   C45       1.0  0.4350599999999999  0.7722199999999999  0.9545499999999999  1.0000
  C   C46       1.0  0.83786  0.4596199999999998  0.6342299999999998  1.0000
  C   C47       1.0  0.18161999999999986  0.8378499999999997  0.8691999999999999  1.0000
  C   C48       1.0  0.47348  0.44403  0.16521999999999998  1.0000
  C   C49       1.0  0.6227499999999999  0.55457  0.36694999999999994  1.0000
  C   C50       1.0  0.69504  0.5709  0.41103  1.0000
  C   C51       1.0  0.7754100000000002  0.63199  0.41134999999999994  1.0000
  C   C52       1.0  0.78075  0.67358  0.36831  1.0000
  C   C53       1.0  0.7055199999999999  0.6543999999999999  0.32588  1.0000
  C   C54       1.0  0.70337  0.69556  0.279  1.0000
  C   C55       1.0  0.77545  0.74991  0.26632  1.0000
  C   C56       1.0  0.76731  0.78421  0.22031  1.0000
  C   C57       1.0  0.68742  0.7646299999999999  0.18798  1.0000
  C   C58       1.0  0.61849  0.71096  0.20362999999999998  1.0000
  C   C59       1.0  0.41647999999999985  0.6296999999999998  0.41746  1.0000
  C   C60       1.0  0.49295000000000005  0.69954  0.41921  1.0000
  C   C61       1.0  0.53462  0.7792399999999999  0.4689999999999999  1.0000
  C   C62       1.0  0.49777999999999983  0.7867699999999996  0.51344  1.0000
  C   C63       1.0  0.42056000000000004  0.71407  0.50843  1.0000
  C   C64       1.0  0.3751  0.71626  0.55201  1.0000
  C   C65       1.0  0.40511  0.78986  0.60407  1.0000
  C   C66       1.0  0.35567  0.78479  0.64093  1.0000
  C   C67       1.0  0.27798999999999996  0.7058899999999999  0.62647  1.0000
  C   C68       1.0  0.25265000000000004  0.6351  0.57428  1.0000
  C   C69       1.0  0.6825399999999999  0.5202399999999999  0.45387999999999995  1.0000
  C   C70       1.0  0.67532  0.7973  0.13569  1.0000
  C   C71       1.0  0.5303799999999999  0.6878699999999998  0.37005  1.0000
  C   C72       1.0  0.22238  0.69187  0.66552  1.0000
  C   C73       1.0  0.68663  0.25617  0.1328  1.0000
  C   C74       1.0  0.65898  0.28371  0.08832  1.0000
  C   C75       1.0  0.7201799999999999  0.3636099999999999  0.08806999999999998  1.0000
  C   C76       1.0  0.80511  0.41256  0.13161  1.0000
  C   C77       1.0  0.8282  0.38022999999999996  0.17435  1.0000
  C   C78       1.0  0.91649  0.42511  0.22157999999999997  1.0000
  C   C79       1.0  0.9843400000000001  0.50982  0.23440999999999995  1.0000
  C   C80       1.0  0.06481000000000002  0.54768  0.28078999999999993  1.0000
  C   C81       1.0  0.07700000000000001  0.50004  0.31308  1.0000
  C   C82       1.0  0.006869999999999988  0.41548  0.29728  1.0000
  C   C83       1.0  0.71358  0.000369999999999989  0.08355999999999998  1.0000
  C   C84       1.0  0.78109  0.07534  0.08166  1.0000
  C   C85       1.0  0.81049  0.06706  0.03193  1.0000
  C   C86       1.0  0.7735999999999998  0.9853899999999999  0.98753  1.0000
  C   C87       1.0  0.70631  0.91293  0.99252  1.0000
  C   C88       1.0  0.6646099999999999  0.8234099999999996  0.94882  1.0000
  C   C89       1.0  0.6854499999999998  0.80113  0.89661  1.0000
  C   C90       1.0  0.64349  0.71452  0.8596199999999999  1.0000
  C   C91       1.0  0.5796  0.65106  0.87404  1.0000
  C   C92       1.0  0.56162  0.67809  0.92638  1.0000
  C   C93       1.0  0.56495  0.22779  0.04544999999999999  1.0000
  C   C94       1.0  0.16214000000000003  0.54039  0.36577  1.0000
  C   C95       1.0  0.8183900000000001  0.16216  0.1308  1.0000
  C   C96       1.0  0.5265299999999999  0.5559699999999999  0.8347899999999999  1.0000
  N   N1        1.0  0.37178999999999995  0.40463999999999994  0.67367  1.0000
  N   N2        1.0  0.37394  0.32301  0.75271  1.0000
  N   N3        1.0  0.61794  0.3635900000000001  0.53892  1.0000
  N   N4        1.0  0.70094  0.35933999999999994  0.4619599999999999  1.0000
  N   N5        1.0  0.23173  0.69741  0.82618  1.0000
  N   N6        1.0  0.07096999999999991  0.6203999999999998  0.7465199999999999  1.0000
  N   N7        1.0  0.32329999999999987  0.0780499999999999  0.96001  1.0000
  N   N8        1.0  0.39654  0.2389  0.03725  1.0000
  N   N9        1.0  0.62821  0.59537  0.32633  1.0000
  N   N10       1.0  0.62607  0.677  0.24729999999999996  1.0000
  N   N11       1.0  0.38206000000000007  0.63642  0.46109  1.0000
  N   N12       1.0  0.29906  0.64066  0.53804  1.0000
  N   N13       1.0  0.76828  0.30259  0.17382  1.0000
  N   N14       1.0  0.9290300000000001  0.3796  0.25349  1.0000
  N   N15       1.0  0.6766999999999999  0.92196  0.03999  1.0000
  N   N16       1.0  0.6034699999999997  0.7610999999999998  0.96275  1.0000
  O   O1        1.0  0.24703999999999995  0.45247999999999994  0.50027  1.0000
  O   O2        1.0  0.391  0.5430999999999999  0.55746  1.0000
  O   O3        1.0  0.26542999999999994  0.1647199999999999  0.8830499999999999  1.0000
  O   O4        1.0  0.40084000000000003  0.22016999999999995  0.88614  1.0000
  O   O5        1.0  0.39391999999999994  0.25563  0.61996  1.0000
  O   O6        1.0  0.5239099999999998  0.38526999999999983  0.6798499999999998  1.0000
  O   O7        1.0  0.75912  0.23792  0.29411  1.0000
  O   O8        1.0  0.83438  0.38301  0.34224  1.0000
  O   O9        1.0  0.45396  0.74986  0.0016099999999999999  1.0000
  O   O10       1.0  0.48705  0.8326600000000001  0.94189  1.0000
  O   O11       1.0  0.78134  0.38107  0.61423  1.0000
  O   O12       1.0  0.8333799999999999  0.51451  0.6135699999999998  1.0000
  O   O13       1.0  0.13457000000000002  0.7717199999999999  0.87839  1.0000
  O   O14       1.0  0.20577000000000006  0.84267  0.82009  1.0000
  O   O15       1.0  0.44362  0.46565999999999996  0.20548999999999998  1.0000
  O   O16       1.0  0.54045  0.49344000000000005  0.15763  1.0000
  O   O17       1.0  0.75296  0.5475199999999999  0.49973999999999996  1.0000
  O   O18       1.0  0.609  0.45691  0.44254999999999994  1.0000
  O   O19       1.0  0.73458  0.83529  0.11695  1.0000
  O   O20       1.0  0.59917  0.7798299999999998  0.11387  1.0000
  O   O21       1.0  0.6060899999999999  0.7443799999999999  0.38003999999999993  1.0000
  O   O22       1.0  0.47609000000000007  0.61474  0.32015  1.0000
  O   O23       1.0  0.2408799999999999  0.7620899999999999  0.7058999999999999  1.0000
  O   O24       1.0  0.16561999999999993  0.617  0.65777  1.0000
  O   O25       1.0  0.54605  0.25015  0.99839  1.0000
  O   O26       1.0  0.5129499999999999  0.16734999999999994  0.05812  1.0000
  O   O27       1.0  0.2186699999999999  0.6189299999999998  0.38577  1.0000
  O   O28       1.0  0.16661999999999996  0.4855  0.38644  1.0000
  O   O29       1.0  0.86544  0.22828  0.12162  1.0000
  O   O30       1.0  0.7942400000000002  0.15734  0.17991  1.0000
  O   O31       1.0  0.55638  0.53435  0.79451  1.0000
  O   O32       1.0  0.45955  0.50657  0.8423799999999999  1.0000
