data_image0
_chemical_formula_structural       Zn12H96C64N16O32
_chemical_formula_sum              "Zn12 H96 C64 N16 O32"
_cell_length_a       12.53832
_cell_length_b       12.54097
_cell_length_c       21.15408
_cell_angle_alpha    90.05455
_cell_angle_beta     89.97111
_cell_angle_gamma    117.02075

_space_group_name_H-M_alt    "P 1"
_space_group_IT_number       1

loop_
  _space_group_symop_operation_xyz
  'x, y, z'

loop_
  _atom_site_type_symbol
  _atom_site_label
  _atom_site_symmetry_multiplicity
  _atom_site_fract_x
  _atom_site_fract_y
  _atom_site_fract_z
  _atom_site_occupancy
  Zn  Zn1       1.0  0.0743  0.38598  0.8422800000000001  1.0000
  Zn  Zn2       1.0  0.37206  0.16583  0.62631  1.0000
  Zn  Zn3       1.0  0.9261700000000002  0.61388  0.34143  1.0000
  Zn  Zn4       1.0  0.6280999999999999  0.83447  0.12751  1.0000
  Zn  Zn5       1.0  0.61388  0.9261700000000003  0.65857  1.0000
  Zn  Zn6       1.0  0.8344799999999999  0.62809  0.87241  1.0000
  Zn  Zn7       1.0  0.38594  0.07429  0.15768  1.0000
  Zn  Zn8       1.0  0.16576  0.37197  0.37368000000000007  1.0000
  Zn  Zn9       1.0  0.9894399999999998  0.9895000000000002  0.99984  1.0000
  Zn  Zn10      1.0  0.01078  0.01078  0.49999  1.0000
  Zn  Zn11      1.0  0.52989  0.52989  0.50001  1.0000
  Zn  Zn12      1.0  0.47162  0.47122  0.9986400000000001  1.0000
  H   H1        1.0  0.28948  0.25915  0.89101  1.0000
  H   H2        1.0  0.24478999999999998  0.13176  0.84229  1.0000
  H   H3        1.0  0.3707599999999999  0.41024  0.82435  1.0000
  H   H4        1.0  0.29153  0.42902000000000007  0.76007  1.0000
  H   H5        1.0  0.45507999999999993  0.38306  0.71853  1.0000
  H   H6        1.0  0.4022199999999999  0.25362  0.7671100000000001  1.0000
  H   H7        1.0  0.19993  0.08062000000000001  0.74015  1.0000
  H   H8        1.0  0.11965000000000002  0.09714000000000002  0.6747  1.0000
  H   H9        1.0  0.09072  0.25694  0.7328600000000001  1.0000
  H   H10       1.0  0.03854  0.12823  0.78032  1.0000
  H   H11       1.0  0.25928000000000007  0.38822000000000007  0.6653000000000001  1.0000
  H   H12       1.0  0.19261  0.26316  0.61379  1.0000
  H   H13       1.0  0.7013100000000001  0.9297400000000001  0.47937  1.0000
  H   H14       1.0  0.57097  0.88008  0.43146000000000007  1.0000
  H   H15       1.0  0.39719  0.79797  0.53987  1.0000
  H   H16       1.0  0.3894599999999999  0.8892  0.47759000000000007  1.0000
  H   H17       1.0  0.28952  0.91419  0.5753300000000001  1.0000
  H   H18       1.0  0.4208600000000002  0.9417100000000003  0.62045  1.0000
  H   H19       1.0  0.60236  0.12559  0.60547  1.0000
  H   H20       1.0  0.60641  0.23394  0.54864  1.0000
  H   H21       1.0  0.59424  0.09505  0.46098000000000006  1.0000
  H   H22       1.0  0.71071  0.11151000000000001  0.51408  1.0000
  H   H23       1.0  0.3889000000000001  0.054830000000000004  0.46390000000000003  1.0000
  H   H24       1.0  0.43385  0.20326  0.49164  1.0000
  H   H25       1.0  0.71101  0.7414  0.39135  1.0000
  H   H26       1.0  0.7558899999999998  0.86842  0.34259  1.0000
  H   H27       1.0  0.63044  0.58988  0.32487  1.0000
  H   H28       1.0  0.70977  0.57124  0.26048  1.0000
  H   H29       1.0  0.5459  0.6175  0.21926000000000004  1.0000
  H   H30       1.0  0.5995299999999999  0.7469  0.26798  1.0000
  H   H31       1.0  0.8010099999999999  0.9193  0.24112000000000003  1.0000
  H   H32       1.0  0.8814999999999998  0.9034700000000001  0.17557  1.0000
  H   H33       1.0  0.91054  0.7434200000000001  0.23344000000000004  1.0000
  H   H34       1.0  0.9626  0.87212  0.28104  1.0000
  H   H35       1.0  0.74205  0.61214  0.16558  1.0000
  H   H36       1.0  0.8084099999999997  0.73722  0.11422  1.0000
  H   H37       1.0  0.29778999999999994  0.07137  0.98261  1.0000
  H   H38       1.0  0.4263599999999999  0.11973000000000002  0.93338  1.0000
  H   H39       1.0  0.60382  0.20229000000000003  0.04011  1.0000
  H   H40       1.0  0.60921  0.10935  0.9780000000000001  1.0000
  H   H41       1.0  0.7109  0.08585  0.07562  1.0000
  H   H42       1.0  0.58016  0.05931  0.12113  1.0000
  H   H43       1.0  0.39744  0.8742800000000001  0.10621000000000001  1.0000
  H   H44       1.0  0.3936899999999999  0.76629  0.04909  1.0000
  H   H45       1.0  0.40629  0.90633  0.96183  1.0000
  H   H46       1.0  0.28941999999999996  0.8888400000000001  0.01495  1.0000
  H   H47       1.0  0.61138  0.94425  0.96489  1.0000
  H   H48       1.0  0.56661  0.7962600000000002  0.99285  1.0000
  H   H49       1.0  0.7414199999999997  0.71109  0.60851  1.0000
  H   H50       1.0  0.8685199999999998  0.75597  0.65728  1.0000
  H   H51       1.0  0.58998  0.63051  0.67503  1.0000
  H   H52       1.0  0.5713599999999999  0.70987  0.7394000000000001  1.0000
  H   H53       1.0  0.61782  0.54627  0.78069  1.0000
  H   H54       1.0  0.7470999999999999  0.5997100000000001  0.73192  1.0000
  H   H55       1.0  0.9197399999999999  0.8010900000000001  0.75857  1.0000
  H   H56       1.0  0.90425  0.88175  0.82416  1.0000
  H   H57       1.0  0.7437900000000001  0.9106000000000001  0.76653  1.0000
  H   H58       1.0  0.8723  0.96275  0.7188  1.0000
  H   H59       1.0  0.61318  0.74343  0.83403  1.0000
  H   H60       1.0  0.73841  0.80991  0.8853200000000001  1.0000
  H   H61       1.0  0.07129  0.29774  0.01728  1.0000
  H   H62       1.0  0.12148999999999999  0.42681  0.0662  1.0000
  H   H63       1.0  0.20233  0.60385  0.95993  1.0000
  H   H64       1.0  0.10945  0.60921  0.022070000000000003  1.0000
  H   H65       1.0  0.08579999999999995  0.71084  0.92444  1.0000
  H   H66       1.0  0.05921000000000001  0.58007  0.8789400000000002  1.0000
  H   H67       1.0  0.87424  0.3974  0.8938500000000001  1.0000
  H   H68       1.0  0.7662  0.3936  0.9509400000000001  1.0000
  H   H69       1.0  0.9065  0.40639  0.03823  1.0000
  H   H70       1.0  0.8889099999999999  0.28951000000000005  0.9850700000000002  1.0000
  H   H71       1.0  0.94419  0.61146  0.03516  1.0000
  H   H72       1.0  0.79616  0.56671  0.00715  1.0000
  H   H73       1.0  0.2592  0.28928  0.10885000000000002  1.0000
  H   H74       1.0  0.13184  0.24490000000000003  0.15762000000000004  1.0000
  H   H75       1.0  0.41026999999999997  0.37077  0.17567000000000002  1.0000
  H   H76       1.0  0.42908999999999997  0.29158  0.23995000000000002  1.0000
  H   H77       1.0  0.38306  0.45506  0.28152  1.0000
  H   H78       1.0  0.25358  0.40216  0.23289  1.0000
  H   H79       1.0  0.08056  0.19992000000000001  0.25978  1.0000
  H   H80       1.0  0.09712999999999998  0.11969  0.3252  1.0000
  H   H81       1.0  0.2569599999999999  0.09081  0.2671  1.0000
  H   H82       1.0  0.12823  0.0386  0.21957  1.0000
  H   H83       1.0  0.38824  0.25929  0.33469  1.0000
  H   H84       1.0  0.26317  0.19264  0.38616  1.0000
  H   H85       1.0  0.9298799999999998  0.70135  0.52066  1.0000
  H   H86       1.0  0.8802199999999999  0.5710800000000001  0.56856  1.0000
  H   H87       1.0  0.7979199999999997  0.39725  0.46012  1.0000
  H   H88       1.0  0.88921  0.3895100000000001  0.52241  1.0000
  H   H89       1.0  0.91407  0.28951  0.42464000000000013  1.0000
  H   H90       1.0  0.94162  0.42082  0.37955  1.0000
  H   H91       1.0  0.12559  0.60221  0.39456  1.0000
  H   H92       1.0  0.23399000000000006  0.6062600000000001  0.4514000000000001  1.0000
  H   H93       1.0  0.09520999999999999  0.59426  0.53905  1.0000
  H   H94       1.0  0.11163999999999993  0.71065  0.4859500000000001  1.0000
  H   H95       1.0  0.05485000000000001  0.38888000000000006  0.5361  1.0000
  H   H96       1.0  0.20329000000000005  0.4338000000000001  0.50839  1.0000
  C   C1        1.0  0.10715  0.13348  0.90128  1.0000
  C   C2        1.0  0.21728999999999996  0.1987  0.8595400000000001  1.0000
  C   C3        1.0  0.3119199999999999  0.36291  0.7845500000000001  1.0000
  C   C4        1.0  0.37483  0.31223  0.74049  1.0000
  C   C5        1.0  0.17804999999999996  0.14445  0.71463  1.0000
  C   C6        1.0  0.11988  0.19886  0.75906  1.0000
  C   C7        1.0  0.2734  0.31784  0.64165  1.0000
  C   C8        1.0  0.37838  0.37619  0.59556  1.0000
  C   C9        1.0  0.56649  0.7556600000000001  0.50291  1.0000
  C   C10       1.0  0.60269  0.88345  0.48052  1.0000
  C   C11       1.0  0.42913  0.89137  0.52472  1.0000
  C   C12       1.0  0.38747000000000004  0.9526700000000001  0.57396  1.0000
  C   C13       1.0  0.57142  0.138  0.55862  1.0000
  C   C14       1.0  0.61294  0.07526  0.50962  1.0000
  C   C15       1.0  0.38428  0.10774  0.50411  1.0000
  C   C16       1.0  0.25385  0.07854  0.51607  1.0000
  C   C17       1.0  0.8929099999999999  0.86653  0.40231  1.0000
  C   C18       1.0  0.7835299999999997  0.8018  0.36006  1.0000
  C   C19       1.0  0.68933  0.63728  0.28509  1.0000
  C   C20       1.0  0.62644  0.68806  0.24117  1.0000
  C   C21       1.0  0.82304  0.85575  0.21537000000000003  1.0000
  C   C22       1.0  0.8813099999999999  0.8014500000000001  0.25971  1.0000
  C   C23       1.0  0.7276299999999999  0.68241  0.14203  1.0000
  C   C24       1.0  0.6224300000000001  0.6243  0.09582  1.0000
  C   C25       1.0  0.43454  0.24496  0.00517  1.0000
  C   C26       1.0  0.39646  0.11686  0.98277  1.0000
  C   C27       1.0  0.57092  0.10849000000000002  0.02539  1.0000
  C   C28       1.0  0.61297  0.04761  0.07459000000000002  1.0000
  C   C29       1.0  0.4287  0.86214  0.05936000000000001  1.0000
  C   C30       1.0  0.38721  0.92518  0.010610000000000001  1.0000
  C   C31       1.0  0.61602  0.89184  0.00521  1.0000
  C   C32       1.0  0.74643  0.92134  0.017060000000000002  1.0000
  C   C33       1.0  0.8665899999999997  0.89297  0.59762  1.0000
  C   C34       1.0  0.80186  0.7836  0.63982  1.0000
  C   C35       1.0  0.63744  0.68946  0.7148  1.0000
  C   C36       1.0  0.6883299999999999  0.6267200000000002  0.75873  1.0000
  C   C37       1.0  0.85636  0.8232700000000001  0.78438  1.0000
  C   C38       1.0  0.80177  0.88145  0.74015  1.0000
  C   C39       1.0  0.6834  0.72898  0.8576400000000001  1.0000
  C   C40       1.0  0.6251499999999999  0.62442  0.90398  1.0000
  C   C41       1.0  0.24478000000000003  0.43335  0.9936100000000001  1.0000
  C   C42       1.0  0.11732000000000001  0.39638  0.0168  1.0000
  C   C43       1.0  0.10854000000000004  0.5709400000000001  0.97466  1.0000
  C   C44       1.0  0.04755999999999994  0.61293  0.9254800000000002  1.0000
  C   C45       1.0  0.86209  0.42867  0.9407  1.0000
  C   C46       1.0  0.92526  0.38727  0.98944  1.0000
  C   C47       1.0  0.89176  0.61607  0.99481  1.0000
  C   C48       1.0  0.9214  0.74649  0.9829200000000001  1.0000
  C   C49       1.0  0.13338  0.1071  0.09867  1.0000
  C   C50       1.0  0.19870999999999997  0.2173  0.14039  1.0000
  C   C51       1.0  0.36294999999999994  0.31193  0.21546  1.0000
  C   C52       1.0  0.31222999999999995  0.37481  0.25952  1.0000
  C   C53       1.0  0.14443  0.17808  0.2853  1.0000
  C   C54       1.0  0.19886999999999996  0.11994  0.24086000000000002  1.0000
  C   C55       1.0  0.31786  0.27341  0.35833  1.0000
  C   C56       1.0  0.37622  0.37837  0.40445000000000003  1.0000
  C   C57       1.0  0.75572  0.56655  0.49711  1.0000
  C   C58       1.0  0.88356  0.60275  0.5195  1.0000
  C   C59       1.0  0.8913600000000003  0.42916  0.47528  1.0000
  C   C60       1.0  0.9525899999999998  0.38744  0.42603  1.0000
  C   C61       1.0  0.13803000000000004  0.57131  0.44141  1.0000
  C   C62       1.0  0.07535000000000001  0.61291  0.49041  1.0000
  C   C63       1.0  0.10774  0.3842400000000001  0.49589000000000005  1.0000
  C   C64       1.0  0.07853000000000002  0.25383  0.48390000000000005  1.0000
  N   N1        1.0  0.19986999999999996  0.26995  0.8100300000000001  1.0000
  N   N2        1.0  0.2939  0.23854000000000003  0.68785  1.0000
  N   N3        1.0  0.5597999999999999  0.94712  0.523  1.0000
  N   N4        1.0  0.43771  0.08494  0.56264  1.0000
  N   N5        1.0  0.8013299999999999  0.7303700000000001  0.31067  1.0000
  N   N6        1.0  0.70723  0.76169  0.1885  1.0000
  N   N7        1.0  0.4402  0.05312  0.024580000000000005  1.0000
  N   N8        1.0  0.56245  0.91521  0.06354  1.0000
  N   N9        1.0  0.7304900000000001  0.8014300000000001  0.68922  1.0000
  N   N10       1.0  0.76225  0.7077000000000001  0.8113300000000001  1.0000
  N   N11       1.0  0.05317999999999999  0.44025  0.9753800000000001  1.0000
  N   N12       1.0  0.9150999999999999  0.56238  0.9365200000000001  1.0000
  N   N13       1.0  0.26996  0.19990000000000002  0.18993  1.0000
  N   N14       1.0  0.23853000000000002  0.29390000000000005  0.31212  1.0000
  N   N15       1.0  0.94717  0.5598  0.47702  1.0000
  N   N16       1.0  0.08489999999999999  0.43763  0.43738  1.0000
  O   O1        1.0  0.025790000000000007  0.16413  0.9046800000000002  1.0000
  O   O2        1.0  0.11127  0.04638000000000001  0.93324  1.0000
  O   O3        1.0  0.45491  0.33483  0.59282  1.0000
  O   O4        1.0  0.3821300000000001  0.46043000000000006  0.56156  1.0000
  O   O5        1.0  0.55142  0.6794  0.45758  1.0000
  O   O6        1.0  0.55452  0.7293900000000001  0.56022  1.0000
  O   O7        1.0  0.18386  0.051980000000000005  0.46951  1.0000
  O   O8        1.0  0.22251  0.08448  0.57316  1.0000
  O   O9        1.0  0.97127  0.83221  0.40819000000000005  1.0000
  O   O10       1.0  0.8914799999999999  0.9573  0.43202  1.0000
  O   O11       1.0  0.54525  0.66499  0.09428  1.0000
  O   O12       1.0  0.6189700000000001  0.54143  0.06069  1.0000
  O   O13       1.0  0.45305  0.32124  0.9593800000000001  1.0000
  O   O14       1.0  0.44455  0.27083  0.06252  1.0000
  O   O15       1.0  0.81643  0.94833  0.97045  1.0000
  O   O16       1.0  0.77783  0.91538  0.07406  1.0000
  O   O17       1.0  0.8322099999999999  0.9712800000000003  0.59172  1.0000
  O   O18       1.0  0.95744  0.89164  0.56797  1.0000
  O   O19       1.0  0.6646099999999998  0.5463  0.9054500000000001  1.0000
  O   O20       1.0  0.54299  0.62189  0.93936  1.0000
  O   O21       1.0  0.32141999999999993  0.44900000000000007  0.03867  1.0000
  O   O22       1.0  0.27021  0.44526  0.93622  1.0000
  O   O23       1.0  0.9484500000000002  0.8165900000000001  0.0295  1.0000
  O   O24       1.0  0.91551  0.7778  0.92589  1.0000
  O   O25       1.0  0.16406  0.025770000000000005  0.09532000000000002  1.0000
  O   O26       1.0  0.04624000000000001  0.11117000000000002  0.06668  1.0000
  O   O27       1.0  0.33485999999999994  0.45489  0.4072  1.0000
  O   O28       1.0  0.46048000000000006  0.38212000000000007  0.4384600000000001  1.0000
  O   O29       1.0  0.6794699999999999  0.5514500000000001  0.5424300000000001  1.0000
  O   O30       1.0  0.7294  0.55459  0.43979  1.0000
  O   O31       1.0  0.05199000000000001  0.18388000000000002  0.5304600000000002  1.0000
  O   O32       1.0  0.08446  0.22248  0.42680000000000007  1.0000
