data_image0
_chemical_formula_structural       Ag12H32C72O48
_chemical_formula_sum              "Ag12 H32 C72 O48"
_cell_length_a       14.3087
_cell_length_b       15.072349999999998
_cell_length_c       19.043409999999998
_cell_angle_alpha    79.59983
_cell_angle_beta     67.76672000000002
_cell_angle_gamma    61.52968

_space_group_name_H-M_alt    "P 1"
_space_group_IT_number       1

loop_
  _space_group_symop_operation_xyz
  'x, y, z'

loop_
  _atom_site_type_symbol
  _atom_site_label
  _atom_site_symmetry_multiplicity
  _atom_site_fract_x
  _atom_site_fract_y
  _atom_site_fract_z
  _atom_site_occupancy
  Ag  Ag1       1.0  0.8239600000000001  0.6920399999999998  0.8118900000000001  1.0000
  Ag  Ag2       1.0  0.36353  0.80938  0.81276  1.0000
  Ag  Ag3       1.0  0.4844299999999999  0.6925899999999998  0.6887400000000002  1.0000
  Ag  Ag4       1.0  0.8267499999999998  0.8086199999999998  0.68769  1.0000
  Ag  Ag5       1.0  0.17604999999999993  0.30796  0.18811000000000005  1.0000
  Ag  Ag6       1.0  0.63647  0.19061999999999998  0.18724  1.0000
  Ag  Ag7       1.0  0.5155799999999998  0.3074  0.31125  1.0000
  Ag  Ag8       1.0  0.17326000000000003  0.19138  0.3123  1.0000
  Ag  Ag9       1.0  0.6827399999999999  0.6353899999999999  0.75015  1.0000
  Ag  Ag10      1.0  0.56744  0.8648  0.75007  1.0000
  Ag  Ag11      1.0  0.31727  0.3646099999999999  0.24985  1.0000
  Ag  Ag12      1.0  0.4325599999999998  0.13519999999999996  0.24992  1.0000
  H   H1        1.0  0.53585  0.58908  0.20415  1.0000
  H   H2        1.0  0.62595  0.42407999999999996  0.007660000000000001  1.0000
  H   H3        1.0  0.62195  0.71654  0.9820800000000001  1.0000
  H   H4        1.0  0.5618699999999999  0.88087  0.10980000000000002  1.0000
  H   H5        1.0  0.25872  0.91057  0.20442000000000005  1.0000
  H   H6        1.0  0.3658100000000001  0.07611  0.00783  1.0000
  H   H7        1.0  0.3957299999999999  0.7836999999999998  0.9822600000000001  1.0000
  H   H8        1.0  0.32858000000000004  0.61845  0.11007  1.0000
  H   H9        1.0  0.87516  0.58983  0.29617  1.0000
  H   H10       1.0  0.9501399999999999  0.42425999999999997  0.49294000000000004  1.0000
  H   H11       1.0  0.6607299999999998  0.71661  0.51832  1.0000
  H   H12       1.0  0.5565299999999997  0.8810799999999999  0.39001  1.0000
  H   H13       1.0  0.82955  0.9100499999999998  0.29578  1.0000
  H   H14       1.0  0.55742  0.07588  0.49252000000000007  1.0000
  H   H15       1.0  0.82129  0.7835399999999998  0.51806  1.0000
  H   H16       1.0  0.05482000000000006  0.6193499999999998  0.3897800000000001  1.0000
  H   H17       1.0  0.46416000000000013  0.41092  0.79584  1.0000
  H   H18       1.0  0.37405  0.57592  0.99234  1.0000
  H   H19       1.0  0.37806  0.28346  0.01792  1.0000
  H   H20       1.0  0.43812999999999985  0.11912999999999997  0.8902000000000002  1.0000
  H   H21       1.0  0.7412900000000001  0.08943  0.79558  1.0000
  H   H22       1.0  0.6341900000000001  0.9238799999999998  0.9921600000000002  1.0000
  H   H23       1.0  0.60428  0.2163  0.017740000000000006  1.0000
  H   H24       1.0  0.67143  0.38155  0.88993  1.0000
  H   H25       1.0  0.12485000000000007  0.41016999999999987  0.70383  1.0000
  H   H26       1.0  0.049859999999999925  0.5757399999999999  0.5070600000000001  1.0000
  H   H27       1.0  0.33927999999999997  0.28339  0.48167  1.0000
  H   H28       1.0  0.44347999999999976  0.11891999999999998  0.6099900000000003  1.0000
  H   H29       1.0  0.17045999999999994  0.08994999999999999  0.7042200000000001  1.0000
  H   H30       1.0  0.4425799999999999  0.92412  0.50748  1.0000
  H   H31       1.0  0.17872  0.21646  0.48194000000000004  1.0000
  H   H32       1.0  0.94519  0.3806499999999999  0.6102200000000001  1.0000
  C   C1        1.0  0.5797900000000002  0.6608699999999997  0.0966  1.0000
  C   C2        1.0  0.5634099999999999  0.58255  0.1429  1.0000
  C   C3        1.0  0.5818500000000001  0.4970499999999999  0.11028  1.0000
  C   C4        1.0  0.61335  0.4907799999999999  0.03149  1.0000
  C   C5        1.0  0.6273800000000002  0.57004  0.98511  1.0000
  C   C6        1.0  0.6117500000000001  0.6546599999999999  0.017830000000000006  1.0000
  C   C7        1.0  0.55742  0.7516199999999997  0.13385  1.0000
  C   C8        1.0  0.6544900000000001  0.56738  0.90175  1.0000
  C   C9        1.0  0.5706400000000003  0.41099999999999987  0.15937  1.0000
  C   C10       1.0  0.32272000000000023  0.8390399999999998  0.0968  1.0000
  C   C11       1.0  0.29275000000000007  0.9171799999999998  0.14318  1.0000
  C   C12       1.0  0.30727999999999994  0.00269  0.11071000000000003  1.0000
  C   C13       1.0  0.35459999999999997  0.00935  0.031870000000000016  1.0000
  C   C14       1.0  0.38704  0.9302499999999998  0.9854400000000001  1.0000
  C   C15       1.0  0.37000000000000005  0.8454699999999999  0.01806  1.0000
  C   C16       1.0  0.3074500000000001  0.7482799999999998  0.13394000000000006  1.0000
  C   C17       1.0  0.4431399999999999  0.93344  0.90199  1.0000
  C   C18       1.0  0.2696700000000001  0.08831  0.16004  1.0000
  C   C19       1.0  0.7590899999999999  0.6611  0.40372  1.0000
  C   C20       1.0  0.8542599999999999  0.58293  0.35742  1.0000
  C   C21       1.0  0.9216700000000003  0.49739999999999995  0.39008  1.0000
  C   C22       1.0  0.8961  0.4909899999999999  0.46892  1.0000
  C   C23       1.0  0.8024699999999999  0.57028  0.51525  1.0000
  C   C24       1.0  0.7333000000000001  0.6549599999999998  0.48250000000000004  1.0000
  C   C25       1.0  0.6903400000000002  0.7517099999999998  0.3663200000000001  1.0000
  C   C26       1.0  0.7776699999999998  0.56754  0.59864  1.0000
  C   C27       1.0  0.019269999999999995  0.41139999999999993  0.34094  1.0000
  C   C28       1.0  0.8381499999999993  0.8388499999999999  0.40336  1.0000
  C   C29       1.0  0.78931  0.9168599999999999  0.35705  1.0000
  C   C30       1.0  0.68904  0.00242  0.38964  1.0000
  C   C31       1.0  0.63556  0.0091  0.46847000000000005  1.0000
  C   C32       1.0  0.68275  0.92994  0.51481  1.0000
  C   C33       1.0  0.7848099999999998  0.8451399999999998  0.4821500000000001  1.0000
  C   C34       1.0  0.9443  0.74814  0.36603  1.0000
  C   C35       1.0  0.62363  0.9328399999999998  0.5982  1.0000
  C   C36       1.0  0.64038  0.08797999999999997  0.34041  1.0000
  C   C37       1.0  0.4202099999999999  0.33913  0.9034  1.0000
  C   C38       1.0  0.4365899999999998  0.4174499999999999  0.8571000000000002  1.0000
  C   C39       1.0  0.41814999999999997  0.50295  0.88971  1.0000
  C   C40       1.0  0.38666  0.50922  0.96851  1.0000
  C   C41       1.0  0.3726300000000001  0.42996  0.01488  1.0000
  C   C42       1.0  0.38824999999999993  0.34534  0.9821700000000001  1.0000
  C   C43       1.0  0.4425899999999998  0.24837999999999993  0.8661500000000002  1.0000
  C   C44       1.0  0.3455099999999998  0.4326199999999999  0.09825000000000002  1.0000
  C   C45       1.0  0.42936  0.589  0.8406300000000001  1.0000
  C   C46       1.0  0.67729  0.16096  0.9032  1.0000
  C   C47       1.0  0.7072599999999999  0.08282  0.8568200000000002  1.0000
  C   C48       1.0  0.6927199999999999  0.9973099999999998  0.8892800000000001  1.0000
  C   C49       1.0  0.6454099999999997  0.99064  0.9681300000000002  1.0000
  C   C50       1.0  0.6129699999999999  0.06975  0.014560000000000002  1.0000
  C   C51       1.0  0.6300099999999998  0.15453  0.9819300000000001  1.0000
  C   C52       1.0  0.6925499999999998  0.25171999999999994  0.8660500000000002  1.0000
  C   C53       1.0  0.55687  0.06656  0.09801  1.0000
  C   C54       1.0  0.7303299999999998  0.91169  0.83996  1.0000
  C   C55       1.0  0.2409199999999998  0.3389  0.5962800000000003  1.0000
  C   C56       1.0  0.14575000000000002  0.41706999999999994  0.64258  1.0000
  C   C57       1.0  0.07832999999999993  0.5025999999999999  0.6099200000000002  1.0000
  C   C58       1.0  0.10390999999999984  0.50901  0.5310800000000002  1.0000
  C   C59       1.0  0.19753999999999994  0.4297199999999999  0.48475000000000007  1.0000
  C   C60       1.0  0.2666999999999999  0.34503999999999996  0.5175000000000002  1.0000
  C   C61       1.0  0.30966000000000005  0.24828999999999996  0.63368  1.0000
  C   C62       1.0  0.22233999999999998  0.43246  0.40136000000000005  1.0000
  C   C63       1.0  0.9807399999999998  0.5886  0.65906  1.0000
  C   C64       1.0  0.16185999999999998  0.16115  0.5966400000000001  1.0000
  C   C65       1.0  0.21069999999999997  0.08313  0.64295  1.0000
  C   C66       1.0  0.3109700000000003  0.9975799999999998  0.61036  1.0000
  C   C67       1.0  0.36445  0.9909  0.53152  1.0000
  C   C68       1.0  0.3172600000000002  0.07005999999999998  0.48519  1.0000
  C   C69       1.0  0.21519  0.15485999999999997  0.51785  1.0000
  C   C70       1.0  0.05570999999999999  0.2518599999999999  0.63396  1.0000
  C   C71       1.0  0.3763699999999999  0.06716  0.4018  1.0000
  C   C72       1.0  0.35962999999999956  0.91202  0.65959  1.0000
  O   O1        1.0  0.5181400000000002  0.76348  0.20272  1.0000
  O   O2        1.0  0.58346  0.81843  0.08335  1.0000
  O   O3        1.0  0.6606600000000001  0.49942999999999993  0.86814  1.0000
  O   O4        1.0  0.6678099999999999  0.6446199999999999  0.86378  1.0000
  O   O5        1.0  0.5285800000000002  0.4252899999999999  0.23110000000000003  1.0000
  O   O6        1.0  0.6063000000000001  0.32918999999999987  0.12517  1.0000
  O   O7        1.0  0.27727999999999997  0.73655  0.20281  1.0000
  O   O8        1.0  0.33274000000000004  0.6811399999999999  0.08348000000000001  1.0000
  O   O9        1.0  0.4687700000000001  0.002489999999999999  0.86831  1.0000
  O   O10       1.0  0.46927  0.85561  0.86412  1.0000
  O   O11       1.0  0.23898000000000003  0.07405999999999999  0.23177  1.0000
  O   O12       1.0  0.26954999999999996  0.16988  0.12584  1.0000
  O   O13       1.0  0.7176400000000003  0.7635099999999998  0.2974500000000001  1.0000
  O   O14       1.0  0.59718  0.81863  0.41669  1.0000
  O   O15       1.0  0.83838  0.4981899999999999  0.63236  1.0000
  O   O16       1.0  0.68831  0.64596  0.63636  1.0000
  O   O17       1.0  0.046  0.42563  0.26923  1.0000
  O   O18       1.0  0.06677000000000005  0.3296999999999999  0.37492  1.0000
  O   O19       1.0  0.9849700000000001  0.7355499999999999  0.29723  1.0000
  O   O20       1.0  0.98788  0.68212  0.4163800000000001  1.0000
  O   O21       1.0  0.52884  0.00199  0.63199  1.0000
  O   O22       1.0  0.6753299999999999  0.8546  0.6359400000000002  1.0000
  O   O23       1.0  0.6856099999999998  0.07331  0.26873  1.0000
  O   O24       1.0  0.5583899999999998  0.16965  0.37434  1.0000
  O   O25       1.0  0.48185999999999996  0.23652  0.79728  1.0000
  O   O26       1.0  0.41655000000000003  0.18157  0.91665  1.0000
  O   O27       1.0  0.33935  0.50057  0.13186  1.0000
  O   O28       1.0  0.33219999999999994  0.35536999999999996  0.13621000000000005  1.0000
  O   O29       1.0  0.47142000000000017  0.57471  0.7689  1.0000
  O   O30       1.0  0.39371  0.6708099999999999  0.87482  1.0000
  O   O31       1.0  0.72272  0.26345  0.79718  1.0000
  O   O32       1.0  0.6672599999999996  0.31885999999999987  0.91651  1.0000
  O   O33       1.0  0.5312400000000002  0.9975099999999998  0.13168000000000005  1.0000
  O   O34       1.0  0.5307399999999999  0.14439  0.13587000000000002  1.0000
  O   O35       1.0  0.7610300000000001  0.9259399999999998  0.76822  1.0000
  O   O36       1.0  0.7304500000000002  0.8301199999999997  0.87416  1.0000
  O   O37       1.0  0.28236999999999995  0.23649  0.7025500000000002  1.0000
  O   O38       1.0  0.40282999999999997  0.18137  0.58331  1.0000
  O   O39       1.0  0.16163  0.5018  0.36764  1.0000
  O   O40       1.0  0.31170000000000014  0.3540399999999999  0.36364  1.0000
  O   O41       1.0  0.9539999999999998  0.57437  0.73077  1.0000
  O   O42       1.0  0.9332400000000001  0.6703  0.6250700000000002  1.0000
  O   O43       1.0  0.015040000000000008  0.26445  0.70277  1.0000
  O   O44       1.0  0.01212000000000004  0.31787999999999994  0.58361  1.0000
  O   O45       1.0  0.47115999999999997  0.998  0.36800000000000005  1.0000
  O   O46       1.0  0.32467999999999997  0.14539999999999997  0.3640600000000001  1.0000
  O   O47       1.0  0.31439999999999996  0.92669  0.7312600000000002  1.0000
  O   O48       1.0  0.4416200000000002  0.8303499999999999  0.62565  1.0000
