data_image0
_chemical_formula_structural       Mg12H24C72S12O48
_chemical_formula_sum              "Mg12 H24 C72 S12 O48"
_cell_length_a       9.83825
_cell_length_b       17.818669999999997
_cell_length_c       21.78814
_cell_angle_alpha    102.36135
_cell_angle_beta     89.99495
_cell_angle_gamma    90.00359

_symmetry_space_group_name_H-M    'P 1'
_symmetry_Int_Tables_number       1

loop_
  _symmetry_equiv_pos_as_xyz
  'x,y,z'

loop_
  _atom_site_type_symbol
  _atom_site_label
  _atom_site_symmetry_multiplicity
  _atom_site_fract_x
  _atom_site_fract_y
  _atom_site_fract_z
  _atom_site_occupancy
  Mg  Mg1       1.0  0.10070000000000001  0.21879  0.7075  1.0000
  Mg  Mg2       1.0  0.77195  0.7744600000000001  0.93019  1.0000
  Mg  Mg3       1.0  0.06196  0.28726  0.86554  1.0000
  Mg  Mg4       1.0  0.6007  0.7811699999999999  0.7925  1.0000
  Mg  Mg5       1.0  0.27185  0.22552000000000003  0.56971  1.0000
  Mg  Mg6       1.0  0.56196  0.71273  0.63442  1.0000
  Mg  Mg7       1.0  0.89931  0.78121  0.2925  1.0000
  Mg  Mg8       1.0  0.22806  0.22554  0.06981  1.0000
  Mg  Mg9       1.0  0.93804  0.71274  0.13446  1.0000
  Mg  Mg10      1.0  0.3993  0.21883  0.20749999999999996  1.0000
  Mg  Mg11      1.0  0.72816  0.7744900000000001  0.4302899999999999  1.0000
  Mg  Mg12      1.0  0.43804  0.28727  0.36558  1.0000
  H   H1        1.0  0.01148  0.9942300000000001  0.9398099999999999  1.0000
  H   H2        1.0  0.10657  0.11543999999999992  0.9005899999999998  1.0000
  H   H3        1.0  0.7566  0.5590200000000001  0.68652  1.0000
  H   H4        1.0  0.8417000000000001  0.41399000000000014  0.67241  1.0000
  H   H5        1.0  0.54947  0.22024  0.61207  1.0000
  H   H6        1.0  0.8015  0.21089000000000002  0.65158  1.0000
  H   H7        1.0  0.51154  0.005619999999999978  0.5600599999999999  1.0000
  H   H8        1.0  0.60665  0.8845400000000001  0.59945  1.0000
  H   H9        1.0  0.25658  0.44088999999999995  0.8134199999999998  1.0000
  H   H10       1.0  0.34169  0.5859  0.82755  1.0000
  H   H11       1.0  0.04948000000000001  0.77976  0.88794  1.0000
  H   H12       1.0  0.30153  0.78914  0.84844  1.0000
  H   H13       1.0  0.9885200000000001  0.005769999999999997  0.060189999999999994  1.0000
  H   H14       1.0  0.89344  0.8845700000000001  0.09940999999999998  1.0000
  H   H15       1.0  0.24341  0.44099  0.3134799999999999  1.0000
  H   H16       1.0  0.15831  0.58601  0.32758999999999994  1.0000
  H   H17       1.0  0.45054000000000005  0.77976  0.38792999999999994  1.0000
  H   H18       1.0  0.19851000000000002  0.7891200000000003  0.34843  1.0000
  H   H19       1.0  0.48847  0.99438  0.43994  1.0000
  H   H20       1.0  0.39336  0.11546  0.40055  1.0000
  H   H21       1.0  0.74343  0.5591100000000002  0.18657999999999997  1.0000
  H   H22       1.0  0.65832  0.4141  0.17245  1.0000
  H   H23       1.0  0.9505300000000001  0.22024  0.11205999999999999  1.0000
  H   H24       1.0  0.69847  0.21087  0.15156  1.0000
  C   C1        1.0  0.01719  0.23638999999999993  0.5678999999999998  1.0000
  C   C2        1.0  0.51635  0.2578  0.4882  1.0000
  C   C3        1.0  0.98126  0.011490000000000004  0.89692  1.0000
  C   C4        1.0  0.8141500000000002  0.89899  0.86069  1.0000
  C   C5        1.0  0.00482  0.13851000000000002  0.78131  1.0000
  C   C6        1.0  0.80808  0.66102  0.8074999999999999  1.0000
  C   C7        1.0  0.86911  0.241  0.56444  1.0000
  C   C8        1.0  0.8451100000000001  0.5804499999999999  0.7802199999999998  1.0000
  C   C9        1.0  0.97766  0.37431000000000003  0.7784999999999999  1.0000
  C   C10       1.0  0.88709  0.97003  0.8555599999999999  1.0000
  C   C11       1.0  0.92233  0.44653999999999994  0.76738  1.0000
  C   C12       1.0  0.97415  0.08193  0.81859  1.0000
  C   C13       1.0  0.6344  0.2506700000000001  0.52781  1.0000
  C   C14       1.0  0.03125  0.07559000000000002  0.87586  1.0000
  C   C15       1.0  0.8131600000000001  0.53613  0.7212199999999999  1.0000
  C   C16       1.0  0.85706  0.45943  0.7138799999999998  1.0000
  C   C17       1.0  0.63939  0.23083000000000004  0.58625  1.0000
  C   C18       1.0  0.7736100000000001  0.22580000000000003  0.60742  1.0000
  C   C19       1.0  0.51721  0.7636000000000001  0.9320799999999999  1.0000
  C   C20       1.0  0.01631  0.74221  0.01181  1.0000
  C   C21       1.0  0.4812100000000001  0.9884300000000001  0.60298  1.0000
  C   C22       1.0  0.31421000000000004  0.10102999999999997  0.63933  1.0000
  C   C23       1.0  0.50481  0.8615000000000003  0.71866  1.0000
  C   C24       1.0  0.30811  0.33883  0.69251  1.0000
  C   C25       1.0  0.36912  0.75901  0.9355599999999998  1.0000
  C   C26       1.0  0.34506000000000003  0.4194399999999999  0.7196899999999999  1.0000
  C   C27       1.0  0.47766000000000003  0.62565  0.72148  1.0000
  C   C28       1.0  0.38702  0.029909999999999985  0.6443499999999999  1.0000
  C   C29       1.0  0.4223100000000001  0.5534  0.73257  1.0000
  C   C30       1.0  0.47412000000000004  0.9180700000000002  0.68138  1.0000
  C   C31       1.0  0.13438  0.7493499999999998  0.9721999999999997  1.0000
  C   C32       1.0  0.53124  0.9243900000000002  0.6241  1.0000
  C   C33       1.0  0.31312  0.46377  0.7787  1.0000
  C   C34       1.0  0.35703  0.54048  0.78606  1.0000
  C   C35       1.0  0.13939  0.7691799999999999  0.9137599999999999  1.0000
  C   C36       1.0  0.27362  0.77421  0.8925899999999999  1.0000
  C   C37       1.0  0.9828200000000001  0.76361  0.4321  1.0000
  C   C38       1.0  0.48366000000000003  0.7422000000000003  0.5118  1.0000
  C   C39       1.0  0.01875  0.98851  0.10307999999999999  1.0000
  C   C40       1.0  0.18586  0.10101  0.13930999999999996  1.0000
  C   C41       1.0  0.99519  0.8615000000000003  0.21868999999999997  1.0000
  C   C42       1.0  0.19193000000000002  0.33899  0.1925  1.0000
  C   C43       1.0  0.1309  0.759  0.43555999999999995  1.0000
  C   C44       1.0  0.1549  0.41955  0.21977999999999998  1.0000
  C   C45       1.0  0.02235  0.62569  0.2215  1.0000
  C   C46       1.0  0.11292000000000002  0.02997  0.14444  1.0000
  C   C47       1.0  0.07768  0.55346  0.23261999999999997  1.0000
  C   C48       1.0  0.02586  0.9180700000000002  0.18141  1.0000
  C   C49       1.0  0.36561000000000005  0.74934  0.47219  1.0000
  C   C50       1.0  0.9687600000000001  0.9244099999999998  0.12414  1.0000
  C   C51       1.0  0.18685  0.46387  0.27878  1.0000
  C   C52       1.0  0.14295  0.54058  0.28612  1.0000
  C   C53       1.0  0.36062  0.7691700000000002  0.41375  1.0000
  C   C54       1.0  0.22639  0.7742  0.39258  1.0000
  C   C55       1.0  0.48279000000000005  0.2364  0.06792  1.0000
  C   C56       1.0  0.9837  0.2578  0.9881899999999999  1.0000
  C   C57       1.0  0.5188  0.01156999999999999  0.39701999999999993  1.0000
  C   C58       1.0  0.6858  0.89898  0.36067  1.0000
  C   C59       1.0  0.4952  0.1385  0.28134  1.0000
  C   C60       1.0  0.69189  0.66118  0.30749999999999994  1.0000
  C   C61       1.0  0.63089  0.24099000000000004  0.06444  1.0000
  C   C62       1.0  0.65494  0.58056  0.28031  1.0000
  C   C63       1.0  0.52235  0.37435  0.27852  1.0000
  C   C64       1.0  0.61299  0.9700900000000001  0.35564999999999997  1.0000
  C   C65       1.0  0.57769  0.44661  0.26743  1.0000
  C   C66       1.0  0.52589  0.08193  0.31862  1.0000
  C   C67       1.0  0.8656300000000001  0.25065000000000004  0.027799999999999995  1.0000
  C   C68       1.0  0.4687700000000001  0.07562000000000002  0.37589999999999996  1.0000
  C   C69       1.0  0.68689  0.53623  0.22130999999999995  1.0000
  C   C70       1.0  0.64298  0.45952  0.21394  1.0000
  C   C71       1.0  0.86062  0.23082000000000003  0.08624  1.0000
  C   C72       1.0  0.72639  0.22579000000000002  0.10741  1.0000
  S   S1        1.0  0.85967  0.008919999999999963  0.7907399999999999  1.0000
  S   S2        1.0  0.9286800000000001  0.52812  0.82656  1.0000
  S   S3        1.0  0.79463  0.26331  0.49902999999999986  1.0000
  S   S4        1.0  0.35954  0.99102  0.7091699999999999  1.0000
  S   S5        1.0  0.42868  0.47182  0.67338  1.0000
  S   S6        1.0  0.2946  0.7367000000000001  0.0009699999999999999  1.0000
  S   S7        1.0  0.14034  0.99108  0.20925999999999997  1.0000
  S   S8        1.0  0.07133  0.47189000000000003  0.17344  1.0000
  S   S9        1.0  0.20538000000000003  0.7366900000000002  0.50097  1.0000
  S   S10       1.0  0.64047  0.008980000000000002  0.29083  1.0000
  S   S11       1.0  0.57133  0.52819  0.32663  1.0000
  S   S12       1.0  0.7054000000000001  0.2633  0.99903  1.0000
  O   O1        1.0  0.09335  0.1939599999999999  0.8039799999999998  1.0000
  O   O2        1.0  0.8397900000000001  0.87144  0.90929  1.0000
  O   O3        1.0  0.96709  0.31323  0.73668  1.0000
  O   O4        1.0  0.75235  0.7004400000000001  0.77225  1.0000
  O   O5        1.0  0.03347  0.37833000000000006  0.83345  1.0000
  O   O6        1.0  0.9545400000000002  0.13586999999999996  0.7278199999999999  1.0000
  O   O7        1.0  0.73386  0.8712299999999998  0.8160499999999998  1.0000
  O   O8        1.0  0.8336900000000002  0.6849000000000003  0.86628  1.0000
  O   O9        1.0  0.3988900000000001  0.23515999999999998  0.4998399999999999  1.0000
  O   O10       1.0  0.54091  0.28633  0.43959  1.0000
  O   O11       1.0  0.07336  0.21627  0.6155499999999999  1.0000
  O   O12       1.0  0.09282  0.24977000000000002  0.524  1.0000
  O   O13       1.0  0.59333  0.80604  0.69597  1.0000
  O   O14       1.0  0.33999  0.12866999999999998  0.5908199999999999  1.0000
  O   O15       1.0  0.4671  0.68671  0.7633199999999999  1.0000
  O   O16       1.0  0.25225  0.29954  0.72785  1.0000
  O   O17       1.0  0.5334800000000001  0.6216700000000001  0.6665299999999998  1.0000
  O   O18       1.0  0.45457  0.8641300000000001  0.7721599999999998  1.0000
  O   O19       1.0  0.23375000000000004  0.12869  0.68399  1.0000
  O   O20       1.0  0.33383  0.31479  0.6337699999999998  1.0000
  O   O21       1.0  0.8988400000000001  0.7648200000000003  0.00014  1.0000
  O   O22       1.0  0.04086  0.71371  0.06043  1.0000
  O   O23       1.0  0.57339  0.78372  0.8844299999999999  1.0000
  O   O24       1.0  0.59284  0.7502300000000002  0.97599  1.0000
  O   O25       1.0  0.90666  0.80604  0.19601999999999997  1.0000
  O   O26       1.0  0.16022000000000003  0.12857000000000005  0.09071  1.0000
  O   O27       1.0  0.03291  0.68677  0.26332  1.0000
  O   O28       1.0  0.24766000000000002  0.29957  0.22776  1.0000
  O   O29       1.0  0.9665400000000001  0.6216700000000001  0.16655  1.0000
  O   O30       1.0  0.04546  0.8641400000000002  0.27218  1.0000
  O   O31       1.0  0.26615000000000005  0.12877  0.18395  1.0000
  O   O32       1.0  0.16632  0.3151  0.13372  1.0000
  O   O33       1.0  0.60112  0.76484  0.50016  1.0000
  O   O34       1.0  0.4591  0.71367  0.56041  1.0000
  O   O35       1.0  0.92665  0.7837400000000002  0.38444999999999996  1.0000
  O   O36       1.0  0.9071800000000001  0.7502300000000001  0.4759999999999999  1.0000
  O   O37       1.0  0.40668  0.19396  0.30403  1.0000
  O   O38       1.0  0.66002  0.87133  0.40918  1.0000
  O   O39       1.0  0.53291  0.31329000000000007  0.23667999999999995  1.0000
  O   O40       1.0  0.74776  0.7004600000000001  0.27215  1.0000
  O   O41       1.0  0.46653  0.37833000000000006  0.33347  1.0000
  O   O42       1.0  0.54544  0.13588  0.22784  1.0000
  O   O43       1.0  0.76626  0.87131  0.31601  1.0000
  O   O44       1.0  0.6661700000000002  0.68522  0.36623  1.0000
  O   O45       1.0  0.10117  0.23517999999999997  0.9998599999999999  1.0000
  O   O46       1.0  0.9591500000000001  0.2862900000000001  0.9395699999999998  1.0000
  O   O47       1.0  0.42662000000000005  0.21628000000000003  0.11556999999999998  1.0000
  O   O48       1.0  0.40716  0.24977000000000002  0.02401  1.0000
