data_image0
_chemical_formula_structural       Mg8H48C64N20O44
_chemical_formula_sum              "Mg8 H48 C64 N20 O44"
_cell_length_a       12.69204
_cell_length_b       15.676570000000002
_cell_length_c       16.75203
_cell_angle_alpha    90.01102000000002
_cell_angle_beta     89.96169
_cell_angle_gamma    90.10766999999998

_symmetry_space_group_name_H-M    'P 1'
_symmetry_Int_Tables_number       1

loop_
  _symmetry_equiv_pos_as_xyz
  'x,y,z'

loop_
  _atom_site_type_symbol
  _atom_site_label
  _atom_site_symmetry_multiplicity
  _atom_site_fract_x
  _atom_site_fract_y
  _atom_site_fract_z
  _atom_site_occupancy
  Mg  Mg1       1.0  0.25003  0.50001  0.38204  1.0000
  Mg  Mg2       1.0  0.7498600000000001  6e-05  0.11745  1.0000
  Mg  Mg3       1.0  0.74997  0.49999  0.61796  1.0000
  Mg  Mg4       1.0  0.25014  0.99994  0.88255  1.0000
  Mg  Mg5       1.0  0.5  0.5  0.5  1.0000
  Mg  Mg6       1.0  0.0  0.0  0.0  1.0000
  Mg  Mg7       1.0  0.0  0.5  0.5  1.0000
  Mg  Mg8       1.0  0.5  0.0  0.0  1.0000
  H   H1        1.0  0.65781  0.78737  0.42414  1.0000
  H   H2        1.0  0.59379  0.69004  0.43593000000000004  1.0000
  H   H3        1.0  0.64513  0.8583  0.28923  1.0000
  H   H4        1.0  0.3118  0.6970500000000002  0.26172  1.0000
  H   H5        1.0  0.37405  0.85486  0.1068  1.0000
  H   H6        1.0  0.27188  0.78911  0.14343  1.0000
  H   H7        1.0  0.15753  0.71523  0.07542000000000001  1.0000
  H   H8        1.0  0.09356  0.81258  0.06435  1.0000
  H   H9        1.0  0.14506000000000002  0.64282  0.20881000000000005  1.0000
  H   H10       1.0  0.8113  0.80216  0.23981  1.0000
  H   H11       1.0  0.87527  0.6430500000000002  0.3925500000000001  1.0000
  H   H12       1.0  0.77276  0.70964  0.35733  1.0000
  H   H13       1.0  0.8412400000000002  0.21408  0.42404  1.0000
  H   H14       1.0  0.9066600000000002  0.31094  0.43612  1.0000
  H   H15       1.0  0.85435  0.14208  0.29061  1.0000
  H   H16       1.0  0.18864000000000003  0.3016  0.2609700000000001  1.0000
  H   H17       1.0  0.12418  0.14413  0.10654  1.0000
  H   H18       1.0  0.22684  0.20982  0.14267  1.0000
  H   H19       1.0  0.34186  0.28431  0.07399  1.0000
  H   H20       1.0  0.40588  0.18689  0.06368  1.0000
  H   H21       1.0  0.35375  0.35718  0.20781  1.0000
  H   H22       1.0  0.6871800000000001  0.19751  0.23907  1.0000
  H   H23       1.0  0.62324  0.35664  0.39201  1.0000
  H   H24       1.0  0.7263  0.29134  0.3558900000000001  1.0000
  H   H25       1.0  0.34219  0.21263  0.57585  1.0000
  H   H26       1.0  0.4062  0.30996  0.5640700000000002  1.0000
  H   H27       1.0  0.35487  0.1417  0.71077  1.0000
  H   H28       1.0  0.6882000000000001  0.30295  0.7382700000000001  1.0000
  H   H29       1.0  0.62595  0.14514000000000005  0.8932  1.0000
  H   H30       1.0  0.72811  0.21089  0.85657  1.0000
  H   H31       1.0  0.8424700000000002  0.28477  0.92458  1.0000
  H   H32       1.0  0.9064300000000001  0.18742  0.9356500000000002  1.0000
  H   H33       1.0  0.8549400000000003  0.35718  0.7911900000000001  1.0000
  H   H34       1.0  0.18870000000000006  0.19784  0.7601900000000003  1.0000
  H   H35       1.0  0.12472000000000003  0.35695  0.60745  1.0000
  H   H36       1.0  0.22724  0.29036  0.64266  1.0000
  H   H37       1.0  0.15876000000000004  0.78592  0.57596  1.0000
  H   H38       1.0  0.09333000000000001  0.6890600000000002  0.56388  1.0000
  H   H39       1.0  0.14565  0.85792  0.70938  1.0000
  H   H40       1.0  0.81136  0.6984  0.73902  1.0000
  H   H41       1.0  0.87582  0.85587  0.8934600000000003  1.0000
  H   H42       1.0  0.7731500000000002  0.79018  0.8573300000000003  1.0000
  H   H43       1.0  0.65813  0.71569  0.9260100000000002  1.0000
  H   H44       1.0  0.59411  0.81311  0.93632  1.0000
  H   H45       1.0  0.6462400000000001  0.64282  0.79218  1.0000
  H   H46       1.0  0.31281  0.80249  0.76093  1.0000
  H   H47       1.0  0.37675  0.64336  0.60799  1.0000
  H   H48       1.0  0.2737  0.70867  0.6441100000000002  1.0000
  C   C1        1.0  0.54556  0.90897  0.16216000000000005  1.0000
  C   C2        1.0  0.41716  0.64167  0.3854200000000001  1.0000
  C   C3        1.0  0.4517000000000001  0.71169  0.32977  1.0000
  C   C4        1.0  0.54872  0.75698  0.33864  1.0000
  C   C5        1.0  0.57232  0.82207  0.28359  1.0000
  C   C6        1.0  0.50811  0.84131  0.21885  1.0000
  C   C7        1.0  0.41213  0.79411  0.20826  1.0000
  C   C8        1.0  0.3857  0.73201  0.26642  1.0000
  C   C9        1.0  0.047520000000000014  0.5918200000000002  0.33701  1.0000
  C   C10       1.0  0.91544  0.85889  0.11501  1.0000
  C   C11       1.0  0.9505700000000002  0.78892  0.17043  1.0000
  C   C12       1.0  0.04777000000000001  0.74414  0.16078  1.0000
  C   C13       1.0  0.07218  0.6786900000000002  0.21522  1.0000
  C   C14       1.0  0.00877  0.65882  0.28030000000000005  1.0000
  C   C15       1.0  0.9125000000000002  0.70524  0.29157  1.0000
  C   C16       1.0  0.88533  0.7677900000000002  0.23409  1.0000
  C   C17       1.0  0.95269  0.09069  0.16343000000000005  1.0000
  C   C18       1.0  0.08465  0.35796  0.3853  1.0000
  C   C19       1.0  0.04923000000000001  0.28795  0.3299  1.0000
  C   C20       1.0  0.95167  0.24336  0.33916  1.0000
  C   C21       1.0  0.9273200000000003  0.17808  0.28453  1.0000
  C   C22       1.0  0.9911200000000002  0.15824000000000005  0.21971  1.0000
  C   C23       1.0  0.08717000000000001  0.20507  0.20827000000000007  1.0000
  C   C24       1.0  0.1145  0.26714  0.26621  1.0000
  C   C25       1.0  0.45105  0.40809  0.33641  1.0000
  C   C26       1.0  0.58276  0.14062000000000005  0.11478  1.0000
  C   C27       1.0  0.5479  0.21088  0.16989  1.0000
  C   C28       1.0  0.45085  0.25568  0.16008000000000006  1.0000
  C   C29       1.0  0.42640000000000006  0.32114  0.21453  1.0000
  C   C30       1.0  0.4897800000000001  0.34104  0.27963  1.0000
  C   C31       1.0  0.5860900000000001  0.29468  0.2908600000000001  1.0000
  C   C32       1.0  0.61321  0.23201000000000005  0.23347  1.0000
  C   C33       1.0  0.45444000000000007  0.09104  0.83784  1.0000
  C   C34       1.0  0.58284  0.35833  0.6145800000000002  1.0000
  C   C35       1.0  0.54829  0.2883100000000001  0.67023  1.0000
  C   C36       1.0  0.45128  0.24302000000000007  0.6613600000000001  1.0000
  C   C37       1.0  0.42768000000000006  0.17793  0.71641  1.0000
  C   C38       1.0  0.49189  0.15870000000000006  0.78115  1.0000
  C   C39       1.0  0.58786  0.20589  0.79174  1.0000
  C   C40       1.0  0.6143  0.26799  0.73358  1.0000
  C   C41       1.0  0.9524800000000001  0.40819  0.6629900000000002  1.0000
  C   C42       1.0  0.08456  0.14111  0.88499  1.0000
  C   C43       1.0  0.04942  0.21108  0.82957  1.0000
  C   C44       1.0  0.9522200000000002  0.25586  0.83922  1.0000
  C   C45       1.0  0.92782  0.32131  0.78478  1.0000
  C   C46       1.0  0.9912200000000002  0.34118  0.7197000000000002  1.0000
  C   C47       1.0  0.0875  0.29476  0.7084200000000003  1.0000
  C   C48       1.0  0.11467000000000002  0.23222  0.7659000000000002  1.0000
  C   C49       1.0  0.047310000000000005  0.9093100000000002  0.83657  1.0000
  C   C50       1.0  0.91535  0.64205  0.6147  1.0000
  C   C51       1.0  0.95077  0.71205  0.67009  1.0000
  C   C52       1.0  0.04832  0.75664  0.66083  1.0000
  C   C53       1.0  0.07268  0.8219200000000002  0.71547  1.0000
  C   C54       1.0  0.00888  0.84176  0.78029  1.0000
  C   C55       1.0  0.91283  0.79493  0.7917300000000003  1.0000
  C   C56       1.0  0.8855  0.73286  0.7337900000000003  1.0000
  C   C57       1.0  0.54894  0.59191  0.66359  1.0000
  C   C58       1.0  0.41724  0.85939  0.88522  1.0000
  C   C59       1.0  0.4521  0.78913  0.83011  1.0000
  C   C60       1.0  0.54914  0.74432  0.83992  1.0000
  C   C61       1.0  0.5735900000000002  0.67886  0.78547  1.0000
  C   C62       1.0  0.51021  0.65896  0.7203600000000002  1.0000
  C   C63       1.0  0.41391  0.7053200000000001  0.7091400000000002  1.0000
  C   C64       1.0  0.38679  0.76799  0.7665300000000003  1.0000
  N   N1        1.0  0.62081  0.73694  0.39801  1.0000
  N   N2        1.0  0.3499000000000001  0.80599  0.14318  1.0000
  N   N3        1.0  0.11992  0.76512  0.10174  1.0000
  N   N4        1.0  0.85041  0.69182  0.35643  1.0000
  N   N5        1.0  0.87962  0.26405  0.3983  1.0000
  N   N6        1.0  0.14885  0.19281  0.14293  1.0000
  N   N7        1.0  0.37919000000000014  0.23459  0.10075  1.0000
  N   N8        1.0  0.64836  0.30818  0.35562  1.0000
  N   N9        1.0  0.37918  0.26307  0.60199  1.0000
  N   N10       1.0  0.65009  0.19401000000000004  0.85681  1.0000
  N   N11       1.0  0.88008  0.23488  0.8982600000000002  1.0000
  N   N12       1.0  0.14958  0.30819  0.64357  1.0000
  N   N13       1.0  0.12038  0.73595  0.6017  1.0000
  N   N14       1.0  0.85115  0.8072  0.85707  1.0000
  N   N15       1.0  0.62081  0.76541  0.89924  1.0000
  N   N16       1.0  0.35163  0.69182  0.64438  1.0000
  N   N17       1.0  0.24917000000000006  0.50089  0.54245  1.0000
  N   N18       1.0  0.75099  1.0000000000000008e-05  0.9574600000000001  1.0000
  N   N19       1.0  0.7508300000000001  0.49911  0.45754  1.0000
  N   N20       1.0  0.249  0.9999900000000002  0.042540000000000015  1.0000
  O   O1        1.0  0.62998  0.9479600000000002  0.17997  1.0000
  O   O2        1.0  0.4913900000000001  0.92214  0.09879000000000003  1.0000
  O   O3        1.0  0.3288900000000001  0.47615  0.49976999999999994  1.0000
  O   O4        1.0  0.48636000000000007  0.6103100000000002  0.43269  1.0000
  O   O5        1.0  0.32185  0.61806  0.38121  1.0000
  O   O6        1.0  0.13183  0.55329  0.31804  1.0000
  O   O7        1.0  0.99457  0.57909  0.40122  1.0000
  O   O8        1.0  0.8301100000000001  0.02593000000000001  0.0004300000000000001  1.0000
  O   O9        1.0  0.98425  0.89023  0.06733  1.0000
  O   O10       1.0  0.8202400000000001  0.8825900000000002  0.11937000000000003  1.0000
  O   O11       1.0  0.8685  0.05169  0.18237  1.0000
  O   O12       1.0  0.005490000000000001  0.07782  0.09922  1.0000
  O   O13       1.0  0.1693  0.52424  0.49941  1.0000
  O   O14       1.0  0.015770000000000003  0.3897  0.43264000000000014  1.0000
  O   O15       1.0  0.18009000000000003  0.3813  0.38094  1.0000
  O   O16       1.0  0.36720000000000014  0.4471  0.31744  1.0000
  O   O17       1.0  0.50335  0.42044  0.40094  1.0000
  O   O18       1.0  0.6717000000000001  0.9741400000000002  0.00016000000000000004  1.0000
  O   O19       1.0  0.51372  0.10884  0.06754  1.0000
  O   O20       1.0  0.6779800000000001  0.1171  0.11909  1.0000
  O   O21       1.0  0.37002000000000007  0.05205  0.8200300000000001  1.0000
  O   O22       1.0  0.50861  0.07786  0.9012100000000002  1.0000
  O   O23       1.0  0.6711  0.52385  0.50023  1.0000
  O   O24       1.0  0.51364  0.3897  0.56731  1.0000
  O   O25       1.0  0.67815  0.38194  0.61878  1.0000
  O   O26       1.0  0.86817  0.44671  0.6819600000000002  1.0000
  O   O27       1.0  0.0054300000000000025  0.4209100000000001  0.59878  1.0000
  O   O28       1.0  0.16989000000000004  0.97407  0.99957  1.0000
  O   O29       1.0  0.01574  0.10977  0.9326700000000001  1.0000
  O   O30       1.0  0.17976  0.11741  0.88063  1.0000
  O   O31       1.0  0.13149  0.94831  0.81763  1.0000
  O   O32       1.0  0.99451  0.92218  0.9007800000000002  1.0000
  O   O33       1.0  0.83069  0.47576  0.5005900000000002  1.0000
  O   O34       1.0  0.98423  0.6103  0.56736  1.0000
  O   O35       1.0  0.81991  0.6187  0.61906  1.0000
  O   O36       1.0  0.6328  0.5529  0.68256  1.0000
  O   O37       1.0  0.49665  0.57956  0.59906  1.0000
  O   O38       1.0  0.32829  0.02587  0.9998400000000001  1.0000
  O   O39       1.0  0.4862800000000001  0.89116  0.93245  1.0000
  O   O40       1.0  0.3220200000000001  0.8829  0.88091  1.0000
  O   O41       1.0  0.24899  0.50211  0.61537  1.0000
  O   O42       1.0  0.75135  1.0000000000000008e-05  0.88458  1.0000
  O   O43       1.0  0.751  0.49789  0.38463000000000014  1.0000
  O   O44       1.0  0.24864  0.9999900000000002  0.11542  1.0000
