data_image0
_chemical_formula_structural       Ca2Cu12H54C48N12O42
_chemical_formula_sum              "Ca2 Cu12 H54 C48 N12 O42"
_cell_length_a       13.03102
_cell_length_b       17.85192
_cell_length_c       17.83308
_cell_angle_alpha    120.03522
_cell_angle_beta     90.0
_cell_angle_gamma    90.0

_symmetry_space_group_name_H-M    'P 1'
_symmetry_Int_Tables_number       1

loop_
  _symmetry_equiv_pos_as_xyz
  'x,y,z'

loop_
  _atom_site_type_symbol
  _atom_site_label
  _atom_site_symmetry_multiplicity
  _atom_site_fract_x
  _atom_site_fract_y
  _atom_site_fract_z
  _atom_site_occupancy
  Ca  Ca1       1.0  0.44407999999999986  0.6663100000000001  0.3326800000000001  1.0000
  Ca  Ca2       1.0  0.9440799999999999  0.33369  0.66732  1.0000
  Cu  Cu1       1.0  0.31283  0.86303  0.44668  1.0000
  Cu  Cu2       1.0  0.5768399999999999  0.8635  0.4512200000000001  1.0000
  Cu  Cu3       1.0  0.31476  0.5791799999999999  0.1356  1.0000
  Cu  Cu4       1.0  0.57567  0.5848199999999997  0.13552  1.0000
  Cu  Cu5       1.0  0.31646  0.55608  0.42192000000000013  1.0000
  Cu  Cu6       1.0  0.57346  0.55028  0.4166200000000001  1.0000
  Cu  Cu7       1.0  0.8128299999999999  0.13696999999999995  0.55332  1.0000
  Cu  Cu8       1.0  0.07684  0.1365  0.54878  1.0000
  Cu  Cu9       1.0  0.81475  0.4208199999999999  0.8644  1.0000
  Cu  Cu10      1.0  0.07568  0.41517  0.8644800000000002  1.0000
  Cu  Cu11      1.0  0.8164599999999999  0.44392  0.57808  1.0000
  Cu  Cu12      1.0  0.07346  0.44972  0.5833800000000002  1.0000
  H   H1        1.0  0.44213999999999987  0.82776  0.52452  1.0000
  H   H2        1.0  0.73853  0.86891  0.28187  1.0000
  H   H3        1.0  0.88718  0.8551199999999999  0.3641500000000001  1.0000
  H   H4        1.0  0.86015  0.7546799999999999  0.2673  1.0000
  H   H5        1.0  0.8207999999999998  0.77093  0.3706300000000001  1.0000
  H   H6        1.0  0.6395599999999999  0.055900000000000026  0.72348  1.0000
  H   H7        1.0  0.6681899999999998  0.16047000000000008  0.8143100000000002  1.0000
  H   H8        1.0  0.7689999999999999  0.09357999999999991  0.74572  1.0000
  H   H9        1.0  0.5950199999999999  0.17348000000000008  0.6918800000000003  1.0000
  H   H10       1.0  0.4413  0.69369  0.16983  1.0000
  H   H11       1.0  0.73898  0.41273  0.13067  1.0000
  H   H12       1.0  0.8883499999999999  0.50848  0.14433  1.0000
  H   H13       1.0  0.86106  0.51219  0.24475000000000005  1.0000
  H   H14       1.0  0.82185  0.59925  0.22857000000000002  1.0000
  H   H15       1.0  0.63938  0.66827  0.9440700000000002  1.0000
  H   H16       1.0  0.6682899999999998  0.65452  0.83953  1.0000
  H   H17       1.0  0.76884  0.6523400000000001  0.9064400000000002  1.0000
  H   H18       1.0  0.59372  0.5194500000000001  0.8267200000000001  1.0000
  H   H19       1.0  0.4410599999999999  0.47384000000000004  0.3067400000000001  1.0000
  H   H20       1.0  0.73783  0.7185400000000001  0.5869300000000001  1.0000
  H   H21       1.0  0.8868999999999998  0.63643  0.49129000000000006  1.0000
  H   H22       1.0  0.8596599999999998  0.7328299999999998  0.48746  1.0000
  H   H23       1.0  0.82087  0.6294900000000001  0.4001900000000001  1.0000
  H   H24       1.0  0.6395  0.2756  0.33192  1.0000
  H   H25       1.0  0.6682799999999999  0.18506  0.34592  1.0000
  H   H26       1.0  0.76897  0.25385  0.3475100000000001  1.0000
  H   H27       1.0  0.59478  0.3072599999999999  0.4813900000000001  1.0000
  H   H28       1.0  0.94214  0.17224000000000006  0.4754800000000001  1.0000
  H   H29       1.0  0.23852999999999994  0.13109  0.71814  1.0000
  H   H30       1.0  0.3871799999999999  0.14487999999999993  0.63586  1.0000
  H   H31       1.0  0.3601499999999999  0.24532000000000018  0.7327000000000002  1.0000
  H   H32       1.0  0.3208  0.22907  0.62937  1.0000
  H   H33       1.0  0.13955999999999996  0.94409  0.27652  1.0000
  H   H34       1.0  0.16819  0.83953  0.18569  1.0000
  H   H35       1.0  0.269  0.90642  0.25429  1.0000
  H   H36       1.0  0.09501999999999998  0.82652  0.30812  1.0000
  H   H37       1.0  0.9412899999999997  0.30631  0.8301800000000003  1.0000
  H   H38       1.0  0.23897999999999994  0.58727  0.8693300000000003  1.0000
  H   H39       1.0  0.38835  0.49152000000000007  0.8556700000000003  1.0000
  H   H40       1.0  0.36105999999999994  0.48781  0.75525  1.0000
  H   H41       1.0  0.32185  0.40075  0.77143  1.0000
  H   H42       1.0  0.13938  0.33173  0.055930000000000014  1.0000
  H   H43       1.0  0.16829  0.34547  0.16047000000000006  1.0000
  H   H44       1.0  0.26884  0.34766  0.09356000000000003  1.0000
  H   H45       1.0  0.09372  0.48053999999999997  0.17329000000000006  1.0000
  H   H46       1.0  0.9410499999999998  0.52616  0.6932600000000002  1.0000
  H   H47       1.0  0.23783  0.28145  0.4130700000000001  1.0000
  H   H48       1.0  0.3868999999999999  0.36356  0.50872  1.0000
  H   H49       1.0  0.35966  0.2671700000000002  0.5125400000000002  1.0000
  H   H50       1.0  0.3208699999999999  0.37050000000000005  0.5998200000000001  1.0000
  H   H51       1.0  0.1395  0.7244  0.6680800000000002  1.0000
  H   H52       1.0  0.16829  0.8149399999999999  0.6540800000000002  1.0000
  H   H53       1.0  0.26897  0.7461500000000001  0.6524900000000002  1.0000
  H   H54       1.0  0.09478999999999999  0.69274  0.5186100000000002  1.0000
  C   C1        1.0  0.7238299999999998  0.97863  0.4596300000000001  1.0000
  C   C2        1.0  0.66666  0.02228000000000011  0.5459000000000003  1.0000
  C   C3        1.0  0.7283799999999998  0.83947  0.32281  1.0000
  C   C4        1.0  0.6503699999999998  0.7653099999999998  0.27847  1.0000
  C   C5        1.0  0.8314699999999998  0.8023399999999998  0.3316800000000001  1.0000
  C   C6        1.0  0.74091  0.23699999999999996  0.72575  1.0000
  C   C7        1.0  0.68881  0.11315000000000001  0.7472600000000001  1.0000
  C   C8        1.0  0.67576  0.15417000000000014  0.6897100000000003  1.0000
  C   C9        1.0  0.72555  0.48350999999999994  0.02184  1.0000
  C   C10       1.0  0.6656799999999998  0.52405  0.97781  1.0000
  C   C11       1.0  0.7292899999999998  0.48315  0.16004  1.0000
  C   C12       1.0  0.6512399999999999  0.5132099999999998  0.23441000000000006  1.0000
  C   C13       1.0  0.8324999999999998  0.52888  0.19708  1.0000
  C   C14       1.0  0.73981  0.48867999999999995  0.76279  1.0000
  C   C15       1.0  0.6886099999999999  0.63462  0.8867300000000002  1.0000
  C   C16       1.0  0.6746  0.5362  0.84575  1.0000
  C   C17       1.0  0.7249499999999999  0.5389800000000001  0.5172200000000002  1.0000
  C   C18       1.0  0.66529  0.45414  0.4769700000000001  1.0000
  C   C19       1.0  0.7277899999999998  0.67694  0.5165  1.0000
  C   C20       1.0  0.6486  0.7206599999999999  0.48659000000000013  1.0000
  C   C21       1.0  0.8309799999999999  0.6684999999999999  0.47067  1.0000
  C   C22       1.0  0.74219  0.2744699999999999  0.51073  1.0000
  C   C23       1.0  0.6888299999999999  0.25201  0.36554  1.0000
  C   C24       1.0  0.67537  0.3098099999999999  0.46414  1.0000
  C   C25       1.0  0.22383  0.02137000000000013  0.5403700000000002  1.0000
  C   C26       1.0  0.16666999999999998  0.97772  0.4541  1.0000
  C   C27       1.0  0.22838  0.16053000000000012  0.6771900000000002  1.0000
  C   C28       1.0  0.15036999999999998  0.23468000000000006  0.7215400000000002  1.0000
  C   C29       1.0  0.33147  0.19765999999999995  0.66833  1.0000
  C   C30       1.0  0.24090999999999996  0.763  0.27425  1.0000
  C   C31       1.0  0.18881  0.88684  0.25274  1.0000
  C   C32       1.0  0.17575999999999997  0.8458199999999998  0.3103  1.0000
  C   C33       1.0  0.22554999999999997  0.51648  0.9781700000000002  1.0000
  C   C34       1.0  0.16567999999999997  0.47594999999999993  0.02219000000000001  1.0000
  C   C35       1.0  0.22929  0.5168399999999999  0.8399600000000003  1.0000
  C   C36       1.0  0.15124  0.48679000000000017  0.7655900000000002  1.0000
  C   C37       1.0  0.3324999999999999  0.47111000000000014  0.8029200000000002  1.0000
  C   C38       1.0  0.23980999999999994  0.51132  0.23721000000000006  1.0000
  C   C39       1.0  0.18861  0.36537000000000003  0.11327000000000002  1.0000
  C   C40       1.0  0.17459999999999995  0.46379999999999993  0.15425  1.0000
  C   C41       1.0  0.22495999999999994  0.46102  0.48278  1.0000
  C   C42       1.0  0.16528999999999994  0.5458500000000002  0.5230300000000002  1.0000
  C   C43       1.0  0.22778999999999996  0.32305999999999996  0.48351  1.0000
  C   C44       1.0  0.1486  0.27934  0.51342  1.0000
  C   C45       1.0  0.33099  0.3314900000000001  0.5293300000000002  1.0000
  C   C46       1.0  0.24218999999999993  0.7255200000000002  0.4892700000000001  1.0000
  C   C47       1.0  0.18883999999999998  0.74798  0.6344700000000002  1.0000
  C   C48       1.0  0.17537  0.6901900000000001  0.5358700000000002  1.0000
  N   N1        1.0  0.70811  0.09702999999999996  0.60107  1.0000
  N   N2        1.0  0.68662  0.90139  0.40648  1.0000
  N   N3        1.0  0.70695  0.5053099999999998  0.90319  1.0000
  N   N4        1.0  0.68734  0.50472  0.09804  1.0000
  N   N5        1.0  0.70741  0.39829000000000003  0.49514  1.0000
  N   N6        1.0  0.68621  0.59339  0.49556  1.0000
  N   N7        1.0  0.20811  0.9029699999999999  0.3989300000000001  1.0000
  N   N8        1.0  0.18662  0.09860999999999995  0.59352  1.0000
  N   N9        1.0  0.20695  0.49467999999999995  0.09681000000000002  1.0000
  N   N10       1.0  0.18733999999999998  0.4952800000000002  0.9019600000000002  1.0000
  N   N11       1.0  0.20740999999999996  0.6017100000000001  0.5048600000000002  1.0000
  N   N12       1.0  0.18620999999999993  0.40661000000000014  0.5044400000000002  1.0000
  O   O1        1.0  0.44409  0.8239099999999999  0.4682  1.0000
  O   O2        1.0  0.7994399999999998  0.01694000000000003  0.44713000000000014  1.0000
  O   O3        1.0  0.72276  0.29728  0.80064  1.0000
  O   O4        1.0  0.5892899999999999  0.9846199999999999  0.5570300000000002  1.0000
  O   O5        1.0  0.66481  0.70919  0.20093000000000005  1.0000
  O   O6        1.0  0.57507  0.7640599999999997  0.32577  1.0000
  O   O7        1.0  0.8136499999999998  0.23851  0.67634  1.0000
  O   O8        1.0  0.44407999999999986  0.6420699999999999  0.17504  1.0000
  O   O9        1.0  0.8038899999999998  0.43589000000000017  0.9844500000000003  1.0000
  O   O10       1.0  0.72182  0.5015599999999999  0.70152  1.0000
  O   O11       1.0  0.58645  0.57066  0.01483  1.0000
  O   O12       1.0  0.66541  0.4928699999999999  0.2911100000000001  1.0000
  O   O13       1.0  0.57536  0.5613  0.23507  1.0000
  O   O14       1.0  0.8132999999999998  0.43859  0.76209  1.0000
  O   O15       1.0  0.44375  0.53147  0.35709000000000013  1.0000
  O   O16       1.0  0.80359  0.5495200000000001  0.5646600000000003  1.0000
  O   O17       1.0  0.72207  0.20081000000000002  0.4990500000000001  1.0000
  O   O18       1.0  0.58551  0.4442999999999999  0.4308800000000001  1.0000
  O   O19       1.0  0.66303  0.79808  0.50745  1.0000
  O   O20       1.0  0.57236  0.67391  0.43952  1.0000
  O   O21       1.0  0.81824  0.32207  0.55724  1.0000
  O   O22       1.0  0.9440899999999999  0.17609000000000005  0.5318000000000003  1.0000
  O   O23       1.0  0.29943999999999993  0.9830599999999999  0.55287  1.0000
  O   O24       1.0  0.22276  0.70272  0.19936000000000006  1.0000
  O   O25       1.0  0.08929  0.01538000000000004  0.4429700000000001  1.0000
  O   O26       1.0  0.16481  0.2908000000000001  0.7990700000000002  1.0000
  O   O27       1.0  0.07507  0.23593000000000008  0.6742300000000002  1.0000
  O   O28       1.0  0.3136599999999999  0.7614799999999999  0.3236700000000001  1.0000
  O   O29       1.0  0.9440799999999999  0.3579300000000002  0.8249700000000002  1.0000
  O   O30       1.0  0.30389  0.56411  0.015550000000000003  1.0000
  O   O31       1.0  0.22182999999999997  0.49844  0.29848000000000013  1.0000
  O   O32       1.0  0.08644999999999997  0.4293400000000001  0.9851800000000002  1.0000
  O   O33       1.0  0.16541  0.5071300000000001  0.7088900000000002  1.0000
  O   O34       1.0  0.07536  0.43869000000000014  0.7649400000000002  1.0000
  O   O35       1.0  0.31329999999999997  0.56141  0.23791000000000004  1.0000
  O   O36       1.0  0.9437499999999999  0.4685200000000001  0.6429100000000002  1.0000
  O   O37       1.0  0.3036  0.4504699999999999  0.4353400000000001  1.0000
  O   O38       1.0  0.22207  0.7991899999999998  0.5009600000000002  1.0000
  O   O39       1.0  0.08550999999999997  0.5556899999999998  0.56912  1.0000
  O   O40       1.0  0.16306  0.20192  0.49256  1.0000
  O   O41       1.0  0.07236  0.32608000000000004  0.56048  1.0000
  O   O42       1.0  0.3182499999999999  0.67793  0.4427700000000001  1.0000
