data_image0
_chemical_formula_structural       Co4H52C72N12O16
_chemical_formula_sum              "Co4 H52 C72 N12 O16"
_cell_length_a       11.44342
_cell_length_b       17.91818
_cell_length_c       17.7702
_cell_angle_alpha    90.0
_cell_angle_beta     90.0
_cell_angle_gamma    99.17383000000001

_symmetry_space_group_name_H-M    'P 1'
_symmetry_Int_Tables_number       1

loop_
  _symmetry_equiv_pos_as_xyz
  'x,y,z'

loop_
  _atom_site_type_symbol
  _atom_site_label
  _atom_site_symmetry_multiplicity
  _atom_site_fract_x
  _atom_site_fract_y
  _atom_site_fract_z
  _atom_site_occupancy
  Co  Co1       1.0  0.96844  0.07341  0.9188099999999999  1.0000
  Co  Co2       1.0  0.031559999999999956  0.4265899999999999  0.41881  1.0000
  Co  Co3       1.0  0.03155999999999998  0.9265899999999999  0.08119  1.0000
  Co  Co4       1.0  0.9684499999999998  0.57341  0.58119  1.0000
  H   H1        1.0  0.008740000000000013  0.7823  0.988  1.0000
  H   H2        1.0  0.002839999999999996  0.69128  0.9548799999999998  1.0000
  H   H3        1.0  0.95393  0.92051  0.76281  1.0000
  H   H4        1.0  0.0020400000000000014  0.65774  0.8261299999999998  1.0000
  H   H5        1.0  0.9558499999999999  0.82433  0.66012  1.0000
  H   H6        1.0  0.5269399999999999  0.97635  0.8485199999999998  1.0000
  H   H7        1.0  0.7453399999999999  0.97972  0.85176  1.0000
  H   H8        1.0  0.7935099999999999  0.16350999999999993  0.99437  1.0000
  H   H9        1.0  0.57937  0.17105  0.99587  1.0000
  H   H10       1.0  0.35865  0.9943799999999999  0.82983  1.0000
  H   H11       1.0  0.14445  3.999999999999999e-05  0.83273  1.0000
  H   H12       1.0  0.18473999999999996  0.15777  0.00389  1.0000
  H   H13       1.0  0.40011999999999986  0.1577  0.01137  1.0000
  H   H14       1.0  0.99126  0.7177  0.48799999999999993  1.0000
  H   H15       1.0  0.99716  0.80871  0.45488  1.0000
  H   H16       1.0  0.046079999999999996  0.57948  0.2628  1.0000
  H   H17       1.0  0.9979599999999998  0.84226  0.32613  1.0000
  H   H18       1.0  0.04415999999999995  0.6756699999999998  0.16012  1.0000
  H   H19       1.0  0.47306  0.52364  0.34852  1.0000
  H   H20       1.0  0.25466  0.52027  0.35175  1.0000
  H   H21       1.0  0.20648999999999998  0.33648999999999996  0.49437  1.0000
  H   H22       1.0  0.42063  0.32895  0.49585999999999997  1.0000
  H   H23       1.0  0.64135  0.50562  0.32981999999999995  1.0000
  H   H24       1.0  0.85555  0.49996  0.3327299999999999  1.0000
  H   H25       1.0  0.8152599999999999  0.34223  0.5039  1.0000
  H   H26       1.0  0.59988  0.3423  0.51138  1.0000
  H   H27       1.0  0.99126  0.2177  0.012  1.0000
  H   H28       1.0  0.99716  0.30871  0.045119999999999987  1.0000
  H   H29       1.0  0.04607  0.07947999999999998  0.23719999999999997  1.0000
  H   H30       1.0  0.9979599999999998  0.34226  0.17386999999999994  1.0000
  H   H31       1.0  0.044149999999999995  0.17567  0.33989  1.0000
  H   H32       1.0  0.47306  0.02364  0.15147999999999998  1.0000
  H   H33       1.0  0.25466  0.02028  0.14825  1.0000
  H   H34       1.0  0.20648999999999998  0.83648  0.00563  1.0000
  H   H35       1.0  0.42063  0.82894  0.004139999999999998  1.0000
  H   H36       1.0  0.64135  0.00562  0.17017999999999994  1.0000
  H   H37       1.0  0.85555  0.99996  0.16727999999999998  1.0000
  H   H38       1.0  0.8152599999999999  0.84223  0.9961099999999999  1.0000
  H   H39       1.0  0.59988  0.8423  0.9886299999999999  1.0000
  H   H40       1.0  0.008739999999999994  0.28229999999999994  0.512  1.0000
  H   H41       1.0  0.002840000000000006  0.19129  0.54512  1.0000
  H   H42       1.0  0.95393  0.42052  0.7371999999999997  1.0000
  H   H43       1.0  0.002039999999999992  0.15773999999999996  0.67387  1.0000
  H   H44       1.0  0.9558499999999999  0.32433  0.83989  1.0000
  H   H45       1.0  0.5269399999999999  0.47636  0.65148  1.0000
  H   H46       1.0  0.7453399999999999  0.47972  0.64825  1.0000
  H   H47       1.0  0.79351  0.66351  0.50564  1.0000
  H   H48       1.0  0.57937  0.67105  0.50414  1.0000
  H   H49       1.0  0.35865  0.49438  0.6701799999999998  1.0000
  H   H50       1.0  0.14445  0.50004  0.66728  1.0000
  H   H51       1.0  0.18473999999999988  0.6577699999999997  0.49611  1.0000
  H   H52       1.0  0.40012  0.6577  0.48862999999999995  1.0000
  C   C1        1.0  0.98304  0.8450599999999998  0.8519899999999998  1.0000
  C   C2        1.0  0.99786  0.76979  0.8715099999999998  1.0000
  C   C3        1.0  0.9930800000000001  0.71596  0.81304  1.0000
  C   C4        1.0  0.97899  0.73543  0.7381199999999999  1.0000
  C   C5        1.0  0.9661999999999998  0.80999  0.7188799999999997  1.0000
  C   C6        1.0  0.96634  0.86295  0.77573  1.0000
  C   C7        1.0  0.9846799999999999  0.9057799999999999  0.90867  1.0000
  C   C8        1.0  0.9779  0.67668  0.6785199999999998  1.0000
  C   C9        1.0  0.5311299999999999  0.0737  0.9222899999999999  1.0000
  C   C10       1.0  0.58149  0.01958  0.88159  1.0000
  C   C11       1.0  0.7034099999999999  0.020499999999999994  0.883  1.0000
  C   C12       1.0  0.73093  0.12337000000000001  0.96258  1.0000
  C   C13       1.0  0.61009  0.12655  0.9634599999999999  1.0000
  C   C14       1.0  0.40166999999999997  0.07534  0.92124  1.0000
  C   C15       1.0  0.3256  0.0311  0.87059  1.0000
  C   C16       1.0  0.20486999999999997  0.03399  0.8713  1.0000
  C   C17       1.0  0.22706  0.12174  0.9669599999999999  1.0000
  C   C18       1.0  0.34849  0.12162  0.9701699999999999  1.0000
  C   C19       1.0  0.01695999999999999  0.65494  0.35199  1.0000
  C   C20       1.0  0.0021399999999999935  0.73021  0.37151  1.0000
  C   C21       1.0  0.006919999999999941  0.7840299999999998  0.31304  1.0000
  C   C22       1.0  0.021020000000000007  0.76457  0.23810999999999996  1.0000
  C   C23       1.0  0.03379999999999998  0.69  0.21887  1.0000
  C   C24       1.0  0.03366999999999999  0.63705  0.27573  1.0000
  C   C25       1.0  0.015319999999999974  0.5942199999999999  0.40866  1.0000
  C   C26       1.0  0.022099999999999995  0.82331  0.17852  1.0000
  C   C27       1.0  0.46887  0.4263  0.42229  1.0000
  C   C28       1.0  0.41850999999999994  0.48042  0.3815799999999999  1.0000
  C   C29       1.0  0.2965899999999999  0.4794999999999999  0.383  1.0000
  C   C30       1.0  0.26907  0.37663  0.46257999999999994  1.0000
  C   C31       1.0  0.38991  0.37345  0.4634599999999999  1.0000
  C   C32       1.0  0.5983299999999999  0.42466  0.42123999999999995  1.0000
  C   C33       1.0  0.6744  0.4689  0.3705799999999999  1.0000
  C   C34       1.0  0.79513  0.4660099999999999  0.3713  1.0000
  C   C35       1.0  0.7729399999999997  0.3782599999999999  0.46695999999999993  1.0000
  C   C36       1.0  0.65151  0.37838  0.47017  1.0000
  C   C37       1.0  0.01696  0.15494  0.14801  1.0000
  C   C38       1.0  0.002139999999999984  0.23020999999999997  0.12849  1.0000
  C   C39       1.0  0.006919999999999999  0.28403  0.18697  1.0000
  C   C40       1.0  0.02101999999999997  0.2645699999999999  0.26189  1.0000
  C   C41       1.0  0.0338  0.19  0.28113  1.0000
  C   C42       1.0  0.033659999999999995  0.13705  0.22427  1.0000
  C   C43       1.0  0.01532  0.09422  0.09134  1.0000
  C   C44       1.0  0.022100000000000005  0.32332  0.32149  1.0000
  C   C45       1.0  0.46887  0.9262999999999999  0.07771  1.0000
  C   C46       1.0  0.41850999999999994  0.98041  0.11842  1.0000
  C   C47       1.0  0.29658999999999996  0.9795  0.117  1.0000
  C   C48       1.0  0.26907  0.87663  0.03742  1.0000
  C   C49       1.0  0.38991  0.87344  0.03654  1.0000
  C   C50       1.0  0.5983299999999999  0.9246599999999999  0.07876999999999999  1.0000
  C   C51       1.0  0.6744  0.9689  0.12941999999999995  1.0000
  C   C52       1.0  0.79513  0.96601  0.12871  1.0000
  C   C53       1.0  0.7729399999999997  0.8782599999999999  0.03304  1.0000
  C   C54       1.0  0.65151  0.87838  0.029829999999999995  1.0000
  C   C55       1.0  0.98304  0.34506  0.64801  1.0000
  C   C56       1.0  0.99786  0.26979  0.62849  1.0000
  C   C57       1.0  0.99308  0.21596999999999994  0.6869699999999997  1.0000
  C   C58       1.0  0.9789799999999999  0.23543  0.7618899999999998  1.0000
  C   C59       1.0  0.9661999999999998  0.30999  0.78113  1.0000
  C   C60       1.0  0.96634  0.36295  0.7242699999999997  1.0000
  C   C61       1.0  0.98468  0.40578  0.59134  1.0000
  C   C62       1.0  0.9779  0.17668  0.8214899999999999  1.0000
  C   C63       1.0  0.5311299999999998  0.5736999999999998  0.57771  1.0000
  C   C64       1.0  0.58149  0.51958  0.6184199999999997  1.0000
  C   C65       1.0  0.7034099999999999  0.5205  0.61701  1.0000
  C   C66       1.0  0.73093  0.62337  0.53742  1.0000
  C   C67       1.0  0.61009  0.62655  0.53654  1.0000
  C   C68       1.0  0.4016799999999999  0.57533  0.5787699999999998  1.0000
  C   C69       1.0  0.32561  0.53109  0.62942  1.0000
  C   C70       1.0  0.20488  0.53399  0.62871  1.0000
  C   C71       1.0  0.22706999999999997  0.62174  0.53304  1.0000
  C   C72       1.0  0.3484999999999999  0.62161  0.5298299999999999  1.0000
  N   N1        1.0  0.018089999999999933  0.7474399999999998  0.9439299999999998  1.0000
  N   N2        1.0  0.7779299999999998  0.07132  0.9229499999999999  1.0000
  N   N3        1.0  0.1548  0.07805  0.91902  1.0000
  N   N4        1.0  0.9819199999999999  0.75256  0.44393  1.0000
  N   N5        1.0  0.22206999999999993  0.4286799999999999  0.42295  1.0000
  N   N6        1.0  0.8452  0.42195  0.41902  1.0000
  N   N7        1.0  0.9819199999999999  0.25256  0.05607  1.0000
  N   N8        1.0  0.22206999999999993  0.92868  0.07705  1.0000
  N   N9        1.0  0.8452  0.9219499999999999  0.08098  1.0000
  N   N10       1.0  0.01807999999999999  0.24744  0.5560799999999998  1.0000
  N   N11       1.0  0.77794  0.57131  0.57706  1.0000
  N   N12       1.0  0.1548  0.57805  0.5809899999999998  1.0000
  O   O1        1.0  0.94066  0.96455  0.8899299999999999  1.0000
  O   O2        1.0  0.029440000000000004  0.89633  0.97328  1.0000
  O   O3        1.0  0.96512  0.60678  0.69684  1.0000
  O   O4        1.0  0.9890499999999999  0.69615  0.6092199999999998  1.0000
  O   O5        1.0  0.05934999999999999  0.53545  0.38992999999999994  1.0000
  O   O6        1.0  0.97057  0.60367  0.47328  1.0000
  O   O7        1.0  0.03488000000000001  0.8932199999999999  0.19683999999999996  1.0000
  O   O8        1.0  0.010959999999999939  0.8038499999999997  0.10921  1.0000
  O   O9        1.0  0.05934999999999999  0.03544999999999999  0.11006999999999997  1.0000
  O   O10       1.0  0.97056  0.10367  0.02672  1.0000
  O   O11       1.0  0.03487999999999998  0.39322  0.30316  1.0000
  O   O12       1.0  0.010959999999999998  0.30385  0.39079  1.0000
  O   O13       1.0  0.9406599999999996  0.46454999999999996  0.61007  1.0000
  O   O14       1.0  0.029429999999999984  0.3963299999999999  0.52672  1.0000
  O   O15       1.0  0.96512  0.10678  0.8031599999999998  1.0000
  O   O16       1.0  0.98904  0.19615  0.89079  1.0000
