data_image0
_chemical_formula_structural       Na6H62C60S14O38
_chemical_formula_sum              "Na6 H62 C60 S14 O38"
_cell_length_a       9.9901
_cell_length_b       16.02405
_cell_length_c       16.28874
_cell_angle_alpha    94.80876
_cell_angle_beta     103.18672
_cell_angle_gamma    96.35423

_space_group_name_H-M_alt    "P 1"
_space_group_IT_number       1

loop_
  _space_group_symop_operation_xyz
  'x, y, z'

loop_
  _atom_site_type_symbol
  _atom_site_label
  _atom_site_symmetry_multiplicity
  _atom_site_fract_x
  _atom_site_fract_y
  _atom_site_fract_z
  _atom_site_occupancy
  Na  Na1       1.0  0.11327  0.93347  0.45244  1.0000
  Na  Na2       1.0  0.48678999999999994  0.09582  0.54365  1.0000
  Na  Na3       1.0  0.23981000000000002  0.16261  0.86505  1.0000
  Na  Na4       1.0  0.88673  0.06652  0.54756  1.0000
  Na  Na5       1.0  0.51325  0.9041800000000002  0.45639000000000013  1.0000
  Na  Na6       1.0  0.7601900000000001  0.83739  0.13494  1.0000
  H   H1        1.0  0.72949  0.5061000000000002  0.16663  1.0000
  H   H2        1.0  0.33860000000000007  0.6006000000000002  0.15324000000000002  1.0000
  H   H3        1.0  0.9544300000000001  0.24743000000000007  0.24548  1.0000
  H   H4        1.0  0.11936000000000001  0.49765  0.20502  1.0000
  H   H5        1.0  0.28413  0.93104  0.12651  1.0000
  H   H6        1.0  0.94708  0.04591000000000001  0.194  1.0000
  H   H7        1.0  0.50662  0.03978  0.17201  1.0000
  H   H8        1.0  0.72013  0.2942900000000001  0.22433  1.0000
  H   H9        1.0  0.9446000000000001  0.52099  0.28273  1.0000
  H   H10       1.0  0.8256099999999998  0.4348  0.29589  1.0000
  H   H11       1.0  0.9276099999999999  0.50176  0.38509  1.0000
  H   H12       1.0  0.1884  0.4919  0.43438  1.0000
  H   H13       1.0  0.26814  0.42156  0.37693  1.0000
  H   H14       1.0  0.21392000000000003  0.5138800000000002  0.33388  1.0000
  H   H15       1.0  0.9089  0.30765000000000003  0.36192  1.0000
  H   H16       1.0  0.025050000000000034  0.36892000000000014  0.44951  1.0000
  H   H17       1.0  0.08819  0.2957  0.38515  1.0000
  H   H18       1.0  0.8366199999999999  0.2544  0.89702  1.0000
  H   H19       1.0  0.8729099999999999  0.36322  0.94251  1.0000
  H   H20       1.0  0.14131  0.33479  0.79751  1.0000
  H   H21       1.0  0.24504  0.35262  0.9806  1.0000
  H   H22       1.0  0.07209999999999998  0.19195  0.98593  1.0000
  H   H23       1.0  0.48741000000000007  0.25801  0.94275  1.0000
  H   H24       1.0  0.89942  0.88579  0.55711  1.0000
  H   H25       1.0  0.05106000000000004  0.9059600000000002  0.61033  1.0000
  H   H26       1.0  0.30619000000000013  0.0021900000000000344  0.6156800000000002  1.0000
  H   H27       1.0  0.21488  0.07367  0.60239  1.0000
  H   H28       1.0  0.33151  0.0050999999999999995  0.36936  1.0000
  H   H29       1.0  0.4813  0.04642  0.36452  1.0000
  H   H30       1.0  0.25862  0.78493  0.43438  1.0000
  H   H31       1.0  0.30071000000000003  0.8163800000000002  0.53155  1.0000
  H   H32       1.0  0.2705100000000001  0.4939000000000001  0.83336  1.0000
  H   H33       1.0  0.6614  0.39940000000000003  0.84676  1.0000
  H   H34       1.0  0.04557000000000002  0.75257  0.75451  1.0000
  H   H35       1.0  0.8806400000000001  0.50235  0.79497  1.0000
  H   H36       1.0  0.71586  0.06896000000000001  0.87349  1.0000
  H   H37       1.0  0.05292000000000002  0.95409  0.80599  1.0000
  H   H38       1.0  0.49337  0.9602200000000002  0.82799  1.0000
  H   H39       1.0  0.27986000000000005  0.7057100000000002  0.7756700000000002  1.0000
  H   H40       1.0  0.055399999999999984  0.47901000000000005  0.71727  1.0000
  H   H41       1.0  0.17438999999999996  0.5652  0.70411  1.0000
  H   H42       1.0  0.07239000000000004  0.49824000000000007  0.6149  1.0000
  H   H43       1.0  0.8115999999999999  0.5081  0.56561  1.0000
  H   H44       1.0  0.73185  0.57844  0.62306  1.0000
  H   H45       1.0  0.78608  0.48612  0.66612  1.0000
  H   H46       1.0  0.09110000000000006  0.69235  0.63808  1.0000
  H   H47       1.0  0.97495  0.63107  0.55049  1.0000
  H   H48       1.0  0.9118099999999998  0.7043  0.61484  1.0000
  H   H49       1.0  0.16338  0.7456  0.10298  1.0000
  H   H50       1.0  0.12709000000000006  0.6367800000000002  0.05748  1.0000
  H   H51       1.0  0.85868  0.66521  0.20249  1.0000
  H   H52       1.0  0.75496  0.64738  0.0194  1.0000
  H   H53       1.0  0.9278999999999998  0.80805  0.01407  1.0000
  H   H54       1.0  0.51259  0.7419900000000003  0.05725  1.0000
  H   H55       1.0  0.10058  0.1142  0.44289  1.0000
  H   H56       1.0  0.94894  0.09404000000000003  0.38967  1.0000
  H   H57       1.0  0.69381  0.99781  0.38432  1.0000
  H   H58       1.0  0.78512  0.92633  0.39761  1.0000
  H   H59       1.0  0.66849  0.9949  0.63064  1.0000
  H   H60       1.0  0.5186999999999998  0.95358  0.63549  1.0000
  H   H61       1.0  0.74138  0.21507  0.56562  1.0000
  H   H62       1.0  0.69928  0.18362  0.46844  1.0000
  C   C1        1.0  0.40543000000000007  0.41669  0.05676000000000001  1.0000
  C   C2        1.0  0.55054  0.4265400000000001  0.089  1.0000
  C   C3        1.0  0.61761  0.4993200000000001  0.14267  1.0000
  C   C4        1.0  0.5425499999999999  0.56236  0.16561  1.0000
  C   C5        1.0  0.39834000000000014  0.55263  0.13470000000000004  1.0000
  C   C6        1.0  0.33015999999999995  0.48073  0.08033  1.0000
  C   C7        1.0  0.025710000000000004  0.31873  0.06786  1.0000
  C   C8        1.0  0.97759  0.26386  0.12039  1.0000
  C   C9        1.0  0.98915  0.29231  0.20582  1.0000
  C   C10       1.0  0.03991000000000005  0.3765400000000001  0.23812000000000005  1.0000
  C   C11       1.0  0.08363  0.43113  0.1833  1.0000
  C   C12       1.0  0.08122  0.40255000000000013  0.09955  1.0000
  C   C13       1.0  0.12376  0.09389  0.04420000000000001  1.0000
  C   C14       1.0  0.21861999999999998  0.03448  0.05810000000000001  1.0000
  C   C15       1.0  0.21211000000000002  0.97751  0.11819000000000003  1.0000
  C   C16       1.0  0.11444000000000006  0.9812000000000002  0.16726000000000005  1.0000
  C   C17       1.0  0.021839999999999988  0.04087  0.15519  1.0000
  C   C18       1.0  0.023570000000000008  0.09596  0.09323  1.0000
  C   C19       1.0  0.51525  0.19131  0.0379  1.0000
  C   C20       1.0  0.47436000000000006  0.11436  0.06693  1.0000
  C   C21       1.0  0.53226  0.10023  0.14994000000000005  1.0000
  C   C22       1.0  0.62217  0.16403  0.2056  1.0000
  C   C23       1.0  0.65361  0.24366  0.18015  1.0000
  C   C24       1.0  0.60179  0.25735  0.09576000000000003  1.0000
  C   C25       1.0  0.9172  0.30931  0.91834  1.0000
  C   C26       1.0  0.97397  0.33315  0.84382  1.0000
  C   C27       1.0  0.04286999999999999  0.41211  0.32892  1.0000
  C   C28       1.0  0.9288399999999999  0.47073  0.32263  1.0000
  C   C29       1.0  0.18665000000000004  0.4629300000000001  0.37055  1.0000
  C   C30       1.0  0.014249999999999992  0.34176  0.38383  1.0000
  C   C31       1.0  0.59457  0.58331  0.94323  1.0000
  C   C32       1.0  0.44946  0.5734600000000002  0.911  1.0000
  C   C33       1.0  0.38239  0.5006800000000002  0.85732  1.0000
  C   C34       1.0  0.4574500000000001  0.43764  0.83439  1.0000
  C   C35       1.0  0.60166  0.44736  0.8653  1.0000
  C   C36       1.0  0.66984  0.51926  0.91967  1.0000
  C   C37       1.0  0.9742800000000001  0.68127  0.93214  1.0000
  C   C38       1.0  0.022410000000000083  0.7361400000000003  0.8796  1.0000
  C   C39       1.0  0.010840000000000002  0.70769  0.79418  1.0000
  C   C40       1.0  0.96009  0.6234600000000001  0.76188  1.0000
  C   C41       1.0  0.9163700000000001  0.56886  0.8167  1.0000
  C   C42       1.0  0.9187700000000001  0.59744  0.90045  1.0000
  C   C43       1.0  0.87624  0.90611  0.9558  1.0000
  C   C44       1.0  0.78137  0.9655200000000003  0.9419000000000002  1.0000
  C   C45       1.0  0.78789  0.022480000000000003  0.88181  1.0000
  C   C46       1.0  0.88555  0.018800000000000004  0.83273  1.0000
  C   C47       1.0  0.9781600000000001  0.95913  0.84481  1.0000
  C   C48       1.0  0.97643  0.9040400000000001  0.90677  1.0000
  C   C49       1.0  0.48475000000000007  0.80869  0.9621  1.0000
  C   C50       1.0  0.52564  0.8856400000000002  0.93307  1.0000
  C   C51       1.0  0.46773  0.89977  0.85006  1.0000
  C   C52       1.0  0.3778300000000001  0.8359700000000002  0.7944  1.0000
  C   C53       1.0  0.34639  0.75634  0.81985  1.0000
  C   C54       1.0  0.39821000000000006  0.7426500000000003  0.90424  1.0000
  C   C55       1.0  0.08279999999999998  0.69069  0.08166  1.0000
  C   C56       1.0  0.026030000000000032  0.66684  0.15618000000000007  1.0000
  C   C57       1.0  0.95713  0.58789  0.67108  1.0000
  C   C58       1.0  0.07115000000000002  0.52927  0.67737  1.0000
  C   C59       1.0  0.8133399999999998  0.5370700000000003  0.62945  1.0000
  C   C60       1.0  0.98574  0.65824  0.61616  1.0000
  S   S1        1.0  0.14902  0.47085  0.0328  1.0000
  S   S2        1.0  0.8895800000000001  0.16169  0.07424  1.0000
  S   S3        1.0  0.34977  0.03355  0.99954  1.0000
  S   S4        1.0  0.65404  0.35284  0.05557  1.0000
  S   S5        1.0  0.10802999999999997  0.9119  0.24683  1.0000
  S   S6        1.0  0.7023  0.13895000000000005  0.30706  1.0000
  S   S7        1.0  0.62896  0.6560400000000002  0.23381  1.0000
  S   S8        1.0  0.85098  0.52914  0.9672  1.0000
  S   S9        1.0  0.11041000000000004  0.8383100000000002  0.92576  1.0000
  S   S10       1.0  0.65023  0.96645  0.0004600000000000001  1.0000
  S   S11       1.0  0.34596000000000005  0.64716  0.9444300000000002  1.0000
  S   S12       1.0  0.89197  0.0881  0.75317  1.0000
  S   S13       1.0  0.2977  0.86105  0.69294  1.0000
  S   S14       1.0  0.37104  0.34396  0.76619  1.0000
  O   O1        1.0  0.34307000000000004  0.3461100000000001  0.00498  1.0000
  O   O2        1.0  0.02638999999999998  0.28735  0.98597  1.0000
  O   O3        1.0  0.13284  0.14612  0.98419  1.0000
  O   O4        1.0  0.46967  0.19866  0.95468  1.0000
  O   O5        1.0  0.90342  0.3660900000000001  0.7864300000000002  1.0000
  O   O6        1.0  0.10244000000000006  0.3156200000000001  0.84875  1.0000
  O   O7        1.0  0.95887  0.88483  0.24187  1.0000
  O   O8        1.0  0.17055  0.96617  0.33025  1.0000
  O   O9        1.0  0.19029  0.84475  0.23124  1.0000
  O   O10       1.0  0.61979  0.05757  0.31735  1.0000
  O   O11       1.0  0.69291  0.20882  0.37003  1.0000
  O   O12       1.0  0.84662  0.12543  0.30558  1.0000
  O   O13       1.0  0.77622  0.6388000000000003  0.26345  1.0000
  O   O14       1.0  0.55682  0.66669  0.30176  1.0000
  O   O15       1.0  0.62083  0.72525  0.17768  1.0000
  O   O16       1.0  0.9861  0.92059  0.55833  1.0000
  O   O17       1.0  0.26776  0.04022  0.57227  1.0000
  O   O18       1.0  0.42733000000000004  0.026410000000000013  0.40481  1.0000
  O   O19       1.0  0.29272  0.83611  0.47384000000000004  1.0000
  O   O20       1.0  0.6569200000000001  0.6538900000000002  0.99502  1.0000
  O   O21       1.0  0.9736099999999999  0.7126500000000002  0.01402  1.0000
  O   O22       1.0  0.86716  0.85387  0.01581  1.0000
  O   O23       1.0  0.53032  0.80134  0.04532  1.0000
  O   O24       1.0  0.09657000000000004  0.6339100000000002  0.21357  1.0000
  O   O25       1.0  0.89756  0.68438  0.15125  1.0000
  O   O26       1.0  0.04112999999999999  0.11517000000000001  0.75813  1.0000
  O   O27       1.0  0.82945  0.03383000000000001  0.66975  1.0000
  O   O28       1.0  0.8097099999999999  0.15525  0.76876  1.0000
  O   O29       1.0  0.3802  0.94243  0.68265  1.0000
  O   O30       1.0  0.30709  0.7911700000000003  0.62996  1.0000
  O   O31       1.0  0.1533700000000001  0.8745700000000004  0.69441  1.0000
  O   O32       1.0  0.22378  0.3612  0.73655  1.0000
  O   O33       1.0  0.4431800000000001  0.33330999999999994  0.69824  1.0000
  O   O34       1.0  0.37917  0.27475  0.82232  1.0000
  O   O35       1.0  0.013900000000000001  0.07941000000000002  0.44167  1.0000
  O   O36       1.0  0.73224  0.95978  0.42773  1.0000
  O   O37       1.0  0.57267  0.97359  0.59519  1.0000
  O   O38       1.0  0.7072799999999999  0.16388  0.52616  1.0000
