data_image0
_chemical_formula_structural       Gd2H48C88S8N8O24
_chemical_formula_sum              "Gd2 H48 C88 S8 N8 O24"
_cell_length_a       9.9443
_cell_length_b       15.31567
_cell_length_c       15.31579
_cell_angle_alpha    89.99955
_cell_angle_beta     90.0
_cell_angle_gamma    89.99865999999999

_symmetry_space_group_name_H-M    'P 1'
_symmetry_Int_Tables_number       1

loop_
  _symmetry_equiv_pos_as_xyz
  'x,y,z'

loop_
  _atom_site_type_symbol
  _atom_site_label
  _atom_site_symmetry_multiplicity
  _atom_site_fract_x
  _atom_site_fract_y
  _atom_site_fract_z
  _atom_site_occupancy
  Gd  Gd1       1.0  0.74947  0.49997999999999987  0.49999  1.0000
  Gd  Gd2       1.0  0.24939  0.49997999999999987  0.5  1.0000
  H   H1        1.0  0.78251  0.5822199999999997  0.73749  1.0000
  H   H2        1.0  0.78329  0.7181599999999998  0.8245600000000002  1.0000
  H   H3        1.0  0.78249  0.4177799999999999  0.2625100000000001  1.0000
  H   H4        1.0  0.78328  0.28183  0.17544  1.0000
  H   H5        1.0  0.7820699999999998  0.2626399999999999  0.58178  1.0000
  H   H6        1.0  0.7823399999999998  0.17375999999999994  0.71654  1.0000
  H   H7        1.0  0.7821099999999999  0.73735  0.41823  1.0000
  H   H8        1.0  0.7823799999999999  0.82622  0.28348  1.0000
  H   H9        1.0  0.71657  0.41808  0.73713  1.0000
  H   H10       1.0  0.71637  0.2820799999999999  0.82399  1.0000
  H   H11       1.0  0.71657  0.5819199999999998  0.26288  1.0000
  H   H12       1.0  0.71638  0.7179199999999998  0.17602  1.0000
  H   H13       1.0  0.71687  0.73717  0.5814  1.0000
  H   H14       1.0  0.7174799999999999  0.82634  0.71593  1.0000
  H   H15       1.0  0.71681  0.26283  0.41863  1.0000
  H   H16       1.0  0.7174799999999999  0.17366  0.28409  1.0000
  H   H17       1.0  0.21686  0.4185899999999999  0.26284  1.0000
  H   H18       1.0  0.21734999999999996  0.28384  0.17398  1.0000
  H   H19       1.0  0.21689  0.5814099999999998  0.73716  1.0000
  H   H20       1.0  0.21736  0.71616  0.82602  1.0000
  H   H21       1.0  0.21650999999999998  0.73729  0.4181400000000001  1.0000
  H   H22       1.0  0.21642  0.8243499999999998  0.28222000000000014  1.0000
  H   H23       1.0  0.21644  0.26271  0.5818400000000002  1.0000
  H   H24       1.0  0.21644  0.17565  0.7177800000000002  1.0000
  H   H25       1.0  0.28212  0.58178  0.2626500000000001  1.0000
  H   H26       1.0  0.2822299999999999  0.71631  0.17344  1.0000
  H   H27       1.0  0.28212  0.41823  0.7373500000000002  1.0000
  H   H28       1.0  0.28224999999999995  0.2836999999999999  0.82656  1.0000
  H   H29       1.0  0.28239  0.2626699999999999  0.4177300000000001  1.0000
  H   H30       1.0  0.28332  0.17578999999999995  0.28171  1.0000
  H   H31       1.0  0.28243  0.73731  0.58228  1.0000
  H   H32       1.0  0.28334999999999994  0.8242  0.7182900000000002  1.0000
  H   H33       1.0  0.00706  0.83831  0.69427  1.0000
  H   H34       1.0  0.00696  0.0106  0.65487  1.0000
  H   H35       1.0  0.00705  0.16168999999999994  0.3057400000000001  1.0000
  H   H36       1.0  0.00696  0.9894  0.34513  1.0000
  H   H37       1.0  0.9928799999999999  0.30574  0.83832  1.0000
  H   H38       1.0  0.99296  0.34512  0.0106  1.0000
  H   H39       1.0  0.9928799999999999  0.6942699999999998  0.16168  1.0000
  H   H40       1.0  0.99296  0.6548799999999998  0.9894  1.0000
  H   H41       1.0  0.49184  0.1617  0.69472  1.0000
  H   H42       1.0  0.4909  0.9893799999999998  0.6554900000000001  1.0000
  H   H43       1.0  0.49182999999999993  0.8382999999999999  0.30529  1.0000
  H   H44       1.0  0.4909  0.01063  0.34453  1.0000
  H   H45       1.0  0.50811  0.69472  0.8383  1.0000
  H   H46       1.0  0.50908  0.6554799999999997  0.010620000000000003  1.0000
  H   H47       1.0  0.5081  0.30529  0.16171  1.0000
  H   H48       1.0  0.50909  0.3445199999999999  0.98938  1.0000
  C   C1        1.0  0.8775499999999999  0.611  0.75739  1.0000
  C   C2        1.0  0.8782099999999999  0.6884099999999997  0.80549  1.0000
  C   C3        1.0  0.8775299999999999  0.3889899999999999  0.24261  1.0000
  C   C4        1.0  0.8782  0.31158  0.19451  1.0000
  C   C5        1.0  0.8769899999999999  0.24233  0.61053  1.0000
  C   C6        1.0  0.8774399999999999  0.19311  0.68726  1.0000
  C   C7        1.0  0.8770299999999998  0.7576599999999998  0.38949  1.0000
  C   C8        1.0  0.8774699999999999  0.80689  0.31277  1.0000
  C   C9        1.0  0.6215899999999999  0.3893399999999999  0.75728  1.0000
  C   C10       1.0  0.6213  0.31177  0.80509  1.0000
  C   C11       1.0  0.6215899999999999  0.61066  0.24273  1.0000
  C   C12       1.0  0.6213  0.6882399999999997  0.19493000000000005  1.0000
  C   C13       1.0  0.62209  0.7577799999999998  0.6101400000000002  1.0000
  C   C14       1.0  0.62215  0.80696  0.68689  1.0000
  C   C15       1.0  0.62207  0.24221  0.3898600000000001  1.0000
  C   C16       1.0  0.6221399999999999  0.19304  0.31311  1.0000
  C   C17       1.0  0.12208999999999999  0.38973  0.24242  1.0000
  C   C18       1.0  0.12207  0.31297  0.19322  1.0000
  C   C19       1.0  0.1221  0.6102699999999998  0.75758  1.0000
  C   C20       1.0  0.12207999999999998  0.6870199999999997  0.80678  1.0000
  C   C21       1.0  0.12158999999999998  0.7572999999999998  0.38925  1.0000
  C   C22       1.0  0.12133  0.80539  0.31182  1.0000
  C   C23       1.0  0.12155999999999999  0.24269999999999994  0.61076  1.0000
  C   C24       1.0  0.12133  0.19462  0.68819  1.0000
  C   C25       1.0  0.37702  0.6103999999999998  0.24214  1.0000
  C   C26       1.0  0.37739999999999996  0.6871199999999997  0.19293  1.0000
  C   C27       1.0  0.3770299999999999  0.38960999999999996  0.75787  1.0000
  C   C28       1.0  0.37741  0.3128899999999999  0.80708  1.0000
  C   C29       1.0  0.37749  0.24262  0.38908  1.0000
  C   C30       1.0  0.37822  0.19481  0.31153  1.0000
  C   C31       1.0  0.37752999999999987  0.7573699999999998  0.6109100000000002  1.0000
  C   C32       1.0  0.37825  0.80519  0.68846  1.0000
  C   C33       1.0  0.99957  0.57226  0.73385  1.0000
  C   C34       1.0  0.00035  0.72689  0.83039  1.0000
  C   C35       1.0  0.0004999999999999999  0.8097499999999997  0.88149  1.0000
  C   C36       1.0  0.99137  0.8889499999999998  0.83426  1.0000
  C   C37       1.0  0.00014  0.8935999999999997  0.73836  1.0000
  C   C38       1.0  0.9997  0.97999  0.71848  1.0000
  C   C39       1.0  0.99082  0.02649  0.80247  1.0000
  C   C40       1.0  0.9995399999999999  0.42773  0.26614  1.0000
  C   C41       1.0  0.00035  0.27311  0.16961  1.0000
  C   C42       1.0  0.0004999999999999999  0.19026  0.11851  1.0000
  C   C43       1.0  0.99136  0.11105  0.16574  1.0000
  C   C44       1.0  0.00014  0.10641  0.26164  1.0000
  C   C45       1.0  0.9997  0.020009999999999997  0.28152  1.0000
  C   C46       1.0  0.99082  0.9735099999999998  0.19753  1.0000
  C   C47       1.0  0.99923  0.26615  0.57228  1.0000
  C   C48       1.0  0.9993999999999998  0.16961999999999994  0.7269  1.0000
  C   C49       1.0  0.99956  0.11850999999999998  0.80974  1.0000
  C   C50       1.0  0.00866  0.16573999999999994  0.88895  1.0000
  C   C51       1.0  0.99984  0.26164  0.8936000000000002  1.0000
  C   C52       1.0  0.00028  0.2815199999999999  0.97999  1.0000
  C   C53       1.0  0.00918  0.19752999999999996  0.026490000000000007  1.0000
  C   C54       1.0  0.9992799999999998  0.7338399999999998  0.42775  1.0000
  C   C55       1.0  0.99941  0.8303899999999997  0.2731200000000001  1.0000
  C   C56       1.0  0.99956  0.8814899999999998  0.19026  1.0000
  C   C57       1.0  0.008649999999999998  0.83426  0.11105  1.0000
  C   C58       1.0  0.99983  0.7383599999999998  0.10640000000000002  1.0000
  C   C59       1.0  0.00027  0.71848  0.02001  1.0000
  C   C60       1.0  0.00918  0.80247  0.9735100000000002  1.0000
  C   C61       1.0  0.49926  0.4279099999999999  0.7340400000000001  1.0000
  C   C62       1.0  0.49940999999999997  0.2730999999999999  0.83032  1.0000
  C   C63       1.0  0.4999  0.19026  0.88154  1.0000
  C   C64       1.0  0.51047  0.11102999999999998  0.8345  1.0000
  C   C65       1.0  0.50036  0.1064  0.7386900000000002  1.0000
  C   C66       1.0  0.50051  0.020029999999999996  0.71888  1.0000
  C   C67       1.0  0.51047  0.9734699999999997  0.80267  1.0000
  C   C68       1.0  0.49925  0.5721  0.26598  1.0000
  C   C69       1.0  0.4993999999999999  0.7269199999999998  0.1697  1.0000
  C   C70       1.0  0.4999  0.8097499999999997  0.11847000000000003  1.0000
  C   C71       1.0  0.51047  0.88897  0.16551000000000005  1.0000
  C   C72       1.0  0.50035  0.89361  0.26132  1.0000
  C   C73       1.0  0.50051  0.9799699999999998  0.2811300000000001  1.0000
  C   C74       1.0  0.51047  0.02653  0.19734  1.0000
  C   C75       1.0  0.49959  0.73405  0.5720800000000003  1.0000
  C   C76       1.0  0.50035  0.83031  0.72691  1.0000
  C   C77       1.0  0.50016  0.88153  0.80975  1.0000
  C   C78       1.0  0.48958  0.8344999999999998  0.8889700000000001  1.0000
  C   C79       1.0  0.49965  0.73869  0.8936100000000002  1.0000
  C   C80       1.0  0.49951  0.71888  0.97997  1.0000
  C   C81       1.0  0.4895899999999999  0.8026799999999997  0.02653  1.0000
  C   C82       1.0  0.49954999999999994  0.26592  0.4279  1.0000
  C   C83       1.0  0.50034  0.1697  0.2731  1.0000
  C   C84       1.0  0.50016  0.11847999999999997  0.19027  1.0000
  C   C85       1.0  0.48958  0.16550999999999993  0.11104  1.0000
  C   C86       1.0  0.49965  0.26132  0.10640000000000002  1.0000
  C   C87       1.0  0.49951  0.28111999999999987  0.02004  1.0000
  C   C88       1.0  0.4895899999999999  0.19732999999999995  0.97348  1.0000
  S   S1        1.0  0.9986199999999998  0.46749  0.68245  1.0000
  S   S2        1.0  0.9986199999999998  0.5324999999999999  0.31752  1.0000
  S   S3        1.0  0.9986799999999999  0.31753  0.46751  1.0000
  S   S4        1.0  0.99875  0.68241  0.53251  1.0000
  S   S5        1.0  0.49873  0.53246  0.6824300000000002  1.0000
  S   S6        1.0  0.49869999999999987  0.46755999999999986  0.31759  1.0000
  S   S7        1.0  0.49863  0.68245  0.46754  1.0000
  S   S8        1.0  0.49858  0.31747  0.53246  1.0000
  N   N1        1.0  0.9791799999999998  0.9699299999999997  0.87085  1.0000
  N   N2        1.0  0.9791799999999998  0.03008  0.12916  1.0000
  N   N3        1.0  0.020899999999999995  0.12916  0.96992  1.0000
  N   N4        1.0  0.02089  0.87084  0.03008  1.0000
  N   N5        1.0  0.52369  0.030049999999999993  0.871  1.0000
  N   N6        1.0  0.52369  0.96996  0.12901  1.0000
  N   N7        1.0  0.47642  0.87101  0.96996  1.0000
  N   N8        1.0  0.47642  0.129  0.03006  1.0000
  O   O1        1.0  0.87408  0.46217999999999987  0.62855  1.0000
  O   O2        1.0  0.87395  0.5378  0.37134  1.0000
  O   O3        1.0  0.8739899999999999  0.3713299999999999  0.46226  1.0000
  O   O4        1.0  0.87423  0.62843  0.53777  1.0000
  O   O5        1.0  0.62136  0.5377299999999999  0.62702  1.0000
  O   O6        1.0  0.62135  0.4622799999999999  0.37298  1.0000
  O   O7        1.0  0.62119  0.6269399999999998  0.46224  1.0000
  O   O8        1.0  0.6210099999999998  0.3731099999999999  0.53773  1.0000
  O   O9        1.0  0.12112  0.5378899999999998  0.37305  1.0000
  O   O10       1.0  0.12121999999999998  0.4620999999999999  0.6269700000000002  1.0000
  O   O11       1.0  0.12136  0.62698  0.53796  1.0000
  O   O12       1.0  0.12117  0.37306  0.46208  1.0000
  O   O13       1.0  0.37416  0.46238  0.37144  1.0000
  O   O14       1.0  0.37416  0.53762  0.62855  1.0000
  O   O15       1.0  0.37372999999999995  0.37101999999999996  0.53757  1.0000
  O   O16       1.0  0.37397  0.62872  0.4624  1.0000
  O   O17       1.0  0.9998799999999999  0.40472999999999987  0.7544  1.0000
  O   O18       1.0  0.9998999999999999  0.59527  0.24558  1.0000
  O   O19       1.0  0.99997  0.24559999999999996  0.40474  1.0000
  O   O20       1.0  0.9999099999999999  0.75436  0.59526  1.0000
  O   O21       1.0  0.49991  0.59536  0.75426  1.0000
  O   O22       1.0  0.49991  0.40463  0.24574  1.0000
  O   O23       1.0  0.49993  0.7542799999999997  0.40464  1.0000
  O   O24       1.0  0.50001  0.24568999999999994  0.59538  1.0000
