data_image0
_chemical_formula_structural       Tb8H40C56S8O48
_chemical_formula_sum              "Tb8 H40 C56 S8 O48"
_cell_length_a       8.28353
_cell_length_b       17.20264
_cell_length_c       17.21166
_cell_angle_alpha    90.03074
_cell_angle_beta     89.97384
_cell_angle_gamma    90.15386

_symmetry_space_group_name_H-M    'P 1'
_symmetry_Int_Tables_number       1

loop_
  _symmetry_equiv_pos_as_xyz
  'x,y,z'

loop_
  _atom_site_type_symbol
  _atom_site_label
  _atom_site_symmetry_multiplicity
  _atom_site_fract_x
  _atom_site_fract_y
  _atom_site_fract_z
  _atom_site_occupancy
  Tb  Tb1       1.0  0.14857999999999993  0.8927700000000001  0.96425  1.0000
  Tb  Tb2       1.0  0.15087  0.10798  0.03697  1.0000
  Tb  Tb3       1.0  0.85143  0.9642100000000001  0.10723  1.0000
  Tb  Tb4       1.0  0.8526  0.03643000000000001  0.89311  1.0000
  Tb  Tb5       1.0  0.3524  0.60681  0.46451  1.0000
  Tb  Tb6       1.0  0.34924  0.39337  0.5370399999999997  1.0000
  Tb  Tb7       1.0  0.6505599999999998  0.53576  0.6075499999999998  1.0000
  Tb  Tb8       1.0  0.6468299999999998  0.46357  0.3922899999999999  1.0000
  H   H1        1.0  0.07665  0.74424  0.7425199999999997  1.0000
  H   H2        1.0  0.8236799999999997  0.9504100000000001  0.6714499999999998  1.0000
  H   H3        1.0  0.7528699999999998  0.88708  0.54487  1.0000
  H   H4        1.0  0.85073  0.75286  0.51682  1.0000
  H   H5        1.0  0.19963  0.95815  0.11606  1.0000
  H   H6        1.0  0.07526  0.2558500000000001  0.25794  1.0000
  H   H7        1.0  0.82169  0.04949  0.32949  1.0000
  H   H8        1.0  0.75152  0.11283  0.45621  1.0000
  H   H9        1.0  0.84964  0.24733  0.48386999999999997  1.0000
  H   H10       1.0  0.20078  0.04192  0.88626  1.0000
  H   H11       1.0  0.92377  0.74245  0.25594  1.0000
  H   H12       1.0  0.17659  0.67142  0.04945999999999998  1.0000
  H   H13       1.0  0.24732  0.54483  0.11261  1.0000
  H   H14       1.0  0.14958  0.51683  0.24693  1.0000
  H   H15       1.0  0.8  0.11589000000000002  0.04185  1.0000
  H   H16       1.0  0.9245299999999997  0.25722  0.74453  1.0000
  H   H17       1.0  0.17913  0.32955  0.95012  1.0000
  H   H18       1.0  0.24804999999999996  0.45653  0.8867999999999998  1.0000
  H   H19       1.0  0.14872  0.48389000000000004  0.75269  1.0000
  H   H20       1.0  0.7998099999999998  0.88505  0.9582299999999999  1.0000
  H   H21       1.0  0.4235399999999999  0.7557400000000001  0.24260999999999996  1.0000
  H   H22       1.0  0.67652  0.54955  0.17125999999999994  1.0000
  H   H23       1.0  0.7474  0.61288  0.04468  1.0000
  H   H24       1.0  0.6495399999999998  0.7471  0.01685  1.0000
  H   H25       1.0  0.30089  0.54228  0.61618  1.0000
  H   H26       1.0  0.42402  0.24397999999999997  0.75748  1.0000
  H   H27       1.0  0.67617  0.45095  0.8285599999999997  1.0000
  H   H28       1.0  0.74813  0.38778999999999997  0.9550999999999998  1.0000
  H   H29       1.0  0.651  0.25314  0.98294  1.0000
  H   H30       1.0  0.29927  0.45818  0.38539  1.0000
  H   H31       1.0  0.57659  0.75754  0.7559399999999997  1.0000
  H   H32       1.0  0.3239199999999999  0.82829  0.5495399999999999  1.0000
  H   H33       1.0  0.25294  0.9549  0.61268  1.0000
  H   H34       1.0  0.3504499999999999  0.98308  0.74701  1.0000
  H   H35       1.0  0.6988099999999998  0.38401  0.54159  1.0000
  H   H36       1.0  0.57553  0.24266000000000001  0.24460999999999997  1.0000
  H   H37       1.0  0.32091  0.1705  0.4503  1.0000
  H   H38       1.0  0.25209  0.043540000000000016  0.38691999999999993  1.0000
  H   H39       1.0  0.35121999999999987  0.01609  0.25274  1.0000
  H   H40       1.0  0.70024  0.6148  0.45804  1.0000
  C   C1        1.0  0.9670699999999999  0.7414700000000001  0.62867  1.0000
  C   C2        1.0  0.0065200000000000015  0.7756600000000002  0.69948  1.0000
  C   C3        1.0  0.9555999999999998  0.85211  0.7140199999999998  1.0000
  C   C4        1.0  0.9985799999999999  0.89194  0.78826  1.0000
  C   C5        1.0  0.86386  0.89175  0.6583099999999997  1.0000
  C   C6        1.0  0.82465  0.85624  0.5877699999999998  1.0000
  C   C7        1.0  0.87753  0.78098  0.57205  1.0000
  C   C8        1.0  0.96586  0.25878  0.37193  1.0000
  C   C9        1.0  0.005240000000000001  0.22449  0.30124  1.0000
  C   C10       1.0  0.9538899999999998  0.14795  0.28699  1.0000
  C   C11       1.0  0.99683  0.10821  0.21291  1.0000
  C   C12       1.0  0.8618699999999998  0.10824000000000003  0.34267  1.0000
  C   C13       1.0  0.82312  0.14378  0.41319999999999996  1.0000
  C   C14       1.0  0.8763399999999998  0.21915000000000004  0.42869  1.0000
  C   C15       1.0  0.03346999999999997  0.62865  0.25854  1.0000
  C   C16       1.0  0.99396  0.69944  0.22444  1.0000
  C   C17       1.0  0.04482  0.71399  0.14794  1.0000
  C   C18       1.0  0.002120000000000001  0.7882200000000003  0.10821999999999998  1.0000
  C   C19       1.0  0.13644  0.65827  0.10815  1.0000
  C   C20       1.0  0.17555  0.5877200000000001  0.14352  1.0000
  C   C21       1.0  0.12278  0.57202  0.21884  1.0000
  C   C22       1.0  0.033339999999999995  0.37149  0.7415399999999999  1.0000
  C   C23       1.0  0.9946799999999999  0.30059  0.7758  1.0000
  C   C24       1.0  0.04679  0.28643  0.8521  1.0000
  C   C25       1.0  0.006440000000000001  0.21192000000000005  0.89188  1.0000
  C   C26       1.0  0.13821  0.3426  0.8915899999999999  1.0000
  C   C27       1.0  0.17636  0.41329  0.85609  1.0000
  C   C28       1.0  0.12272  0.42859  0.78089  1.0000
  C   C29       1.0  0.53315  0.75851  0.12872  1.0000
  C   C30       1.0  0.49366999999999994  0.72431  0.19951  1.0000
  C   C31       1.0  0.54471  0.64788  0.21393  1.0000
  C   C32       1.0  0.50273  0.60815  0.28831  1.0000
  C   C33       1.0  0.63627  0.60818  0.15811999999999996  1.0000
  C   C34       1.0  0.67546  0.64368  0.08760999999999997  1.0000
  C   C35       1.0  0.62269  0.71896  0.07203999999999998  1.0000
  C   C36       1.0  0.53457  0.24138000000000004  0.8711599999999998  1.0000
  C   C37       1.0  0.49426  0.27553  0.80055  1.0000
  C   C38       1.0  0.54461  0.3522  0.7862199999999999  1.0000
  C   C39       1.0  0.50092  0.39198  0.71224  1.0000
  C   C40       1.0  0.63658  0.39213  0.8417899999999999  1.0000
  C   C41       1.0  0.67647  0.3567  0.91219  1.0000
  C   C42       1.0  0.62411  0.28122  0.92776  1.0000
  C   C43       1.0  0.46678999999999987  0.8713  0.75857  1.0000
  C   C44       1.0  0.50643  0.8005  0.72445  1.0000
  C   C45       1.0  0.4557  0.78588  0.6479799999999998  1.0000
  C   C46       1.0  0.49889  0.71169  0.60821  1.0000
  C   C47       1.0  0.364  0.8415100000000001  0.60821  1.0000
  C   C48       1.0  0.32474  0.9120800000000002  0.6436  1.0000
  C   C49       1.0  0.37739  0.9278600000000001  0.71891  1.0000
  C   C50       1.0  0.46673  0.12843  0.24158  1.0000
  C   C51       1.0  0.50545  0.19931  0.27591  1.0000
  C   C52       1.0  0.45334999999999986  0.21351000000000006  0.35226  1.0000
  C   C53       1.0  0.49344999999999994  0.28808  0.39209  1.0000
  C   C54       1.0  0.3618799999999999  0.15741  0.39175  1.0000
  C   C55       1.0  0.32379  0.08673  0.35619  1.0000
  C   C56       1.0  0.37739  0.07138  0.28097  1.0000
  S   S1        1.0  0.0333  0.6465  0.6049  1.0000
  S   S2        1.0  0.03162  0.35403  0.39541  1.0000
  S   S3        1.0  0.96749  0.6047300000000001  0.35364999999999996  1.0000
  S   S4        1.0  0.96645  0.39479  0.64662  1.0000
  S   S5        1.0  0.46735  0.8535500000000001  0.10505  1.0000
  S   S6        1.0  0.46849  0.14633  0.89511  1.0000
  S   S7        1.0  0.5328  0.89525  0.8535999999999998  1.0000
  S   S8        1.0  0.53316  0.10505  0.14656  1.0000
  O   O1        1.0  0.14291  0.66001  0.53729  1.0000
  O   O2        1.0  0.88412  0.60562  0.57792  1.0000
  O   O3        1.0  0.11265  0.61024  0.6716499999999999  1.0000
  O   O4        1.0  0.06300999999999998  0.85189  0.8427699999999998  1.0000
  O   O5        1.0  0.9679799999999998  0.96465  0.7934  1.0000
  O   O6        1.0  0.12668  0.9729199999999999  0.07366  1.0000
  O   O7        1.0  0.14021  0.34093  0.46343  1.0000
  O   O8        1.0  0.88181  0.39441  0.42181  1.0000
  O   O9        1.0  0.11202  0.39006  0.32867  1.0000
  O   O10       1.0  0.06456  0.14819  0.15925999999999996  1.0000
  O   O11       1.0  0.9628699999999998  0.03581  0.20703  1.0000
  O   O12       1.0  0.12754  0.027430000000000003  0.92877  1.0000
  O   O13       1.0  0.8577599999999997  0.53696  0.34002  1.0000
  O   O14       1.0  0.11700999999999998  0.57812  0.39421  1.0000
  O   O15       1.0  0.88778  0.67142  0.38999  1.0000
  O   O16       1.0  0.93859  0.8430000000000002  0.14829999999999993  1.0000
  O   O17       1.0  0.0319  0.79314  0.03537  1.0000
  O   O18       1.0  0.87393  0.07381  0.027389999999999994  1.0000
  O   O19       1.0  0.85686  0.46223  0.6602  1.0000
  O   O20       1.0  0.11498  0.42222  0.6056999999999999  1.0000
  O   O21       1.0  0.88686  0.32793  0.61047  1.0000
  O   O22       1.0  0.9432099999999998  0.15692  0.85185  1.0000
  O   O23       1.0  0.03855  0.20699  0.9643999999999999  1.0000
  O   O24       1.0  0.8734099999999998  0.92747  0.97272  1.0000
  O   O25       1.0  0.3574  0.84002  0.03753  1.0000
  O   O26       1.0  0.61683  0.89424  0.07803999999999997  1.0000
  O   O27       1.0  0.38774  0.88992  0.17174  1.0000
  O   O28       1.0  0.4408  0.64834  0.3433199999999999  1.0000
  O   O29       1.0  0.53206  0.5353  0.29311  1.0000
  O   O30       1.0  0.3734899999999999  0.52737  0.57369  1.0000
  O   O31       1.0  0.3597  0.16003  0.9629699999999999  1.0000
  O   O32       1.0  0.61782  0.10579000000000002  0.92187  1.0000
  O   O33       1.0  0.38789  0.10988  0.8286499999999999  1.0000
  O   O34       1.0  0.43559  0.3517400000000001  0.65805  1.0000
  O   O35       1.0  0.53202  0.46467  0.70689  1.0000
  O   O36       1.0  0.37256  0.47278  0.42775  1.0000
  O   O37       1.0  0.64248  0.96306  0.8400699999999998  1.0000
  O   O38       1.0  0.38343  0.92197  0.8943  1.0000
  O   O39       1.0  0.6123699999999997  0.8285700000000003  0.88994  1.0000
  O   O40       1.0  0.5634  0.65717  0.64816  1.0000
  O   O41       1.0  0.46817  0.70669  0.53552  1.0000
  O   O42       1.0  0.62605  0.4265200000000001  0.52733  1.0000
  O   O43       1.0  0.64228  0.03745  0.15994  1.0000
  O   O44       1.0  0.38397  0.07806  0.10571  1.0000
  O   O45       1.0  0.61278  0.17185  0.11021999999999997  1.0000
  O   O46       1.0  0.55699  0.34292  0.35194  1.0000
  O   O47       1.0  0.46083999999999997  0.29321  0.46451  1.0000
  O   O48       1.0  0.62719  0.57231  0.47283  1.0000
