data_image0
_chemical_formula_structural       Mn8H56C112N8O32
_chemical_formula_sum              "Mn8 H56 C112 N8 O32"
_cell_length_a       13.05344
_cell_length_b       14.07493
_cell_length_c       18.6622
_cell_angle_alpha    89.96702
_cell_angle_beta     94.95156999999999
_cell_angle_gamma    89.9525

_symmetry_space_group_name_H-M    'P 1'
_symmetry_Int_Tables_number       1

loop_
  _symmetry_equiv_pos_as_xyz
  'x,y,z'

loop_
  _atom_site_type_symbol
  _atom_site_label
  _atom_site_symmetry_multiplicity
  _atom_site_fract_x
  _atom_site_fract_y
  _atom_site_fract_z
  _atom_site_occupancy
  Mn  Mn1       1.0  0.0016699999999999942  0.45965  0.72091  1.0000
  Mn  Mn2       1.0  0.06773000000000001  0.30596000000000007  0.85629  1.0000
  Mn  Mn3       1.0  0.49836000000000014  0.95984  0.7797  1.0000
  Mn  Mn4       1.0  0.4326300000000001  0.80558  0.64449  1.0000
  Mn  Mn5       1.0  0.99834  0.54036  0.27909  1.0000
  Mn  Mn6       1.0  0.93227  0.69404  0.14370999999999998  1.0000
  Mn  Mn7       1.0  0.50164  0.04016000000000001  0.22029  1.0000
  Mn  Mn8       1.0  0.56738  0.19443  0.35551  1.0000
  H   H1        1.0  0.2332  0.12333000000000001  0.73028  1.0000
  H   H2        1.0  0.2965400000000001  0.04811  0.51604  1.0000
  H   H3        1.0  0.13596  0.30966  0.55612  1.0000
  H   H4        1.0  0.10353000000000001  0.3221300000000001  0.44786  1.0000
  H   H5        1.0  0.21889000000000006  0.275  0.24324  1.0000
  H   H6        1.0  0.34111  0.11202  0.4257  1.0000
  H   H7        1.0  0.99484  0.12867  0.74778  1.0000
  H   H8        1.0  0.87576  0.9882300000000002  0.75046  1.0000
  H   H9        1.0  0.8063700000000003  0.9432400000000001  0.8656299999999999  1.0000
  H   H10       1.0  0.8051100000000002  0.97393  0.00055  1.0000
  H   H11       1.0  0.8563900000000002  0.07462  0.10628  1.0000
  H   H12       1.0  0.9476300000000002  0.22171000000000005  0.15836  1.0000
  H   H13       1.0  0.05573  0.36333  0.13871  1.0000
  H   H14       1.0  0.11179000000000003  0.39289  0.013869999999999999  1.0000
  H   H15       1.0  0.26701  0.62199  0.77035  1.0000
  H   H16       1.0  0.20342000000000005  0.54844  0.9848099999999999  1.0000
  H   H17       1.0  0.3642600000000001  0.80925  0.94373  1.0000
  H   H18       1.0  0.39622000000000007  0.822  0.051759999999999994  1.0000
  H   H19       1.0  0.28176  0.77541  0.25675999999999993  1.0000
  H   H20       1.0  0.15905  0.6121300000000002  0.07481  1.0000
  H   H21       1.0  0.5055  0.6281900000000001  0.75201  1.0000
  H   H22       1.0  0.62484  0.48765  0.74941  1.0000
  H   H23       1.0  0.6941500000000003  0.44271  0.6341699999999999  1.0000
  H   H24       1.0  0.6952  0.47361  0.4992  1.0000
  H   H25       1.0  0.64364  0.57462  0.39356  1.0000
  H   H26       1.0  0.55224  0.7219300000000002  0.34166  1.0000
  H   H27       1.0  0.44411000000000006  0.86368  0.36148  1.0000
  H   H28       1.0  0.3881400000000001  0.89297  0.4863799999999999  1.0000
  H   H29       1.0  0.7668100000000001  0.87668  0.26971999999999996  1.0000
  H   H30       1.0  0.70347  0.9519  0.48395999999999995  1.0000
  H   H31       1.0  0.86405  0.6903400000000001  0.44387  1.0000
  H   H32       1.0  0.8964700000000001  0.6778800000000001  0.5521399999999999  1.0000
  H   H33       1.0  0.78111  0.7250100000000002  0.75676  1.0000
  H   H34       1.0  0.65889  0.88798  0.5743  1.0000
  H   H35       1.0  0.005160000000000006  0.87134  0.25222  1.0000
  H   H36       1.0  0.12425000000000001  0.01178  0.24953999999999998  1.0000
  H   H37       1.0  0.19364  0.05676  0.13437  1.0000
  H   H38       1.0  0.19489000000000004  0.02608  0.99944  1.0000
  H   H39       1.0  0.14362  0.92538  0.89372  1.0000
  H   H40       1.0  0.05236999999999999  0.7783  0.8416399999999998  1.0000
  H   H41       1.0  0.94427  0.63668  0.86129  1.0000
  H   H42       1.0  0.88821  0.60711  0.9861299999999998  1.0000
  H   H43       1.0  0.733  0.37802  0.22965  1.0000
  H   H44       1.0  0.79659  0.4515600000000001  0.015189999999999999  1.0000
  H   H45       1.0  0.6357400000000001  0.19075000000000003  0.056269999999999994  1.0000
  H   H46       1.0  0.60378  0.17801000000000003  0.9482399999999999  1.0000
  H   H47       1.0  0.7182400000000002  0.2246  0.7432399999999999  1.0000
  H   H48       1.0  0.8409500000000002  0.3878800000000001  0.9251899999999998  1.0000
  H   H49       1.0  0.4945100000000001  0.37182000000000004  0.24799  1.0000
  H   H50       1.0  0.37517  0.51236  0.25059  1.0000
  H   H51       1.0  0.30586  0.5573  0.36583  1.0000
  H   H52       1.0  0.30481  0.5264  0.5008  1.0000
  H   H53       1.0  0.3563600000000001  0.42539000000000005  0.60644  1.0000
  H   H54       1.0  0.4477600000000001  0.27808  0.65834  1.0000
  H   H55       1.0  0.5559  0.13633  0.6385199999999998  1.0000
  H   H56       1.0  0.61186  0.10704  0.51362  1.0000
  C   C1        1.0  0.12114000000000001  0.28336  0.6959399999999999  1.0000
  C   C2        1.0  0.1762  0.22094000000000003  0.64684  1.0000
  C   C3        1.0  0.22776000000000002  0.13939  0.6731399999999997  1.0000
  C   C4        1.0  0.27133  0.07790000000000001  0.62523  1.0000
  C   C5        1.0  0.32899000000000006  0.99237  0.6541899999999999  1.0000
  C   C6        1.0  0.26434  0.099  0.55174  1.0000
  C   C7        1.0  0.21877  0.18395  0.5248699999999998  1.0000
  C   C8        1.0  0.17385000000000003  0.24378  0.57361  1.0000
  C   C9        1.0  0.21907000000000004  0.20990000000000003  0.44781999999999994  1.0000
  C   C10       1.0  0.15532  0.28206  0.41663999999999995  1.0000
  C   C11       1.0  0.15631  0.30601000000000006  0.34387  1.0000
  C   C12       1.0  0.09404  0.38792  0.31389  1.0000
  C   C13       1.0  0.21893  0.25628  0.29977999999999994  1.0000
  C   C14       1.0  0.28469000000000005  0.18606  0.33031  1.0000
  C   C15       1.0  0.35762  0.13747  0.28585  1.0000
  C   C16       1.0  0.28593  0.16451  0.40367  1.0000
  C   C17       1.0  0.96267  0.1072  0.79721  1.0000
  C   C18       1.0  0.8969500000000002  0.02836  0.79929  1.0000
  C   C19       1.0  0.85898  0.00312  0.86368  1.0000
  C   C20       1.0  0.8877500000000002  0.05704  0.92609  1.0000
  C   C21       1.0  0.8541700000000002  0.03559  0.99544  1.0000
  C   C22       1.0  0.8823600000000003  0.09134  0.05386  1.0000
  C   C23       1.0  0.9455800000000002  0.17367  0.04762  1.0000
  C   C24       1.0  0.9738400000000003  0.23573000000000002  0.10550999999999999  1.0000
  C   C25       1.0  0.033290000000000014  0.31504  0.09446  1.0000
  C   C26       1.0  0.06509000000000001  0.33158  0.02552  1.0000
  C   C27       1.0  0.9810200000000002  0.1963  0.9798399999999999  1.0000
  C   C28       1.0  0.9525700000000001  0.1368  0.91853  1.0000
  C   C29       1.0  0.37952  0.7813100000000001  0.80411  1.0000
  C   C30       1.0  0.32441  0.71972  0.85353  1.0000
  C   C31       1.0  0.27251  0.63839  0.82743  1.0000
  C   C32       1.0  0.22867  0.5775600000000001  0.87557  1.0000
  C   C33       1.0  0.17042  0.49235  0.84723  1.0000
  C   C34       1.0  0.23568000000000003  0.59901  0.94892  1.0000
  C   C35       1.0  0.2812200000000001  0.68392  0.9754  1.0000
  C   C36       1.0  0.3264000000000001  0.7433200000000001  0.92654  1.0000
  C   C37       1.0  0.28079  0.70994  0.05228999999999999  1.0000
  C   C38       1.0  0.34457  0.78202  0.08312  1.0000
  C   C39       1.0  0.3439500000000001  0.80612  0.15581  1.0000
  C   C40       1.0  0.4069  0.8879100000000001  0.18494999999999995  1.0000
  C   C41       1.0  0.28139  0.75676  0.20019  1.0000
  C   C42       1.0  0.21543000000000007  0.68659  0.16994999999999996  1.0000
  C   C43       1.0  0.14284  0.63804  0.21477999999999994  1.0000
  C   C44       1.0  0.21409  0.66474  0.09664  1.0000
  C   C45       1.0  0.5377800000000001  0.60668  0.70266  1.0000
  C   C46       1.0  0.6035500000000001  0.5278  0.70056  1.0000
  C   C47       1.0  0.64147  0.50262  0.63614  1.0000
  C   C48       1.0  0.6125800000000001  0.55664  0.57375  1.0000
  C   C49       1.0  0.6461  0.53531  0.50437  1.0000
  C   C50       1.0  0.6177500000000002  0.59126  0.44599999999999995  1.0000
  C   C51       1.0  0.55444  0.67364  0.45233  1.0000
  C   C52       1.0  0.52605  0.73588  0.39452  1.0000
  C   C53       1.0  0.46654  0.81522  0.40567999999999993  1.0000
  C   C54       1.0  0.43486000000000014  0.83161  0.47468  1.0000
  C   C55       1.0  0.5191000000000001  0.69616  0.52014  1.0000
  C   C56       1.0  0.54772  0.63646  0.58136  1.0000
  C   C57       1.0  0.8788600000000002  0.71665  0.30405999999999994  1.0000
  C   C58       1.0  0.8238  0.7790600000000002  0.35316  1.0000
  C   C59       1.0  0.7722500000000002  0.86061  0.32686  1.0000
  C   C60       1.0  0.72868  0.92211  0.37476  1.0000
  C   C61       1.0  0.67102  0.0076300000000000005  0.34581  1.0000
  C   C62       1.0  0.7356600000000002  0.90101  0.44825999999999994  1.0000
  C   C63       1.0  0.7812300000000002  0.81605  0.4751299999999999  1.0000
  C   C64       1.0  0.8261500000000002  0.75623  0.4263899999999999  1.0000
  C   C65       1.0  0.7809300000000002  0.79011  0.55218  1.0000
  C   C66       1.0  0.8446800000000001  0.71794  0.58336  1.0000
  C   C67       1.0  0.84369  0.694  0.65613  1.0000
  C   C68       1.0  0.9059700000000003  0.61209  0.68611  1.0000
  C   C69       1.0  0.78107  0.7437300000000002  0.70022  1.0000
  C   C70       1.0  0.7153200000000002  0.81394  0.66969  1.0000
  C   C71       1.0  0.64239  0.86253  0.71415  1.0000
  C   C72       1.0  0.71407  0.8355  0.5963299999999998  1.0000
  C   C73       1.0  0.03733000000000001  0.8928000000000001  0.20278999999999994  1.0000
  C   C74       1.0  0.10305  0.97165  0.20071  1.0000
  C   C75       1.0  0.14102  0.99688  0.13630999999999996  1.0000
  C   C76       1.0  0.11226  0.94297  0.07391  1.0000
  C   C77       1.0  0.14584  0.96442  0.00456  1.0000
  C   C78       1.0  0.11764999999999998  0.90867  0.9461399999999998  1.0000
  C   C79       1.0  0.05442000000000001  0.82634  0.9523799999999999  1.0000
  C   C80       1.0  0.026170000000000006  0.7642800000000001  0.89449  1.0000
  C   C81       1.0  0.9667100000000002  0.68496  0.90554  1.0000
  C   C82       1.0  0.93491  0.66843  0.9744799999999999  1.0000
  C   C83       1.0  0.01899  0.80371  0.02016  1.0000
  C   C84       1.0  0.047430000000000014  0.8632100000000003  0.08146999999999997  1.0000
  C   C85       1.0  0.6204800000000003  0.2187  0.19589  1.0000
  C   C86       1.0  0.67559  0.28028  0.14646999999999993  1.0000
  C   C87       1.0  0.7274900000000001  0.36162  0.17256999999999995  1.0000
  C   C88       1.0  0.77134  0.42244  0.12443  1.0000
  C   C89       1.0  0.82958  0.50765  0.15277  1.0000
  C   C90       1.0  0.76433  0.401  0.051079999999999987  1.0000
  C   C91       1.0  0.71879  0.31609  0.024589999999999994  1.0000
  C   C92       1.0  0.6736  0.25669  0.07345  1.0000
  C   C93       1.0  0.71921  0.29007  0.94771  1.0000
  C   C94       1.0  0.65543  0.21799  0.9168799999999999  1.0000
  C   C95       1.0  0.6560600000000001  0.19388  0.8441899999999999  1.0000
  C   C96       1.0  0.5931000000000001  0.1121  0.8150499999999998  1.0000
  C   C97       1.0  0.71861  0.24325  0.79981  1.0000
  C   C98       1.0  0.7845700000000001  0.31342  0.83005  1.0000
  C   C99       1.0  0.8571600000000003  0.36196  0.7852199999999998  1.0000
  C   C100      1.0  0.7859200000000002  0.33527000000000007  0.90335  1.0000
  C   C101      1.0  0.46222  0.39333  0.29734  1.0000
  C   C102      1.0  0.39645  0.47221  0.29943999999999993  1.0000
  C   C103      1.0  0.35854  0.49739  0.36386  1.0000
  C   C104      1.0  0.38743000000000005  0.44337000000000004  0.42625  1.0000
  C   C105      1.0  0.35391  0.46469  0.49563  1.0000
  C   C106      1.0  0.38226  0.40875  0.554  1.0000
  C   C107      1.0  0.44556000000000007  0.32637  0.54767  1.0000
  C   C108      1.0  0.47395000000000004  0.26413  0.60548  1.0000
  C   C109      1.0  0.53347  0.18479000000000004  0.5943199999999998  1.0000
  C   C110      1.0  0.56515  0.16839  0.5253199999999998  1.0000
  C   C111      1.0  0.48091000000000006  0.30384  0.47985  1.0000
  C   C112      1.0  0.4522800000000001  0.36355  0.41863999999999996  1.0000
  N   N1        1.0  0.04041999999999998  0.27394  0.9695599999999999  1.0000
  N   N2        1.0  0.9891800000000001  0.16101  0.85493  1.0000
  N   N3        1.0  0.4596900000000001  0.77384  0.53061  1.0000
  N   N4        1.0  0.51122  0.66061  0.6449599999999999  1.0000
  N   N5        1.0  0.9595900000000003  0.7260700000000002  0.030429999999999995  1.0000
  N   N6        1.0  0.010820000000000001  0.83899  0.14507  1.0000
  N   N7        1.0  0.54031  0.22616  0.46938  1.0000
  N   N8        1.0  0.48879  0.3394  0.3550399999999999  1.0000
  O   O1        1.0  0.06928  0.35187000000000007  0.66675  1.0000
  O   O2        1.0  0.12806  0.26181  0.763  1.0000
  O   O3        1.0  0.361  0.9947  0.72051  1.0000
  O   O4        1.0  0.34353  0.9237  0.6108999999999999  1.0000
  O   O5        1.0  0.04453  0.43792  0.35715999999999987  1.0000
  O   O6        1.0  0.09358000000000001  0.40911000000000003  0.24750999999999998  1.0000
  O   O7        1.0  0.33867  0.12354  0.21971999999999997  1.0000
  O   O8        1.0  0.44508  0.10919  0.31949  1.0000
  O   O9        1.0  0.4301899999999999  0.85103  0.8322999999999998  1.0000
  O   O10       1.0  0.3736400000000001  0.75764  0.7375499999999999  1.0000
  O   O11       1.0  0.13719000000000003  0.49484  0.78116  1.0000
  O   O12       1.0  0.15644000000000002  0.42376  0.8907199999999998  1.0000
  O   O13       1.0  0.45516  0.93805  0.14112  1.0000
  O   O14       1.0  0.40919  0.90915  0.25140999999999997  1.0000
  O   O15       1.0  0.16229  0.6237300000000001  0.28078  1.0000
  O   O16       1.0  0.055  0.6098  0.18176  1.0000
  O   O17       1.0  0.93073  0.64813  0.33325  1.0000
  O   O18       1.0  0.87194  0.73819  0.23699999999999996  1.0000
  O   O19       1.0  0.639  0.00531  0.27949  1.0000
  O   O20       1.0  0.65648  0.07631  0.3890999999999999  1.0000
  O   O21       1.0  0.9554700000000002  0.56209  0.64284  1.0000
  O   O22       1.0  0.9064300000000002  0.59089  0.7524899999999998  1.0000
  O   O23       1.0  0.6613300000000002  0.87647  0.78028  1.0000
  O   O24       1.0  0.55493  0.89081  0.68051  1.0000
  O   O25       1.0  0.56982  0.14898  0.16769999999999996  1.0000
  O   O26       1.0  0.6263600000000001  0.24237  0.26245  1.0000
  O   O27       1.0  0.86282  0.50517  0.21884  1.0000
  O   O28       1.0  0.8435700000000002  0.57625  0.10928  1.0000
  O   O29       1.0  0.5448400000000001  0.06196  0.8588799999999999  1.0000
  O   O30       1.0  0.5908200000000001  0.09086  0.7485799999999999  1.0000
  O   O31       1.0  0.83772  0.37627  0.7192199999999997  1.0000
  O   O32       1.0  0.9450100000000002  0.39021  0.81824  1.0000
