data_image0
_chemical_formula_structural       Tb4Cu6H48C48O60
_chemical_formula_sum              "Tb4 Cu6 H48 C48 O60"
_cell_length_a       14.92224
_cell_length_b       14.92059
_cell_length_c       15.07253
_cell_angle_alpha    90.00166000000002
_cell_angle_beta     90.00135
_cell_angle_gamma    120.08241

_symmetry_space_group_name_H-M    'P 1'
_symmetry_Int_Tables_number       1

loop_
  _symmetry_equiv_pos_as_xyz
  'x,y,z'

loop_
  _atom_site_type_symbol
  _atom_site_label
  _atom_site_symmetry_multiplicity
  _atom_site_fract_x
  _atom_site_fract_y
  _atom_site_fract_z
  _atom_site_occupancy
  Tb  Tb1       1.0  0.66561  0.33194  0.2493  1.0000
  Tb  Tb2       1.0  0.33376999999999996  0.6668999999999999  0.24931  1.0000
  Tb  Tb3       1.0  0.3331399999999998  0.6662199999999998  0.75043  1.0000
  Tb  Tb4       1.0  0.6664499999999998  0.3331099999999999  0.75018  1.0000
  Cu  Cu1       1.0  0.9998900000000001  0.49996  0.49993  1.0000
  Cu  Cu2       1.0  0.5000699999999999  0.5000499999999999  0.50005  1.0000
  Cu  Cu3       1.0  0.49992  8e-05  0.50009  1.0000
  Cu  Cu4       1.0  0.50008  0.9999799999999999  0.99986  1.0000
  Cu  Cu5       1.0  0.50005  0.49995  0.9999300000000001  1.0000
  Cu  Cu6       1.0  9.999999999950432e-06  0.5000299999999999  0.0  1.0000
  H   H1        1.0  0.8372  0.63634  0.34703  1.0000
  H   H2        1.0  0.91898  0.63073  0.26244  1.0000
  H   H3        1.0  0.36364  0.20080999999999993  0.34714  1.0000
  H   H4        1.0  0.36917  0.28829  0.26246  1.0000
  H   H5        1.0  0.7990499999999999  0.16299999999999995  0.34701  1.0000
  H   H6        1.0  0.7115699999999998  0.08113  0.26249  1.0000
  H   H7        1.0  0.16274999999999992  0.36349999999999993  0.34709  1.0000
  H   H8        1.0  0.08093000000000003  0.36899  0.26235  1.0000
  H   H9        1.0  0.6367899999999999  0.7993699999999998  0.34715  1.0000
  H   H10       1.0  0.6312199999999998  0.71202  0.26243  1.0000
  H   H11       1.0  0.20079  0.83731  0.34713  1.0000
  H   H12       1.0  0.28816  0.9191999999999999  0.26247  1.0000
  H   H13       1.0  0.6373199999999998  0.83813  0.1525  1.0000
  H   H14       1.0  0.63074  0.9189399999999998  0.23734  1.0000
  H   H15       1.0  0.20083999999999994  0.3628399999999999  0.15247  1.0000
  H   H16       1.0  0.28834  0.36954  0.23732000000000006  1.0000
  H   H17       1.0  0.16212999999999994  0.79919  0.15256  1.0000
  H   H18       1.0  0.08135000000000002  0.71178  0.23749  1.0000
  H   H19       1.0  0.36304  0.16212999999999997  0.15257  1.0000
  H   H20       1.0  0.36992  0.08133  0.23736  1.0000
  H   H21       1.0  0.79912  0.63709  0.15258  1.0000
  H   H22       1.0  0.7114999999999998  0.63023  0.23725  1.0000
  H   H23       1.0  0.83774  0.20107  0.15256  1.0000
  H   H24       1.0  0.9185299999999995  0.28863  0.23733  1.0000
  H   H25       1.0  0.16272  0.36345  0.6529200000000002  1.0000
  H   H26       1.0  0.08090999999999997  0.3689699999999999  0.73762  1.0000
  H   H27       1.0  0.6367299999999999  0.7993699999999998  0.65285  1.0000
  H   H28       1.0  0.6311599999999998  0.71199  0.73761  1.0000
  H   H29       1.0  0.20075  0.83733  0.65285  1.0000
  H   H30       1.0  0.2881499999999999  0.9191699999999998  0.73756  1.0000
  H   H31       1.0  0.83748  0.6367499999999999  0.6528700000000002  1.0000
  H   H32       1.0  0.91924  0.6312099999999998  0.73752  1.0000
  H   H33       1.0  0.3633999999999999  0.20067  0.6528700000000002  1.0000
  H   H34       1.0  0.36898999999999993  0.28808  0.73762  1.0000
  H   H35       1.0  0.7993  0.16271999999999995  0.6528700000000002  1.0000
  H   H36       1.0  0.71185  0.08084999999999999  0.7376  1.0000
  H   H37       1.0  0.36292  0.16207999999999997  0.8474500000000003  1.0000
  H   H38       1.0  0.36953999999999987  0.08121  0.76258  1.0000
  H   H39       1.0  0.79922  0.63731  0.8474500000000003  1.0000
  H   H40       1.0  0.7117999999999999  0.6305999999999998  0.76265  1.0000
  H   H41       1.0  0.8379399999999998  0.20084  0.8474500000000003  1.0000
  H   H42       1.0  0.9187899999999999  0.28829  0.76262  1.0000
  H   H43       1.0  0.6371799999999995  0.8380299999999998  0.84748  1.0000
  H   H44       1.0  0.6306  0.91884  0.76263  1.0000
  H   H45       1.0  0.20080999999999996  0.36285999999999996  0.8474500000000003  1.0000
  H   H46       1.0  0.2883299999999998  0.3695999999999999  0.7626400000000001  1.0000
  H   H47       1.0  0.16205999999999993  0.79919  0.8474500000000003  1.0000
  H   H48       1.0  0.08123999999999997  0.71176  0.76259  1.0000
  C   C1        1.0  0.8681499999999999  0.5109399999999998  0.3612800000000001  1.0000
  C   C2        1.0  0.8503399999999997  0.5845099999999999  0.30401  1.0000
  C   C3        1.0  0.4887899999999999  0.35733  0.36139  1.0000
  C   C4        1.0  0.4152599999999999  0.26585999999999993  0.3040500000000001  1.0000
  C   C5        1.0  0.64259  0.13185  0.36142  1.0000
  C   C6        1.0  0.73397  0.14971  0.30408  1.0000
  C   C7        1.0  0.13132999999999997  0.48868999999999996  0.3611  1.0000
  C   C8        1.0  0.14945999999999995  0.41515999999999986  0.30404  1.0000
  C   C9        1.0  0.51154  0.64271  0.3612100000000001  1.0000
  C   C10       1.0  0.58509  0.73436  0.30406  1.0000
  C   C11       1.0  0.35742  0.86882  0.3612100000000001  1.0000
  C   C12       1.0  0.26581  0.85061  0.30409  1.0000
  C   C13       1.0  0.5117399999999999  0.8686899999999999  0.13812  1.0000
  C   C14       1.0  0.5849399999999999  0.85043  0.19554000000000005  1.0000
  C   C15       1.0  0.35711  0.48842999999999986  0.13797  1.0000
  C   C16       1.0  0.26563  0.41524  0.19552  1.0000
  C   C17       1.0  0.13151999999999994  0.64294  0.13823  1.0000
  C   C18       1.0  0.14974999999999988  0.7344499999999998  0.19562  1.0000
  C   C19       1.0  0.48884  0.13204  0.13788000000000006  1.0000
  C   C20       1.0  0.41543  0.14976  0.19548000000000004  1.0000
  C   C21       1.0  0.64311  0.51134  0.13783  1.0000
  C   C22       1.0  0.73433  0.5845  0.19557  1.0000
  C   C23       1.0  0.86808  0.35705999999999993  0.13792  1.0000
  C   C24       1.0  0.85004  0.26584  0.19554000000000005  1.0000
  C   C25       1.0  0.1312399999999999  0.48856999999999995  0.63872  1.0000
  C   C26       1.0  0.14942  0.41515  0.6959200000000002  1.0000
  C   C27       1.0  0.51156  0.64266  0.63883  1.0000
  C   C28       1.0  0.58505  0.7343499999999997  0.69596  1.0000
  C   C29       1.0  0.35738999999999993  0.86882  0.6387100000000001  1.0000
  C   C30       1.0  0.26578  0.85064  0.6958700000000002  1.0000
  C   C31       1.0  0.8688999999999998  0.51158  0.63869  1.0000
  C   C32       1.0  0.8506999999999998  0.5849899999999999  0.69586  1.0000
  C   C33       1.0  0.4885899999999998  0.3573499999999999  0.63883  1.0000
  C   C34       1.0  0.41508  0.26570999999999995  0.69596  1.0000
  C   C35       1.0  0.64274  0.13131  0.6388  1.0000
  C   C36       1.0  0.73431  0.14942  0.69594  1.0000
  C   C37       1.0  0.4885199999999999  0.13153999999999996  0.86187  1.0000
  C   C38       1.0  0.4152399999999999  0.14969  0.80443  1.0000
  C   C39       1.0  0.64297  0.51158  0.86192  1.0000
  C   C40       1.0  0.7344599999999998  0.58483  0.80441  1.0000
  C   C41       1.0  0.86857  0.35709  0.8618900000000002  1.0000
  C   C42       1.0  0.8503399999999998  0.26562  0.80443  1.0000
  C   C43       1.0  0.51154  0.86854  0.86181  1.0000
  C   C44       1.0  0.5847999999999998  0.8503299999999999  0.80443  1.0000
  C   C45       1.0  0.357  0.4885299999999999  0.86195  1.0000
  C   C46       1.0  0.2655899999999999  0.41526999999999986  0.80442  1.0000
  C   C47       1.0  0.13148000000000007  0.64295  0.86179  1.0000
  C   C48       1.0  0.1496899999999999  0.7344399999999999  0.8044000000000002  1.0000
  O   O1        1.0  0.8056299999999996  0.4145299999999999  0.35605  1.0000
  O   O2        1.0  0.9478599999999998  0.55792  0.41066  1.0000
  O   O3        1.0  0.58522  0.39167  0.35604  1.0000
  O   O4        1.0  0.4418599999999999  0.3899599999999999  0.4107  1.0000
  O   O5        1.0  0.60858  0.19381999999999994  0.35632  1.0000
  O   O6        1.0  0.61005  0.05189  0.41086  1.0000
  O   O7        1.0  0.19309000000000007  0.58496  0.35507  1.0000
  O   O8        1.0  0.05179  0.44151  0.41085  1.0000
  O   O9        1.0  0.41527999999999987  0.60812  0.3554  1.0000
  O   O10       1.0  0.5585999999999998  0.61026  0.41083  1.0000
  O   O11       1.0  0.3920599999999998  0.8071799999999998  0.3555400000000001  1.0000
  O   O12       1.0  0.3898199999999999  0.94838  0.41082  1.0000
  O   O13       1.0  0.41535999999999984  0.8067299999999997  0.14318  1.0000
  O   O14       1.0  0.55901  0.9488999999999999  0.08926  1.0000
  O   O15       1.0  0.39148  0.5846699999999999  0.14299  1.0000
  O   O16       1.0  0.38992  0.44094  0.08927  1.0000
  O   O17       1.0  0.19319000000000003  0.60849  0.1434  1.0000
  O   O18       1.0  0.05142999999999994  0.6101999999999999  0.08921  1.0000
  O   O19       1.0  0.5848699999999998  0.19439  0.14264  1.0000
  O   O20       1.0  0.44141999999999987  0.0514  0.0892  1.0000
  O   O21       1.0  0.6091  0.41493999999999986  0.14272  1.0000
  O   O22       1.0  0.6100199999999999  0.5585199999999999  0.08933  1.0000
  O   O23       1.0  0.8056999999999997  0.39085  0.14283000000000007  1.0000
  O   O24       1.0  0.9484  0.39008  0.08927  1.0000
  O   O25       1.0  0.19305000000000005  0.58492  0.6442600000000002  1.0000
  O   O26       1.0  0.051589999999999976  0.44138  0.58918  1.0000
  O   O27       1.0  0.41524999999999984  0.6079399999999999  0.64458  1.0000
  O   O28       1.0  0.5586299999999998  0.61029  0.5892  1.0000
  O   O29       1.0  0.3919399999999999  0.80715  0.64434  1.0000
  O   O30       1.0  0.3897399999999998  0.9484399999999997  0.58915  1.0000
  O   O31       1.0  0.80701  0.41525  0.6446  1.0000
  O   O32       1.0  0.94847  0.55871  0.58909  1.0000
  O   O33       1.0  0.5849499999999999  0.39213999999999993  0.6446  1.0000
  O   O34       1.0  0.4415599999999999  0.3897399999999999  0.58922  1.0000
  O   O35       1.0  0.6081199999999999  0.19299  0.64439  1.0000
  O   O36       1.0  0.61025  0.05178999999999999  0.58919  1.0000
  O   O37       1.0  0.5848399999999998  0.19336  0.85691  1.0000
  O   O38       1.0  0.44114  0.05129  0.91075  1.0000
  O   O39       1.0  0.60876  0.4153999999999999  0.85674  1.0000
  O   O40       1.0  0.61022  0.55903  0.9107800000000003  1.0000
  O   O41       1.0  0.8068499999999998  0.39150999999999997  0.8568  1.0000
  O   O42       1.0  0.94881  0.38987  0.9107800000000003  1.0000
  O   O43       1.0  0.41521999999999987  0.80669  0.8566800000000002  1.0000
  O   O44       1.0  0.55891  0.9487399999999999  0.91076  1.0000
  O   O45       1.0  0.39116999999999985  0.5847499999999999  0.8569700000000002  1.0000
  O   O46       1.0  0.38989  0.44115  0.9106800000000003  1.0000
  O   O47       1.0  0.19323999999999983  0.6085799999999999  0.8565400000000002  1.0000
  O   O48       1.0  0.05138000000000001  0.61016  0.91079  1.0000
  O   O49       1.0  0.76204  0.52434  0.24995  1.0000
  O   O50       1.0  0.4755099999999999  0.23779  0.24997  1.0000
  O   O51       1.0  0.76201  0.23797999999999994  0.25002  1.0000
  O   O52       1.0  0.23789  0.47547  0.24996000000000004  1.0000
  O   O53       1.0  0.5248699999999998  0.7624199999999999  0.25005  1.0000
  O   O54       1.0  0.2377399999999999  0.76233  0.25002  1.0000
  O   O55       1.0  0.23780999999999994  0.47544999999999993  0.74999  1.0000
  O   O56       1.0  0.52469  0.76228  0.74993  1.0000
  O   O57       1.0  0.2376099999999999  0.76229  0.74989  1.0000
  O   O58       1.0  0.7623299999999996  0.5247399999999999  0.7499700000000002  1.0000
  O   O59       1.0  0.47538999999999987  0.23773  0.74996  1.0000
  O   O60       1.0  0.7624399999999998  0.23779  0.74991  1.0000
