data_image0
_chemical_formula_structural       Zn8H36C92O40
_chemical_formula_sum              "Zn8 H36 C92 O40"
_cell_length_a       12.61563
_cell_length_b       16.4775
_cell_length_c       19.846660000000004
_cell_angle_alpha    92.32507
_cell_angle_beta     90.19283
_cell_angle_gamma    89.86182

_symmetry_space_group_name_H-M    'P 1'
_symmetry_Int_Tables_number       1

loop_
  _symmetry_equiv_pos_as_xyz
  'x,y,z'

loop_
  _atom_site_type_symbol
  _atom_site_label
  _atom_site_symmetry_multiplicity
  _atom_site_fract_x
  _atom_site_fract_y
  _atom_site_fract_z
  _atom_site_occupancy
  Zn  Zn1       1.0  0.44196  0.8503399999999998  0.7826800000000002  1.0000
  Zn  Zn2       1.0  0.8759700000000002  0.33321  0.65141  1.0000
  Zn  Zn3       1.0  0.94466  0.15191999999999994  0.71866  1.0000
  Zn  Zn4       1.0  0.3739400000000001  0.66515  0.8468899999999999  1.0000
  Zn  Zn5       1.0  0.5580400000000001  0.14975999999999995  0.21727  1.0000
  Zn  Zn6       1.0  0.12407000000000003  0.66607  0.34844  1.0000
  Zn  Zn7       1.0  0.05551000000000001  0.84775  0.28142  1.0000
  Zn  Zn8       1.0  0.6260400000000002  0.33465  0.15307  1.0000
  H   H1        1.0  0.22769000000000006  0.16797  0.648  1.0000
  H   H2        1.0  0.45372000000000007  0.25708  0.50587  1.0000
  H   H3        1.0  0.12283000000000002  0.3248999999999999  0.4948600000000001  1.0000
  H   H4        1.0  0.6596600000000002  0.05772999999999998  0.71888  1.0000
  H   H5        1.0  0.5604700000000001  0.25614  0.59945  1.0000
  H   H6        1.0  0.33845  0.06633  0.64755  1.0000
  H   H7        1.0  0.3921500000000001  0.4530099999999999  0.26938  1.0000
  H   H8        1.0  0.20375000000000004  0.43734  0.44828  1.0000
  H   H9        1.0  0.42817  0.24643999999999996  0.39264  1.0000
  H   H10       1.0  0.7246000000000002  0.83278  0.8525900000000001  1.0000
  H   H11       1.0  0.9521600000000001  0.7409899999999998  0.99371  1.0000
  H   H12       1.0  0.62128  0.67525  0.00514  1.0000
  H   H13       1.0  0.15664000000000003  0.9405499999999998  0.78242  1.0000
  H   H14       1.0  0.05717  0.7414  0.9000999999999999  1.0000
  H   H15       1.0  0.8360300000000003  0.9334999999999998  0.8534799999999999  1.0000
  H   H16       1.0  0.8916800000000003  0.54507  0.23007  1.0000
  H   H17       1.0  0.7022000000000002  0.5621499999999998  0.05092  1.0000
  H   H18       1.0  0.92869  0.75105  0.10662  1.0000
  H   H19       1.0  0.7723600000000003  0.83182  0.35212  1.0000
  H   H20       1.0  0.54643  0.7424799999999998  0.49424  1.0000
  H   H21       1.0  0.8774600000000002  0.6751  0.50535  1.0000
  H   H22       1.0  0.34057000000000004  0.9421699999999997  0.28113  1.0000
  H   H23       1.0  0.43937000000000004  0.74371  0.40069  1.0000
  H   H24       1.0  0.66185  0.9329999999999998  0.35256  1.0000
  H   H25       1.0  0.60815  0.54621  0.73032  1.0000
  H   H26       1.0  0.7969700000000001  0.5622900000000001  0.55166  1.0000
  H   H27       1.0  0.57244  0.7530699999999999  0.60731  1.0000
  H   H28       1.0  0.27555  0.16702  0.14714  1.0000
  H   H29       1.0  0.04749  0.25875  0.00632  1.0000
  H   H30       1.0  0.37821  0.3248999999999999  0.99467  1.0000
  H   H31       1.0  0.84348  0.05944999999999999  0.21782  1.0000
  H   H32       1.0  0.9426500000000002  0.2584199999999999  0.09994  1.0000
  H   H33       1.0  0.16413000000000005  0.06654  0.14677  1.0000
  H   H34       1.0  0.10788000000000003  0.45478  0.76973  1.0000
  H   H35       1.0  0.29715  0.43788  0.94889  1.0000
  H   H36       1.0  0.07065  0.24887999999999996  0.89339  1.0000
  C   C1        1.0  0.0564  0.24175999999999995  0.60377  1.0000
  C   C2        1.0  0.16557  0.24544  0.5737  1.0000
  C   C3        1.0  0.24731000000000006  0.20299  0.60448  1.0000
  C   C4        1.0  0.35294  0.20814  0.58168  1.0000
  C   C5        1.0  0.3732  0.2535499999999999  0.52496  1.0000
  C   C6        1.0  0.2916  0.29462  0.49189  1.0000
  C   C7        1.0  0.18744000000000005  0.29236  0.51832  1.0000
  C   C8        1.0  0.47005000000000013  0.9791899999999999  0.72088  1.0000
  C   C9        1.0  0.7318600000000002  0.1924399999999999  0.66154  1.0000
  C   C10       1.0  0.4955700000000001  0.05550999999999999  0.68689  1.0000
  C   C11       1.0  0.5981000000000001  0.08783999999999997  0.69055  1.0000
  C   C12       1.0  0.62105  0.15953  0.65762  1.0000
  C   C13       1.0  0.5414900000000001  0.1991  0.62235  1.0000
  C   C14       1.0  0.43802000000000013  0.16690999999999998  0.61819  1.0000
  C   C15       1.0  0.4164800000000001  0.09432999999999996  0.65073  1.0000
  C   C16       1.0  0.4971000000000001  0.30855  0.27779  1.0000
  C   C17       1.0  0.23747000000000001  0.52972  0.34059  1.0000
  C   C18       1.0  0.4187600000000001  0.3458799999999999  0.32677  1.0000
  C   C19       1.0  0.37006  0.42019  0.31366  1.0000
  C   C20       1.0  0.29117  0.45168  0.35709  1.0000
  C   C21       1.0  0.26304  0.41032  0.41450000000000004  1.0000
  C   C22       1.0  0.31462  0.3371399999999999  0.42975  1.0000
  C   C23       1.0  0.39117  0.30492  0.38436  1.0000
  C   C24       1.0  0.55368  0.7594999999999997  0.89633  1.0000
  C   C25       1.0  0.6631500000000001  0.75491  0.9264200000000001  1.0000
  C   C26       1.0  0.7445700000000002  0.79719  0.8958200000000001  1.0000
  C   C27       1.0  0.85049  0.79113  0.9184  1.0000
  C   C28       1.0  0.8713900000000002  0.74513  0.97478  1.0000
  C   C29       1.0  0.7901400000000001  0.7044099999999998  0.00771  1.0000
  C   C30       1.0  0.6855700000000001  0.70751  0.98156  1.0000
  C   C31       1.0  0.96703  0.020969999999999992  0.78102  1.0000
  C   C32       1.0  0.22814000000000006  0.80464  0.83843  1.0000
  C   C33       1.0  0.99268  0.94375  0.8141299999999999  1.0000
  C   C34       1.0  0.09490000000000003  0.91065  0.8103400000000001  1.0000
  C   C35       1.0  0.11764  0.83832  0.8427000000000001  1.0000
  C   C36       1.0  0.038380000000000004  0.79893  0.87773  1.0000
  C   C37       1.0  0.9352600000000002  0.83195  0.88209  1.0000
  C   C38       1.0  0.9138000000000002  0.90499  0.84999  1.0000
  C   C39       1.0  0.99609  0.6896399999999998  0.22206999999999996  1.0000
  C   C40       1.0  0.7359  0.4700099999999998  0.158  1.0000
  C   C41       1.0  0.9186800000000002  0.65195  0.17264  1.0000
  C   C42       1.0  0.8697200000000003  0.57802  0.18569  1.0000
  C   C43       1.0  0.7905500000000002  0.54722  0.14197  1.0000
  C   C44       1.0  0.76214  0.5886899999999998  0.0846  1.0000
  C   C45       1.0  0.8140300000000001  0.66139  0.06949  1.0000
  C   C46       1.0  0.89124  0.6929199999999998  0.11487  1.0000
  C   C47       1.0  0.94375  0.7583  0.39618  1.0000
  C   C48       1.0  0.8346900000000003  0.75454  0.42638  1.0000
  C   C49       1.0  0.7527700000000003  0.79681  0.39564  1.0000
  C   C50       1.0  0.6471  0.79146  0.41838000000000003  1.0000
  C   C51       1.0  0.62693  0.74597  0.47506  1.0000
  C   C52       1.0  0.7087000000000001  0.7049999999999997  0.50804  1.0000
  C   C53       1.0  0.8128900000000001  0.70751  0.4817199999999999  1.0000
  C   C54       1.0  0.5301100000000001  0.02087  0.27945  1.0000
  C   C55       1.0  0.26819  0.8073299999999999  0.3384  1.0000
  C   C56       1.0  0.5046300000000001  0.9443999999999999  0.31335  1.0000
  C   C57       1.0  0.40204  0.9121  0.30959  1.0000
  C   C58       1.0  0.37897  0.8403399999999998  0.34243  1.0000
  C   C59       1.0  0.4584300000000001  0.80071  0.37776  1.0000
  C   C60       1.0  0.56197  0.8327499999999998  0.38192  1.0000
  C   C61       1.0  0.5836100000000001  0.90534  0.34943  1.0000
  C   C62       1.0  0.50427  0.69157  0.72223  1.0000
  C   C63       1.0  0.7627600000000001  0.4698999999999999  0.6593100000000001  1.0000
  C   C64       1.0  0.58187  0.65368  0.67317  1.0000
  C   C65       1.0  0.63025  0.57927  0.68616  1.0000
  C   C66       1.0  0.70918  0.54788  0.64272  1.0000
  C   C67       1.0  0.7374100000000002  0.5891699999999997  0.58532  1.0000
  C   C68       1.0  0.68581  0.66234  0.57011  1.0000
  C   C69       1.0  0.6093900000000001  0.69457  0.61555  1.0000
  C   C70       1.0  0.44628000000000007  0.24037  0.10342  1.0000
  C   C71       1.0  0.33678000000000013  0.24494  0.07329  1.0000
  C   C72       1.0  0.25545  0.20266  0.10398  1.0000
  C   C73       1.0  0.14943000000000004  0.20878999999999995  0.08159  1.0000
  C   C74       1.0  0.12832000000000002  0.25472  0.02519  1.0000
  C   C75       1.0  0.20946  0.29547  0.9921599999999999  1.0000
  C   C76       1.0  0.3141  0.29247  0.01826  1.0000
  C   C77       1.0  0.03289000000000001  0.97886  0.21907  1.0000
  C   C78       1.0  0.7718400000000001  0.19510999999999995  0.16159  1.0000
  C   C79       1.0  0.007340000000000002  0.05615  0.18603  1.0000
  C   C80       1.0  0.9051700000000003  0.08928  0.18981  1.0000
  C   C81       1.0  0.8824200000000002  0.1616  0.15745  1.0000
  C   C82       1.0  0.9616400000000003  0.20099999999999996  0.12243  1.0000
  C   C83       1.0  0.0648  0.16802  0.11809  1.0000
  C   C84       1.0  0.08629  0.09496999999999998  0.15021  1.0000
  C   C85       1.0  0.0025900000000000003  0.3103499999999999  0.77807  1.0000
  C   C86       1.0  0.2630700000000001  0.53002  0.84185  1.0000
  C   C87       1.0  0.08055000000000002  0.34783  0.82729  1.0000
  C   C88       1.0  0.12963000000000002  0.42174  0.81411  1.0000
  C   C89       1.0  0.20874000000000004  0.4526399999999999  0.85781  1.0000
  C   C90       1.0  0.23719  0.41127  0.91525  1.0000
  C   C91       1.0  0.18548  0.33849  0.93037  1.0000
  C   C92       1.0  0.10814  0.30696  0.88505  1.0000
  O   O1        1.0  0.9885100000000002  0.294  0.58579  1.0000
  O   O2        1.0  0.04345  0.18689  0.64624  1.0000
  O   O3        1.0  0.3855  0.9405299999999998  0.70662  1.0000
  O   O4        1.0  0.5341600000000001  0.9517  0.76513  1.0000
  O   O5        1.0  0.74585  0.26601  0.64649  1.0000
  O   O6        1.0  0.8020900000000002  0.14227  0.67974  1.0000
  O   O7        1.0  0.52913  0.3533199999999999  0.23124  1.0000
  O   O8        1.0  0.52365  0.23508  0.28677  1.0000
  O   O9        1.0  0.16980000000000006  0.56025  0.38379  1.0000
  O   O10       1.0  0.25862  0.56306  0.28648  1.0000
  O   O11       1.0  0.4866600000000001  0.70608  0.9123500000000001  1.0000
  O   O12       1.0  0.54012  0.8167  0.8559400000000001  1.0000
  O   O13       1.0  0.8828500000000002  0.059619999999999986  0.79575  1.0000
  O   O14       1.0  0.03144  0.04877999999999999  0.73723  1.0000
  O   O15       1.0  0.24303  0.7316899999999997  0.85498  1.0000
  O   O16       1.0  0.29729  0.85409  0.81827  1.0000
  O   O17       1.0  0.026080000000000006  0.6464499999999997  0.27035  1.0000
  O   O18       1.0  0.023980000000000005  0.7624499999999997  0.21174  1.0000
  O   O19       1.0  0.6681100000000002  0.4399  0.11459000000000001  1.0000
  O   O20       1.0  0.7561400000000003  0.43643999999999994  0.21229000000000003  1.0000
  O   O21       1.0  0.01157  0.70595  0.41404  1.0000
  O   O22       1.0  0.9565400000000002  0.81338  0.35386  1.0000
  O   O23       1.0  0.61457  0.05962  0.2936  1.0000
  O   O24       1.0  0.46575  0.04829  0.23529  1.0000
  O   O25       1.0  0.25407  0.7338099999999997  0.35345  1.0000
  O   O26       1.0  0.19802  0.8575799999999998  0.32013  1.0000
  O   O27       1.0  0.47061  0.64685  0.7684  1.0000
  O   O28       1.0  0.4803200000000001  0.7655799999999998  0.71349  1.0000
  O   O29       1.0  0.83029  0.43921  0.61614  1.0000
  O   O30       1.0  0.74144  0.43678  0.71348  1.0000
  O   O31       1.0  0.51325  0.29386  0.08754  1.0000
  O   O32       1.0  0.4598500000000001  0.18317999999999995  0.14385  1.0000
  O   O33       1.0  0.11728000000000001  0.9404799999999998  0.20440999999999998  1.0000
  O   O34       1.0  0.9684600000000002  0.95053  0.26266  1.0000
  O   O35       1.0  0.7568700000000003  0.26802999999999993  0.14497  1.0000
  O   O36       1.0  0.7027100000000002  0.14556  0.18162  1.0000
  O   O37       1.0  0.9736400000000001  0.3536799999999999  0.72963  1.0000
  O   O38       1.0  0.9731800000000003  0.23790999999999995  0.78844  1.0000
  O   O39       1.0  0.32975000000000004  0.56052  0.8856900000000001  1.0000
  O   O40       1.0  0.24368000000000006  0.5634599999999997  0.78741  1.0000
