data_image0
_chemical_formula_structural       Cd4H52C72N12O16
_chemical_formula_sum              "Cd4 H52 C72 N12 O16"
_cell_length_a       11.81884
_cell_length_b       14.15861
_cell_length_c       21.20258
_cell_angle_alpha    89.97613
_cell_angle_beta     90.0
_cell_angle_gamma    90.0

_space_group_name_H-M_alt    "P 1"
_space_group_IT_number       1

loop_
  _space_group_symop_operation_xyz
  'x, y, z'

loop_
  _atom_site_type_symbol
  _atom_site_label
  _atom_site_symmetry_multiplicity
  _atom_site_fract_x
  _atom_site_fract_y
  _atom_site_fract_z
  _atom_site_occupancy
  Cd  Cd1       1.0  0.0  0.6020199999999999  0.43292  1.0000
  Cd  Cd2       1.0  0.0  0.3979799999999999  0.56708  1.0000
  Cd  Cd3       1.0  0.0  0.8983799999999998  0.9333399999999998  1.0000
  Cd  Cd4       1.0  0.0  0.10161999999999997  0.06666  1.0000
  H   H1        1.0  0.79481  0.4708199999999999  0.38115  1.0000
  H   H2        1.0  0.58535  0.46566999999999986  0.3767  1.0000
  H   H3        1.0  0.58361  0.7200399999999998  0.49029000000000006  1.0000
  H   H4        1.0  0.7931899999999997  0.7135099999999998  0.48927  1.0000
  H   H5        1.0  0.79481  0.5291899999999998  0.61885  1.0000
  H   H6        1.0  0.58535  0.5343399999999998  0.6233  1.0000
  H   H7        1.0  0.58361  0.27996  0.50971  1.0000
  H   H8        1.0  0.7931899999999997  0.2864899999999999  0.51073  1.0000
  H   H9        1.0  0.20514999999999997  0.02915  0.88126  1.0000
  H   H10       1.0  0.41462  0.03434999999999999  0.8767099999999999  1.0000
  H   H11       1.0  0.41654  0.7798499999999998  0.9903500000000001  1.0000
  H   H12       1.0  0.20695  0.7863499999999998  0.9894000000000001  1.0000
  H   H13       1.0  0.20514999999999997  0.9708499999999998  0.11873000000000002  1.0000
  H   H14       1.0  0.41462  0.9656599999999997  0.12329000000000001  1.0000
  H   H15       1.0  0.41654  0.22014999999999996  0.00965  1.0000
  H   H16       1.0  0.20695  0.21364999999999995  0.01059  1.0000
  H   H17       1.0  0.20519  0.5291899999999998  0.61885  1.0000
  H   H18       1.0  0.41465  0.5343399999999998  0.6233  1.0000
  H   H19       1.0  0.4163899999999999  0.27996  0.50971  1.0000
  H   H20       1.0  0.20681  0.2864899999999999  0.51073  1.0000
  H   H21       1.0  0.20519  0.4708199999999999  0.38115  1.0000
  H   H22       1.0  0.41465  0.46566999999999986  0.3767  1.0000
  H   H23       1.0  0.4163899999999999  0.7200399999999998  0.49029000000000006  1.0000
  H   H24       1.0  0.20681  0.7135099999999998  0.48927  1.0000
  H   H25       1.0  0.79485  0.9708499999999998  0.11873000000000002  1.0000
  H   H26       1.0  0.58538  0.9656599999999997  0.12329000000000001  1.0000
  H   H27       1.0  0.58346  0.22014999999999996  0.00965  1.0000
  H   H28       1.0  0.79305  0.21364999999999995  0.01059  1.0000
  H   H29       1.0  0.79485  0.02915  0.88126  1.0000
  H   H30       1.0  0.58538  0.03434999999999999  0.8767099999999999  1.0000
  H   H31       1.0  0.58346  0.7798499999999998  0.9903500000000001  1.0000
  H   H32       1.0  0.79305  0.7863499999999998  0.9894000000000001  1.0000
  H   H33       1.0  0.0  0.56869  0.67446  1.0000
  H   H34       1.0  0.0  0.6444699999999998  0.78222  1.0000
  H   H35       1.0  0.0  0.8443899999999999  0.59041  1.0000
  H   H36       1.0  0.0  0.9821999999999999  0.65909  1.0000
  H   H37       1.0  0.0  0.9677099999999997  0.74272  1.0000
  H   H38       1.0  0.0  0.4313099999999999  0.32553  1.0000
  H   H39       1.0  0.0  0.3555299999999999  0.21778  1.0000
  H   H40       1.0  0.0  0.15560999999999994  0.40959  1.0000
  H   H41       1.0  0.0  0.01781  0.34091  1.0000
  H   H42       1.0  0.0  0.03229  0.25728  1.0000
  H   H43       1.0  0.0  0.9316799999999997  0.17439  1.0000
  H   H44       1.0  0.0  0.8550299999999997  0.28194  1.0000
  H   H45       1.0  0.0  0.6563799999999997  0.08976  1.0000
  H   H46       1.0  0.0  0.5181399999999999  0.15819  1.0000
  H   H47       1.0  0.0  0.5322899999999998  0.24181  1.0000
  H   H48       1.0  0.0  0.06832  0.82561  1.0000
  H   H49       1.0  0.0  0.14496999999999993  0.71805  1.0000
  H   H50       1.0  0.0  0.34362  0.9102400000000002  1.0000
  H   H51       1.0  0.0  0.48185999999999996  0.84181  1.0000
  H   H52       1.0  0.0  0.4677099999999999  0.7581800000000001  1.0000
  C   C1        1.0  0.7438799999999999  0.5242999999999998  0.40482  1.0000
  C   C2        1.0  0.62615  0.5223099999999999  0.40274  1.0000
  C   C3        1.0  0.5629  0.5924499999999998  0.4338  1.0000
  C   C4        1.0  0.62515  0.6627  0.46535000000000004  1.0000
  C   C5        1.0  0.74276  0.6599899999999997  0.46526  1.0000
  C   C6        1.0  0.7438799999999999  0.4756999999999999  0.59518  1.0000
  C   C7        1.0  0.62615  0.47769  0.59726  1.0000
  C   C8        1.0  0.5629  0.4075499999999999  0.5662  1.0000
  C   C9        1.0  0.62515  0.3372999999999999  0.53465  1.0000
  C   C10       1.0  0.74276  0.34001  0.53474  1.0000
  C   C11       1.0  0.25614  0.9756699999999998  0.9049300000000001  1.0000
  C   C12       1.0  0.37385999999999997  0.9776699999999998  0.90278  1.0000
  C   C13       1.0  0.43711999999999995  0.9075099999999998  0.9338399999999999  1.0000
  C   C14       1.0  0.37494  0.8371999999999999  0.96542  1.0000
  C   C15       1.0  0.25733999999999996  0.8399099999999998  0.9653800000000001  1.0000
  C   C16       1.0  0.25614  0.024329999999999994  0.09507  1.0000
  C   C17       1.0  0.37385999999999997  0.022329999999999992  0.09722000000000001  1.0000
  C   C18       1.0  0.43711999999999995  0.09249  0.06616  1.0000
  C   C19       1.0  0.37494  0.16279999999999994  0.03458  1.0000
  C   C20       1.0  0.25733999999999996  0.16008999999999995  0.03462  1.0000
  C   C21       1.0  0.25612  0.4756999999999999  0.59518  1.0000
  C   C22       1.0  0.37384999999999996  0.47769  0.59726  1.0000
  C   C23       1.0  0.43709999999999993  0.4075499999999999  0.5662  1.0000
  C   C24       1.0  0.37484999999999996  0.3372999999999999  0.53465  1.0000
  C   C25       1.0  0.25724  0.34001  0.53474  1.0000
  C   C26       1.0  0.25612  0.5242999999999998  0.40482  1.0000
  C   C27       1.0  0.37384999999999996  0.5223099999999999  0.40274  1.0000
  C   C28       1.0  0.43709999999999993  0.5924499999999998  0.4338  1.0000
  C   C29       1.0  0.37484999999999996  0.6627  0.46535000000000004  1.0000
  C   C30       1.0  0.25724  0.6599899999999997  0.46526  1.0000
  C   C31       1.0  0.7438599999999997  0.024329999999999994  0.09507  1.0000
  C   C32       1.0  0.6261399999999999  0.022329999999999992  0.09722000000000001  1.0000
  C   C33       1.0  0.5628799999999999  0.09249  0.06616  1.0000
  C   C34       1.0  0.6250599999999998  0.16279999999999994  0.03458  1.0000
  C   C35       1.0  0.74266  0.16008999999999995  0.03462  1.0000
  C   C36       1.0  0.7438599999999997  0.9756699999999998  0.9049300000000001  1.0000
  C   C37       1.0  0.6261399999999999  0.9776699999999998  0.90278  1.0000
  C   C38       1.0  0.5628799999999999  0.9075099999999998  0.9338399999999999  1.0000
  C   C39       1.0  0.6250599999999998  0.8371999999999999  0.96542  1.0000
  C   C40       1.0  0.74266  0.8399099999999998  0.9653800000000001  1.0000
  C   C41       1.0  0.0  0.6613699999999998  0.5617  1.0000
  C   C42       1.0  0.0  0.70339  0.62644  1.0000
  C   C43       1.0  0.0  0.64491  0.68018  1.0000
  C   C44       1.0  0.0  0.6868399999999998  0.7394  1.0000
  C   C45       1.0  0.0  0.8013299999999999  0.63292  1.0000
  C   C46       1.0  0.0  0.84474  0.69294  1.0000
  C   C47       1.0  0.0  0.78544  0.74756  1.0000
  C   C48       1.0  0.0  0.8233599999999998  0.81317  1.0000
  C   C49       1.0  0.0  0.3386299999999999  0.43829  1.0000
  C   C50       1.0  0.0  0.29661  0.37355  1.0000
  C   C51       1.0  0.0  0.35509  0.31982  1.0000
  C   C52       1.0  0.0  0.3131599999999999  0.2606  1.0000
  C   C53       1.0  0.0  0.19866999999999996  0.36708  1.0000
  C   C54       1.0  0.0  0.15526  0.30706  1.0000
  C   C55       1.0  0.0  0.21455999999999997  0.25244  1.0000
  C   C56       1.0  0.0  0.17663999999999994  0.18683  1.0000
  C   C57       1.0  0.0  0.83877  0.0612  1.0000
  C   C58       1.0  0.0  0.79716  0.12603  1.0000
  C   C59       1.0  0.0  0.85544  0.17982  1.0000
  C   C60       1.0  0.0  0.8131799999999999  0.23894  1.0000
  C   C61       1.0  0.0  0.69919  0.13235  1.0000
  C   C62       1.0  0.0  0.65547  0.19225  1.0000
  C   C63       1.0  0.0  0.7145999999999998  0.24686  1.0000
  C   C64       1.0  0.0  0.67668  0.31237  1.0000
  C   C65       1.0  0.0  0.16122999999999996  0.9388  1.0000
  C   C66       1.0  0.0  0.20283999999999994  0.8739699999999999  1.0000
  C   C67       1.0  0.0  0.14457  0.82017  1.0000
  C   C68       1.0  0.0  0.18681999999999996  0.7610599999999998  1.0000
  C   C69       1.0  0.0  0.30081999999999987  0.86765  1.0000
  C   C70       1.0  0.0  0.34454  0.80775  1.0000
  C   C71       1.0  0.0  0.2854  0.75313  1.0000
  C   C72       1.0  0.0  0.32332  0.68763  1.0000
  N   N1        1.0  0.80163  0.59158  0.43591  1.0000
  N   N2        1.0  0.80163  0.4084199999999999  0.56409  1.0000
  N   N3        1.0  0.19846999999999998  0.9083699999999998  0.93607  1.0000
  N   N4        1.0  0.19846999999999998  0.09162999999999998  0.06393  1.0000
  N   N5        1.0  0.19836999999999996  0.4084199999999999  0.56409  1.0000
  N   N6        1.0  0.19836999999999996  0.59158  0.43591  1.0000
  N   N7        1.0  0.80153  0.09162999999999998  0.06393  1.0000
  N   N8        1.0  0.80153  0.9083699999999998  0.93607  1.0000
  N   N9        1.0  0.0  0.9408999999999997  0.69795  1.0000
  N   N10       1.0  0.0  0.0591  0.30205  1.0000
  N   N11       1.0  0.0  0.55929  0.19709  1.0000
  N   N12       1.0  0.0  0.4407099999999999  0.8029  1.0000
  O   O1        1.0  0.0  0.71717  0.5142  1.0000
  O   O2        1.0  0.0  0.5714399999999997  0.55498  1.0000
  O   O3        1.0  0.0  0.7667399999999999  0.8597600000000001  1.0000
  O   O4        1.0  0.0  0.91419  0.8218099999999999  1.0000
  O   O5        1.0  0.0  0.2828299999999999  0.48580000000000007  1.0000
  O   O6        1.0  0.0  0.4285699999999999  0.44502  1.0000
  O   O7        1.0  0.0  0.23326999999999995  0.14024  1.0000
  O   O8        1.0  0.0  0.08580999999999997  0.17819  1.0000
  O   O9        1.0  0.0  0.7825999999999997  0.01394  1.0000
  O   O10       1.0  0.0  0.9286499999999998  0.05384  1.0000
  O   O11       1.0  0.0  0.7333699999999997  0.35887  1.0000
  O   O12       1.0  0.0  0.5858799999999997  0.32084  1.0000
  O   O13       1.0  0.0  0.21740999999999994  0.98606  1.0000
  O   O14       1.0  0.0  0.07135  0.94615  1.0000
  O   O15       1.0  0.0  0.26662999999999987  0.64113  1.0000
  O   O16       1.0  0.0  0.41412  0.67916  1.0000
