data_image0
_chemical_formula_structural       Co6H60C84N24
_chemical_formula_sum              "Co6 H60 C84 N24"
_cell_length_a       14.20306
_cell_length_b       14.20677
_cell_length_c       14.2062
_cell_angle_alpha    107.14737999999998
_cell_angle_beta     107.08438999999998
_cell_angle_gamma    107.08461

_space_group_name_H-M_alt    "P 1"
_space_group_IT_number       1

loop_
  _space_group_symop_operation_xyz
  'x, y, z'

loop_
  _atom_site_type_symbol
  _atom_site_label
  _atom_site_symmetry_multiplicity
  _atom_site_fract_x
  _atom_site_fract_y
  _atom_site_fract_z
  _atom_site_occupancy
  Co  Co1       1.0  0.73925  0.012089999999999998  0.27131  1.0000
  Co  Co2       1.0  0.27141  0.7393699999999999  0.01216  1.0000
  Co  Co3       1.0  0.012129999999999964  0.27139  0.73928  1.0000
  Co  Co4       1.0  0.26074  0.9879  0.72869  1.0000
  Co  Co5       1.0  0.72859  0.26062999999999986  0.98784  1.0000
  Co  Co6       1.0  0.98786  0.7286  0.26072  1.0000
  H   H1        1.0  0.5038699999999998  0.9159099999999999  0.08909  1.0000
  H   H2        1.0  0.7059899999999998  0.87421  0.41942  1.0000
  H   H3        1.0  0.60357  0.73901  0.47190999999999994  1.0000
  H   H4        1.0  0.7599699999999997  0.22554999999999994  0.21265  1.0000
  H   H5        1.0  0.67472  0.82815  0.05319  1.0000
  H   H6        1.0  0.6255999999999999  0.7345699999999997  0.8566299999999999  1.0000
  H   H7        1.0  0.65597  0.02986999999999991  0.8147499999999998  1.0000
  H   H8        1.0  0.6130899999999999  0.8326199999999998  0.73824  1.0000
  H   H9        1.0  0.30745999999999984  0.6346799999999998  0.19294  1.0000
  H   H10       1.0  0.40862  0.62238  0.36173  1.0000
  H   H11       1.0  0.08899999999999998  0.50394  0.91605  1.0000
  H   H12       1.0  0.41935  0.70604  0.8743  1.0000
  H   H13       1.0  0.47191999999999984  0.60356  0.7390099999999998  1.0000
  H   H14       1.0  0.21249999999999994  0.7598799999999998  0.2254  1.0000
  H   H15       1.0  0.05320999999999994  0.6746499999999999  0.82808  1.0000
  H   H16       1.0  0.85672  0.6256099999999999  0.7346  1.0000
  H   H17       1.0  0.8147199999999997  0.6560199999999999  0.02994  1.0000
  H   H18       1.0  0.7382799999999999  0.61312  0.83272  1.0000
  H   H19       1.0  0.19294999999999995  0.3074099999999999  0.63463  1.0000
  H   H20       1.0  0.36178  0.40858  0.62233  1.0000
  H   H21       1.0  0.91596  0.08894  0.5038  1.0000
  H   H22       1.0  0.8742099999999998  0.4194599999999999  0.70604  1.0000
  H   H23       1.0  0.739  0.47198  0.60361  1.0000
  H   H24       1.0  0.22539999999999993  0.2124899999999999  0.7598799999999999  1.0000
  H   H25       1.0  0.8280999999999998  0.053239999999999954  0.6747499999999998  1.0000
  H   H26       1.0  0.7346099999999999  0.8567199999999998  0.62564  1.0000
  H   H27       1.0  0.029910000000000013  0.81468  0.65593  1.0000
  H   H28       1.0  0.8327199999999998  0.73826  0.61311  1.0000
  H   H29       1.0  0.63473  0.19286  0.30742  1.0000
  H   H30       1.0  0.62239  0.36175  0.40863  1.0000
  H   H31       1.0  0.49611999999999973  0.08407999999999989  0.9108999999999998  1.0000
  H   H32       1.0  0.294  0.12578  0.58058  1.0000
  H   H33       1.0  0.39642  0.26099  0.52809  1.0000
  H   H34       1.0  0.24001999999999993  0.77445  0.7873499999999999  1.0000
  H   H35       1.0  0.32527999999999996  0.17183999999999996  0.9468099999999999  1.0000
  H   H36       1.0  0.37439  0.26542  0.14337  1.0000
  H   H37       1.0  0.3440199999999999  0.97013  0.18524999999999997  1.0000
  H   H38       1.0  0.3869  0.16737  0.26176  1.0000
  H   H39       1.0  0.6925299999999998  0.36531  0.80706  1.0000
  H   H40       1.0  0.59137  0.3776099999999999  0.63827  1.0000
  H   H41       1.0  0.9109899999999997  0.4960499999999999  0.08395  1.0000
  H   H42       1.0  0.58064  0.29396  0.1257  1.0000
  H   H43       1.0  0.52807  0.39644  0.26099  1.0000
  H   H44       1.0  0.78749  0.24011  0.7746  1.0000
  H   H45       1.0  0.94678  0.32533999999999996  0.17191999999999996  1.0000
  H   H46       1.0  0.14326999999999998  0.3743899999999999  0.2654  1.0000
  H   H47       1.0  0.18527000000000002  0.34397  0.97006  1.0000
  H   H48       1.0  0.26172  0.38687  0.16728  1.0000
  H   H49       1.0  0.80704  0.69258  0.36537  1.0000
  H   H50       1.0  0.63821  0.59141  0.37767  1.0000
  H   H51       1.0  0.08402999999999992  0.9110499999999999  0.4961999999999999  1.0000
  H   H52       1.0  0.12577999999999995  0.58053  0.29395  1.0000
  H   H53       1.0  0.2609899999999999  0.5280099999999998  0.39639  1.0000
  H   H54       1.0  0.7746  0.7875  0.24011  1.0000
  H   H55       1.0  0.1718899999999999  0.9467599999999998  0.3252499999999999  1.0000
  H   H56       1.0  0.26538999999999996  0.14327999999999994  0.37435  1.0000
  H   H57       1.0  0.97008  0.18531  0.34407  1.0000
  H   H58       1.0  0.16726999999999992  0.26172999999999996  0.38688999999999996  1.0000
  H   H59       1.0  0.36525999999999986  0.8071399999999997  0.69258  1.0000
  H   H60       1.0  0.3775999999999999  0.6382399999999998  0.59137  1.0000
  C   C1        1.0  0.5047799999999998  0.8750099999999997  0.14257  1.0000
  C   C2        1.0  0.5624399999999999  0.8319299999999997  0.27714  1.0000
  C   C3        1.0  0.62  0.82315  0.37038  1.0000
  C   C4        1.0  0.56203  0.74692  0.39891999999999994  1.0000
  C   C5        1.0  0.73639  0.15146999999999994  0.14324  1.0000
  C   C6        1.0  0.69481  0.9826499999999998  0.04465  1.0000
  C   C7        1.0  0.6711299999999998  0.87191  0.00204  1.0000
  C   C8        1.0  0.6429699999999998  0.8201799999999998  0.89151  1.0000
  C   C9        1.0  0.6902699999999998  0.039449999999999985  0.97768  1.0000
  C   C10       1.0  0.66055  0.9865499999999997  0.8663299999999998  1.0000
  C   C11       1.0  0.63695  0.8763  0.82445  1.0000
  C   C12       1.0  0.4500299999999998  0.7652599999999998  0.2143  1.0000
  C   C13       1.0  0.39306  0.6874  0.24227  1.0000
  C   C14       1.0  0.45075999999999994  0.6799199999999999  0.3358799999999999  1.0000
  C   C15       1.0  0.14249  0.50481  0.8751  1.0000
  C   C16       1.0  0.2771  0.56244  0.83198  1.0000
  C   C17       1.0  0.37034999999999985  0.62003  0.8232099999999998  1.0000
  C   C18       1.0  0.3989199999999999  0.56203  0.74693  1.0000
  C   C19       1.0  0.14312999999999995  0.73634  0.15136  1.0000
  C   C20       1.0  0.04461999999999993  0.69479  0.9825999999999999  1.0000
  C   C21       1.0  0.002060000000000018  0.6711  0.87187  1.0000
  C   C22       1.0  0.8915499999999997  0.6429599999999996  0.8201899999999999  1.0000
  C   C23       1.0  0.97763  0.6902299999999999  0.03943  1.0000
  C   C24       1.0  0.8662899999999997  0.6605399999999998  0.9865799999999999  1.0000
  C   C25       1.0  0.82447  0.63696  0.87634  1.0000
  C   C26       1.0  0.21426  0.45003  0.76527  1.0000
  C   C27       1.0  0.24226999999999999  0.39303  0.6873699999999999  1.0000
  C   C28       1.0  0.3358999999999999  0.4507399999999998  0.6798999999999998  1.0000
  C   C29       1.0  0.8750599999999998  0.14247  0.50475  1.0000
  C   C30       1.0  0.83196  0.27713  0.56244  1.0000
  C   C31       1.0  0.82316  0.37041  0.62004  1.0000
  C   C32       1.0  0.74692  0.39895999999999987  0.56205  1.0000
  C   C33       1.0  0.15136  0.14313  0.73634  1.0000
  C   C34       1.0  0.9825899999999999  0.04460999999999999  0.69478  1.0000
  C   C35       1.0  0.8718599999999996  0.0020499999999999807  0.67112  1.0000
  C   C36       1.0  0.8201999999999999  0.89154  0.64299  1.0000
  C   C37       1.0  0.03942999999999995  0.9776199999999999  0.69026  1.0000
  C   C38       1.0  0.98658  0.8662899999999999  0.6605299999999998  1.0000
  C   C39       1.0  0.8763399999999998  0.82445  0.63695  1.0000
  C   C40       1.0  0.7652899999999998  0.21423999999999993  0.45002999999999993  1.0000
  C   C41       1.0  0.68743  0.2422199999999999  0.39304  1.0000
  C   C42       1.0  0.67994  0.33588  0.45075999999999994  1.0000
  C   C43       1.0  0.49521  0.12498  0.85743  1.0000
  C   C44       1.0  0.43755999999999984  0.16807000000000002  0.72285  1.0000
  C   C45       1.0  0.37999  0.17684  0.62961  1.0000
  C   C46       1.0  0.43796  0.25306999999999996  0.60107  1.0000
  C   C47       1.0  0.2636  0.84852  0.85676  1.0000
  C   C48       1.0  0.30518  0.017349999999999952  0.95535  1.0000
  C   C49       1.0  0.32885999999999993  0.12808000000000003  0.99796  1.0000
  C   C50       1.0  0.35702000000000006  0.17981  0.10849  1.0000
  C   C51       1.0  0.30972  0.96054  0.022319999999999996  1.0000
  C   C52       1.0  0.3394499999999999  0.013440000000000004  0.13367  1.0000
  C   C53       1.0  0.3630399999999999  0.12369999999999998  0.17554  1.0000
  C   C54       1.0  0.54996  0.23474  0.7857  1.0000
  C   C55       1.0  0.60693  0.31259  0.75773  1.0000
  C   C56       1.0  0.5492299999999997  0.32006999999999997  0.6641199999999998  1.0000
  C   C57       1.0  0.8575  0.49517999999999995  0.12488999999999997  1.0000
  C   C58       1.0  0.72289  0.4375599999999999  0.16801999999999997  1.0000
  C   C59       1.0  0.6296399999999998  0.37995999999999996  0.17678999999999995  1.0000
  C   C60       1.0  0.60107  0.4379699999999999  0.25306  1.0000
  C   C61       1.0  0.8568599999999998  0.26365999999999995  0.8486299999999999  1.0000
  C   C62       1.0  0.95537  0.3052099999999999  0.0174  1.0000
  C   C63       1.0  0.9979399999999999  0.3288999999999999  0.12813  1.0000
  C   C64       1.0  0.10844999999999995  0.3570299999999999  0.17981  1.0000
  C   C65       1.0  0.02235999999999995  0.30976  0.96057  1.0000
  C   C66       1.0  0.1337  0.33945  0.01342  1.0000
  C   C67       1.0  0.17551999999999998  0.36302999999999996  0.12364999999999997  1.0000
  C   C68       1.0  0.78573  0.54997  0.23473  1.0000
  C   C69       1.0  0.75772  0.60697  0.31262  1.0000
  C   C70       1.0  0.66409  0.54925  0.32009  1.0000
  C   C71       1.0  0.12493999999999995  0.8575299999999999  0.49525  1.0000
  C   C72       1.0  0.16802999999999998  0.7228599999999997  0.43756  1.0000
  C   C73       1.0  0.17682999999999988  0.6295799999999998  0.37996  1.0000
  C   C74       1.0  0.25307  0.60104  0.43795  1.0000
  C   C75       1.0  0.84863  0.8568699999999999  0.26366  1.0000
  C   C76       1.0  0.017399999999999936  0.9553799999999998  0.30522  1.0000
  C   C77       1.0  0.12813  0.99794  0.32887  1.0000
  C   C78       1.0  0.17978999999999995  0.10844999999999994  0.3570099999999999  1.0000
  C   C79       1.0  0.9605599999999997  0.022370000000000004  0.30974  1.0000
  C   C80       1.0  0.013409999999999977  0.13369999999999999  0.33946999999999994  1.0000
  C   C81       1.0  0.12364999999999998  0.17554  0.36305  1.0000
  C   C82       1.0  0.2347  0.78575  0.54997  1.0000
  C   C83       1.0  0.3125599999999999  0.75778  0.60696  1.0000
  C   C84       1.0  0.32005  0.66411  0.54924  1.0000
  N   N1        1.0  0.59536  0.90027  0.22876  1.0000
  N   N2        1.0  0.7239399999999998  0.05577  0.14973  1.0000
  N   N3        1.0  0.7171399999999998  0.1469  0.04256  1.0000
  N   N4        1.0  0.4152999999999998  0.7950499999999998  0.1296  1.0000
  N   N5        1.0  0.22869999999999988  0.5953699999999998  0.9003799999999998  1.0000
  N   N6        1.0  0.14967999999999998  0.72394  0.05568  1.0000
  N   N7        1.0  0.04244999999999994  0.7170699999999998  0.14684  1.0000
  N   N8        1.0  0.12952999999999998  0.4153199999999999  0.7950699999999999  1.0000
  N   N9        1.0  0.9003200000000001  0.22873  0.59535  1.0000
  N   N10       1.0  0.055649999999999936  0.14964999999999992  0.7238699999999999  1.0000
  N   N11       1.0  0.14685999999999988  0.04246999999999989  0.7171499999999998  1.0000
  N   N12       1.0  0.79507  0.12947999999999998  0.41529  1.0000
  N   N13       1.0  0.40463999999999983  0.09971999999999995  0.77124  1.0000
  N   N14       1.0  0.2760599999999999  0.9442199999999997  0.85027  1.0000
  N   N15       1.0  0.28284999999999993  0.8530899999999998  0.95744  1.0000
  N   N16       1.0  0.5846899999999999  0.20493999999999993  0.8704  1.0000
  N   N17       1.0  0.77129  0.40462  0.09962  1.0000
  N   N18       1.0  0.85031  0.27604999999999996  0.9443199999999999  1.0000
  N   N19       1.0  0.95754  0.28292  0.85315  1.0000
  N   N20       1.0  0.87046  0.58468  0.20493  1.0000
  N   N21       1.0  0.09967  0.77126  0.40465  1.0000
  N   N22       1.0  0.94434  0.85034  0.27612  1.0000
  N   N23       1.0  0.8531299999999999  0.9575199999999999  0.28285  1.0000
  N   N24       1.0  0.20492  0.87051  0.58471  1.0000
