data_image0
_chemical_formula_structural       Zn6H90C66N12Cl6O12
_chemical_formula_sum              "Zn6 H90 C66 N12 Cl6 O12"
_cell_length_a       10.57618
_cell_length_b       17.6379
_cell_length_c       17.64167
_cell_angle_alpha    120.02513999999998
_cell_angle_beta     90.00862
_cell_angle_gamma    89.9823

_space_group_name_H-M_alt    "P 1"
_space_group_IT_number       1

loop_
  _space_group_symop_operation_xyz
  'x, y, z'

loop_
  _atom_site_type_symbol
  _atom_site_label
  _atom_site_symmetry_multiplicity
  _atom_site_fract_x
  _atom_site_fract_y
  _atom_site_fract_z
  _atom_site_occupancy
  Zn  Zn1       1.0  0.87823  0.07649000000000004  0.53489  1.0000
  Zn  Zn2       1.0  0.5469  0.4584899999999999  0.92358  1.0000
  Zn  Zn3       1.0  0.21547999999999998  0.46525  0.54165  1.0000
  Zn  Zn4       1.0  0.37825  0.9237699999999999  0.46544  1.0000
  Zn  Zn5       1.0  0.04695  0.54151  0.07645  1.0000
  Zn  Zn6       1.0  0.7154599999999999  0.53507  0.45843  1.0000
  H   H1        1.0  0.9840099999999999  0.92685  0.45659  1.0000
  H   H2        1.0  0.18239  0.6939399999999997  0.22260999999999995  1.0000
  H   H3        1.0  0.8325499999999999  0.66575  0.10652  1.0000
  H   H4        1.0  0.7742999999999999  0.8214099999999998  0.21174  1.0000
  H   H5        1.0  0.14094  0.8503499999999999  0.33204  1.0000
  H   H6        1.0  0.9972799999999999  0.9854799999999999  0.36398  1.0000
  H   H7        1.0  0.83372  0.9640999999999998  0.33828  1.0000
  H   H8        1.0  0.7654099999999999  0.84272  0.37175  1.0000
  H   H9        1.0  0.73605  0.8012099999999998  0.48151  1.0000
  H   H10       1.0  0.87503  0.84677  0.60738  1.0000
  H   H11       1.0  0.79683  0.94057  0.6174099999999998  1.0000
  H   H12       1.0  0.95685  0.92215  0.5856  1.0000
  H   H13       1.0  0.01645  0.7862699999999998  0.4299499999999999  1.0000
  H   H14       1.0  0.8924899999999999  0.7212699999999996  0.35993  1.0000
  H   H15       1.0  0.92759  0.7167999999999998  0.45605  1.0000
  H   H16       1.0  0.65266  0.5299  0.07396  1.0000
  H   H17       1.0  0.8498599999999998  0.52848  0.3062899999999999  1.0000
  H   H18       1.0  0.49950999999999995  0.44086  0.33405  1.0000
  H   H19       1.0  0.44189999999999996  0.3904799999999999  0.17822999999999994  1.0000
  H   H20       1.0  0.80917  0.48153999999999997  0.14985  1.0000
  H   H21       1.0  0.6651  0.3783199999999999  0.01441  1.0000
  H   H22       1.0  0.50161  0.37458  0.0361  1.0000
  H   H23       1.0  0.43424  0.52955  0.15785  1.0000
  H   H24       1.0  0.40364999999999995  0.68032  0.19876  1.0000
  H   H25       1.0  0.54248  0.76145  0.15457  1.0000
  H   H26       1.0  0.46497999999999995  0.67813  0.060089999999999984  1.0000
  H   H27       1.0  0.62492  0.66482  0.07874  1.0000
  H   H28       1.0  0.68415  0.6443599999999998  0.21394  1.0000
  H   H29       1.0  0.56032  0.6389099999999999  0.27873  1.0000
  H   H30       1.0  0.59476  0.7396199999999999  0.28348  1.0000
  H   H31       1.0  0.31974  0.5439199999999998  0.47064  1.0000
  H   H32       1.0  0.51441  0.7782499999999999  0.47115  1.0000
  H   H33       1.0  0.16362  0.8926199999999997  0.5592399999999997  1.0000
  H   H34       1.0  0.10752999999999999  0.78728  0.60997  1.0000
  H   H35       1.0  0.47498999999999997  0.66853  0.51808  1.0000
  H   H36       1.0  0.33314  0.6363199999999997  0.6216999999999998  1.0000
  H   H37       1.0  0.16914  0.66125  0.6261599999999999  1.0000
  H   H38       1.0  0.10218  0.6283399999999998  0.4707099999999999  1.0000
  H   H39       1.0  0.07105  0.51809  0.3199999999999999  1.0000
  H   H40       1.0  0.20988  0.39254  0.23912  1.0000
  H   H41       1.0  0.13245  0.38176  0.32268  1.0000
  H   H42       1.0  0.29229  0.41377  0.33589  1.0000
  H   H43       1.0  0.35131999999999997  0.56935  0.35659  1.0000
  H   H44       1.0  0.22755  0.63961  0.36198  1.0000
  H   H45       1.0  0.26263999999999993  0.5439  0.2611  1.0000
  H   H46       1.0  0.4843299999999999  0.07380000000000002  0.54412  1.0000
  H   H47       1.0  0.68243  0.30596  0.77744  1.0000
  H   H48       1.0  0.33258  0.33425  0.89365  1.0000
  H   H49       1.0  0.27425  0.17859  0.78828  1.0000
  H   H50       1.0  0.64074  0.14957999999999988  0.6677999999999998  1.0000
  H   H51       1.0  0.49728  0.01450000000000003  0.63622  1.0000
  H   H52       1.0  0.33366  0.035980000000000005  0.66171  1.0000
  H   H53       1.0  0.26614  0.15792000000000006  0.62869  1.0000
  H   H54       1.0  0.23609999999999998  0.19883999999999996  0.51854  1.0000
  H   H55       1.0  0.37521  0.15331999999999996  0.39278  1.0000
  H   H56       1.0  0.29707  0.05943  0.38253  1.0000
  H   H57       1.0  0.45704  0.07791000000000001  0.41452  1.0000
  H   H58       1.0  0.51654  0.21338999999999989  0.5699199999999999  1.0000
  H   H59       1.0  0.3929  0.27860999999999986  0.64004  1.0000
  H   H60       1.0  0.428  0.2830799999999999  0.5439399999999998  1.0000
  H   H61       1.0  0.15271  0.47008999999999984  0.9260699999999997  1.0000
  H   H62       1.0  0.34989999999999993  0.47163  0.6936  1.0000
  H   H63       1.0  0.9994499999999998  0.5590299999999999  0.66572  1.0000
  H   H64       1.0  0.9416699999999999  0.6093599999999999  0.8214899999999998  1.0000
  H   H65       1.0  0.30921999999999994  0.5185099999999998  0.8500299999999997  1.0000
  H   H66       1.0  0.16500999999999996  0.6216499999999999  0.9853599999999998  1.0000
  H   H67       1.0  0.0015  0.6253999999999998  0.9637  1.0000
  H   H68       1.0  0.9341699999999998  0.4704399999999999  0.8421399999999998  1.0000
  H   H69       1.0  0.90363  0.31970999999999977  0.8011999999999998  1.0000
  H   H70       1.0  0.04251  0.23847999999999997  0.84532  1.0000
  H   H71       1.0  0.9649999999999999  0.3217899999999998  0.9398099999999998  1.0000
  H   H72       1.0  0.12494  0.3351099999999999  0.92116  1.0000
  H   H73       1.0  0.18414999999999998  0.3554999999999998  0.7860199999999999  1.0000
  H   H74       1.0  0.06036  0.36101  0.72121  1.0000
  H   H75       1.0  0.09473999999999999  0.26031  0.71646  1.0000
  H   H76       1.0  0.81964  0.45614  0.52926  1.0000
  H   H77       1.0  0.014689999999999998  0.22171  0.52862  1.0000
  H   H78       1.0  0.66396  0.10729999999999994  0.4407099999999999  1.0000
  H   H79       1.0  0.60754  0.21258999999999992  0.38996  1.0000
  H   H80       1.0  0.9751  0.33126999999999995  0.48154999999999987  1.0000
  H   H81       1.0  0.83317  0.36365  0.3782  1.0000
  H   H82       1.0  0.66929  0.33874999999999983  0.3735799999999999  1.0000
  H   H83       1.0  0.60149  0.37186  0.52891  1.0000
  H   H84       1.0  0.57102  0.4817599999999998  0.6797599999999998  1.0000
  H   H85       1.0  0.70962  0.60736  0.76081  1.0000
  H   H86       1.0  0.6323  0.61816  0.67723  1.0000
  H   H87       1.0  0.79218  0.58623  0.6640899999999997  1.0000
  H   H88       1.0  0.85142  0.43054  0.64337  1.0000
  H   H89       1.0  0.7276  0.36035  0.63797  1.0000
  H   H90       1.0  0.76252  0.45610999999999996  0.73881  1.0000
  C   C1        1.0  0.09311  0.72486  0.22338999999999998  1.0000
  C   C2        1.0  0.8971399999999999  0.70945  0.15783999999999995  1.0000
  C   C3        1.0  0.86595  0.79615  0.21679999999999994  1.0000
  C   C4        1.0  0.9521299999999999  0.84879  0.28244  1.0000
  C   C5        1.0  0.06854  0.81193  0.28409  1.0000
  C   C6        1.0  0.91973  0.94006  0.35414  1.0000
  C   C7        1.0  0.67446  0.9460199999999999  0.48083  1.0000
  C   C8        1.0  0.79302  0.8891500000000001  0.43976  1.0000
  C   C9        1.0  0.8253399999999999  0.83352  0.48252  1.0000
  C   C10       1.0  0.86591  0.8890699999999997  0.57847  1.0000
  C   C11       1.0  0.9213  0.76077  0.42882  1.0000
  C   C12       1.0  0.76068  0.49831999999999993  0.2752199999999999  1.0000
  C   C13       1.0  0.5644  0.4483399999999999  0.29042  1.0000
  C   C14       1.0  0.53361  0.42063  0.20369  1.0000
  C   C15       1.0  0.62015  0.43357999999999997  0.15123999999999996  1.0000
  C   C16       1.0  0.7365999999999999  0.47197999999999996  0.18815  1.0000
  C   C17       1.0  0.58786  0.41417  0.060059999999999995  1.0000
  C   C18       1.0  0.34275  0.53484  0.05429  1.0000
  C   C19       1.0  0.46137999999999996  0.55084  0.11112  1.0000
  C   C20       1.0  0.49315  0.64929  0.16658  1.0000
  C   C21       1.0  0.5337099999999999  0.69028  0.11161  1.0000
  C   C22       1.0  0.58888  0.66844  0.23936  1.0000
  C   C23       1.0  0.42552  0.7770699999999998  0.50146  1.0000
  C   C24       1.0  0.22898  0.8417300000000001  0.55175  1.0000
  C   C25       1.0  0.19898  0.7827099999999997  0.5795799999999999  1.0000
  C   C26       1.0  0.28612999999999994  0.7175499999999999  0.5665399999999999  1.0000
  C   C27       1.0  0.40213  0.71628  0.5278  1.0000
  C   C28       1.0  0.25502  0.64584  0.58625  1.0000
  C   C29       1.0  0.00916  0.52024  0.4654799999999999  1.0000
  C   C30       1.0  0.12859999999999996  0.5602099999999999  0.4495099999999999  1.0000
  C   C31       1.0  0.16049  0.51698  0.35108  1.0000
  C   C32       1.0  0.20108999999999996  0.42101  0.31031  1.0000
  C   C33       1.0  0.25629  0.57069  0.3322  1.0000
  C   C34       1.0  0.59315  0.27508  0.77672  1.0000
  C   C35       1.0  0.39718  0.29053  0.84233  1.0000
  C   C36       1.0  0.36597  0.20384999999999995  0.78335  1.0000
  C   C37       1.0  0.45219  0.15123999999999996  0.71772  1.0000
  C   C38       1.0  0.56857  0.18803999999999993  0.71597  1.0000
  C   C39       1.0  0.4198  0.06000000000000002  0.64603  1.0000
  C   C40       1.0  0.17446999999999996  0.05452000000000004  0.51998  1.0000
  C   C41       1.0  0.29323  0.11123999999999995  0.56061  1.0000
  C   C42       1.0  0.32541  0.16652999999999993  0.51754  1.0000
  C   C43       1.0  0.36604  0.11093999999999997  0.4216  1.0000
  C   C44       1.0  0.4214999999999999  0.23911  0.57113  1.0000
  C   C45       1.0  0.26068  0.5017099999999999  0.72467  1.0000
  C   C46       1.0  0.06429  0.55159  0.7094  1.0000
  C   C47       1.0  0.03342  0.5792299999999998  0.79609  1.0000
  C   C48       1.0  0.12001  0.56631  0.84857  1.0000
  C   C49       1.0  0.23655  0.52799  0.81171  1.0000
  C   C50       1.0  0.08776  0.5857699999999998  0.93977  1.0000
  C   C51       1.0  0.84279  0.4649999999999999  0.9457099999999998  1.0000
  C   C52       1.0  0.9613899999999997  0.44911  0.88885  1.0000
  C   C53       1.0  0.9931599999999999  0.35065999999999986  0.8333499999999999  1.0000
  C   C54       1.0  0.03373  0.30965  0.8882999999999999  1.0000
  C   C55       1.0  0.08888  0.3314799999999999  0.7605799999999998  1.0000
  C   C56       1.0  0.9257799999999999  0.22282  0.49827  1.0000
  C   C57       1.0  0.72926  0.15815999999999988  0.4480899999999999  1.0000
  C   C58       1.0  0.6990899999999999  0.21716999999999995  0.42025  1.0000
  C   C59       1.0  0.78612  0.28237  0.4332799999999999  1.0000
  C   C60       1.0  0.90224  0.28356  0.47188  1.0000
  C   C61       1.0  0.7550299999999999  0.35415  0.41362  1.0000
  C   C62       1.0  0.50915  0.48044999999999993  0.53479  1.0000
  C   C63       1.0  0.62848  0.4399399999999998  0.55031  1.0000
  C   C64       1.0  0.66048  0.4829399999999997  0.6487499999999998  1.0000
  C   C65       1.0  0.70099  0.57892  0.68962  1.0000
  C   C66       1.0  0.75632  0.42925  0.66768  1.0000
  N   N1        1.0  0.00825  0.67358  0.16121  1.0000
  N   N2        1.0  0.89988  0.9437199999999999  0.43959  1.0000
  N   N3        1.0  0.6754999999999999  0.48757  0.32642  1.0000
  N   N4        1.0  0.56842  0.49617  0.05667  1.0000
  N   N5        1.0  0.33981  0.8388099999999998  0.51241  1.0000
  N   N6        1.0  0.2354  0.5603099999999998  0.50431  1.0000
  N   N7        1.0  0.5083  0.32636  0.83894  1.0000
  N   N8        1.0  0.4001199999999999  0.05655999999999996  0.56065  1.0000
  N   N9        1.0  0.17548  0.5124799999999998  0.6734899999999999  1.0000
  N   N10       1.0  0.06842  0.5038199999999999  0.9432899999999997  1.0000
  N   N11       1.0  0.8400999999999998  0.1611499999999999  0.4874499999999999  1.0000
  N   N12       1.0  0.73534  0.4397199999999999  0.4955299999999999  1.0000
  Cl  Cl1       1.0  0.88671  0.13239000000000006  0.67925  1.0000
  Cl  Cl2       1.0  0.5549499999999999  0.54727  0.8681  1.0000
  Cl  Cl3       1.0  0.21947  0.3210599999999999  0.45247  1.0000
  Cl  Cl4       1.0  0.38637999999999995  0.8676599999999998  0.3212  1.0000
  Cl  Cl5       1.0  0.05489  0.4525999999999999  0.13183999999999996  1.0000
  Cl  Cl6       1.0  0.71957  0.67929  0.54767  1.0000
  O   O1        1.0  0.68024  0.028439999999999983  0.51005  1.0000
  O   O2        1.0  0.5768  0.90482  0.48134  1.0000
  O   O3        1.0  0.34866  0.4817999999999999  0.97188  1.0000
  O   O4        1.0  0.24488999999999997  0.57623  0.09561  1.0000
  O   O5        1.0  0.012709999999999999  0.49219  0.51948  1.0000
  O   O6        1.0  0.9125599999999999  0.5197999999999998  0.42269  1.0000
  O   O7        1.0  0.18020999999999998  0.97228  0.4915599999999999  1.0000
  O   O8        1.0  0.07671999999999998  0.09550999999999996  0.51914  1.0000
  O   O9        1.0  0.84868  0.51796  0.028149999999999994  1.0000
  O   O10       1.0  0.74489  0.42369  0.9044  1.0000
  O   O11       1.0  0.51281  0.50967  0.48169  1.0000
  O   O12       1.0  0.41249  0.48006  0.57703  1.0000
