data_image0
_chemical_formula_structural       Cu6H64C84N12O16
_chemical_formula_sum              "Cu6 H64 C84 N12 O16"
_cell_length_a       13.43825
_cell_length_b       14.48082
_cell_length_c       14.211639999999997
_cell_angle_alpha    102.12051
_cell_angle_beta     102.89696
_cell_angle_gamma    107.00321

_space_group_name_H-M_alt    "P 1"
_space_group_IT_number       1

loop_
  _space_group_symop_operation_xyz
  'x, y, z'

loop_
  _atom_site_type_symbol
  _atom_site_label
  _atom_site_symmetry_multiplicity
  _atom_site_fract_x
  _atom_site_fract_y
  _atom_site_fract_z
  _atom_site_occupancy
  Cu  Cu1       1.0  0.4642599999999999  0.74542  0.26869  1.0000
  Cu  Cu2       1.0  0.03530999999999997  0.7279899999999999  0.24744  1.0000
  Cu  Cu3       1.0  0.53899  0.25098999999999994  0.73295  1.0000
  Cu  Cu4       1.0  0.96406  0.26889  0.74836  1.0000
  Cu  Cu5       1.0  0.24897999999999992  0.6128499999999998  0.38175  1.0000
  Cu  Cu6       1.0  0.74974  0.38522  0.62023  1.0000
  H   H1        1.0  0.61152  0.75775  0.47441999999999995  1.0000
  H   H2        1.0  0.7966099999999998  0.8760099999999997  0.59149  1.0000
  H   H3        1.0  0.8894399999999998  0.03555  0.54842  1.0000
  H   H4        1.0  0.7964799999999999  0.06717  0.39761  1.0000
  H   H5        1.0  0.67074  0.10449999999999997  0.2989  1.0000
  H   H6        1.0  0.55024  0.11432  0.14176  1.0000
  H   H7        1.0  0.3947299999999999  0.95679  0.02792  1.0000
  H   H8        1.0  0.36935  0.79532  0.07545  1.0000
  H   H9        1.0  0.08215999999999994  0.41270999999999997  0.22916  1.0000
  H   H10       1.0  0.00274999999999997  0.2326199999999999  0.23103  1.0000
  H   H11       1.0  0.06646999999999997  0.18985  0.39205  1.0000
  H   H12       1.0  0.2042999999999999  0.32594  0.54073  1.0000
  H   H13       1.0  0.15232999999999997  0.63998  0.02384  1.0000
  H   H14       1.0  0.030489999999999986  0.4706799999999999  0.10086  1.0000
  H   H15       1.0  0.40304  0.40235  0.33443  1.0000
  H   H16       1.0  0.53625  0.6085699999999999  0.49323  1.0000
  H   H17       1.0  0.8778  0.51875  0.22769999999999999  1.0000
  H   H18       1.0  0.69298  0.40221999999999997  0.10859  1.0000
  H   H19       1.0  0.6111099999999999  0.45286999999999983  0.9561799999999999  1.0000
  H   H20       1.0  0.7138799999999996  0.60901  0.93068  1.0000
  H   H21       1.0  0.84587  0.7194599999999999  0.89778  1.0000
  H   H22       1.0  0.9756899999999997  0.8828099999999998  0.89579  1.0000
  H   H23       1.0  0.13171  0.98863  0.05301  1.0000
  H   H24       1.0  0.1481699999999999  0.9271399999999997  0.20712000000000003  1.0000
  H   H25       1.0  0.41156999999999994  0.76944  0.57627  1.0000
  H   H26       1.0  0.4930799999999999  0.77  0.7543  1.0000
  H   H27       1.0  0.4301499999999999  0.60703  0.79959  1.0000
  H   H28       1.0  0.2877999999999999  0.4562799999999999  0.66916  1.0000
  H   H29       1.0  0.3513199999999999  0.9774599999999999  0.36314  1.0000
  H   H30       1.0  0.46486  0.8931099999999997  0.51899  1.0000
  H   H31       1.0  0.10621  0.66966  0.58915  1.0000
  H   H32       1.0  0.9524799999999998  0.50782  0.39159  1.0000
  H   H33       1.0  0.39466  0.24101999999999996  0.52741  1.0000
  H   H34       1.0  0.2087  0.12560999999999997  0.40988  1.0000
  H   H35       1.0  0.1125599999999999  0.9662999999999998  0.45182  1.0000
  H   H36       1.0  0.20337  0.93239  0.60221  1.0000
  H   H37       1.0  0.32809999999999995  0.89284  0.70136  1.0000
  H   H38       1.0  0.4464199999999999  0.882  0.8591099999999999  1.0000
  H   H39       1.0  0.6021299999999998  0.03875999999999998  0.97409  1.0000
  H   H40       1.0  0.63042  0.20050999999999997  0.92662  1.0000
  H   H41       1.0  0.9153  0.58508  0.77338  1.0000
  H   H42       1.0  0.99667  0.76498  0.77186  1.0000
  H   H43       1.0  0.9354999999999999  0.8080699999999998  0.61033  1.0000
  H   H44       1.0  0.79654  0.67296  0.46182  1.0000
  H   H45       1.0  0.84922  0.3561699999999999  0.97728  1.0000
  H   H46       1.0  0.96972  0.52644  0.90056  1.0000
  H   H47       1.0  0.59611  0.59536  0.66954  1.0000
  H   H48       1.0  0.46338999999999986  0.38951999999999987  0.51024  1.0000
  H   H49       1.0  0.12148  0.47993  0.76994  1.0000
  H   H50       1.0  0.30642  0.59619  0.88884  1.0000
  H   H51       1.0  0.38832  0.54557  0.04118  1.0000
  H   H52       1.0  0.28487  0.38973  0.06724  1.0000
  H   H53       1.0  0.15319999999999995  0.28074999999999994  0.1007  1.0000
  H   H54       1.0  0.023069999999999997  0.11817  0.10388  1.0000
  H   H55       1.0  0.8666599999999998  0.01184  0.94712  1.0000
  H   H56       1.0  0.85018  0.07205999999999996  0.79217  1.0000
  H   H57       1.0  0.58689  0.22945999999999997  0.42374000000000006  1.0000
  H   H58       1.0  0.50741  0.22996  0.24559  1.0000
  H   H59       1.0  0.57168  0.3932799999999999  0.20142  1.0000
  H   H60       1.0  0.71247  0.5439199999999998  0.33341  1.0000
  H   H61       1.0  0.6466999999999998  0.017890000000000024  0.63322  1.0000
  H   H62       1.0  0.53225  0.10255000000000002  0.47807  1.0000
  H   H63       1.0  0.89238  0.33172  0.40895999999999993  1.0000
  H   H64       1.0  0.04595999999999995  0.4926499999999999  0.60702  1.0000
  C   C1        1.0  0.65577  0.82744  0.46124  1.0000
  C   C2        1.0  0.7586599999999998  0.8929899999999997  0.52447  1.0000
  C   C3        1.0  0.8100999999999997  0.9803199999999997  0.50102  1.0000
  C   C4        1.0  0.7566099999999998  0.99867  0.41492  1.0000
  C   C5        1.0  0.65259  0.93063  0.35585  1.0000
  C   C6        1.0  0.5871099999999998  0.9439399999999998  0.26557  1.0000
  C   C7        1.0  0.60516  0.037369999999999994  0.24579  1.0000
  C   C8        1.0  0.53693  0.04283999999999998  0.15921999999999997  1.0000
  C   C9        1.0  0.45018999999999987  0.95529  0.09576999999999998  1.0000
  C   C10       1.0  0.43637  0.86531  0.12037  1.0000
  C   C11       1.0  0.10468000000000001  0.38949  0.29649  1.0000
  C   C12       1.0  0.06334999999999999  0.28980999999999996  0.29793  1.0000
  C   C13       1.0  0.09947  0.26605  0.38679  1.0000
  C   C14       1.0  0.17527  0.34289999999999987  0.47091  1.0000
  C   C15       1.0  0.20968  0.44224  0.46539  1.0000
  C   C16       1.0  0.22513  0.62423  0.17053000000000001  1.0000
  C   C17       1.0  0.13698999999999995  0.5944799999999998  0.07464  1.0000
  C   C18       1.0  0.04292000000000002  0.51417  0.04777  1.0000
  C   C19       1.0  0.4464199999999999  0.54332  0.29188  1.0000
  C   C20       1.0  0.4433  0.48398999999999986  0.36567000000000005  1.0000
  C   C21       1.0  0.49586999999999987  0.52673  0.46571  1.0000
  C   C22       1.0  0.8383399999999996  0.53475  0.16049  1.0000
  C   C23       1.0  0.73564  0.4719699999999999  0.09477  1.0000
  C   C24       1.0  0.6903099999999999  0.4992999999999999  0.01114  1.0000
  C   C25       1.0  0.74975  0.5884299999999999  0.99598  1.0000
  C   C26       1.0  0.8534899999999996  0.6470699999999999  0.06386  1.0000
  C   C27       1.0  0.92505  0.7412799999999998  0.05489  1.0000
  C   C28       1.0  0.9118299999999998  0.7691199999999998  0.96544  1.0000
  C   C29       1.0  0.9851599999999997  0.8592199999999998  0.9640700000000001  1.0000
  C   C30       1.0  0.07218999999999999  0.91837  0.051570000000000005  1.0000
  C   C31       1.0  0.08128999999999997  0.88591  0.13747  1.0000
  C   C32       1.0  0.3896099999999999  0.70171  0.60048  1.0000
  C   C33       1.0  0.43188  0.7014799999999998  0.69926  1.0000
  C   C34       1.0  0.3957799999999999  0.6119199999999998  0.72467  1.0000
  C   C35       1.0  0.31843  0.52618  0.65047  1.0000
  C   C36       1.0  0.28381999999999996  0.5303599999999999  0.55143  1.0000
  C   C37       1.0  0.2737099999999999  0.8250699999999997  0.37096999999999997  1.0000
  C   C38       1.0  0.3635799999999999  0.92393  0.40387  1.0000
  C   C39       1.0  0.4558299999999999  0.94963  0.48122  1.0000
  C   C40       1.0  0.04934999999999996  0.7083399999999997  0.45001  1.0000
  C   C41       1.0  0.05772999999999998  0.63655  0.50983  1.0000
  C   C42       1.0  0.000559999999999992  0.5361  0.47114  1.0000
  C   C43       1.0  0.34897  0.17157999999999998  0.54008  1.0000
  C   C44       1.0  0.24560999999999994  0.10754999999999999  0.47659  1.0000
  C   C45       1.0  0.19239999999999996  0.02039999999999998  0.49949  1.0000
  C   C46       1.0  0.24465  0.000710000000000006  0.58526  1.0000
  C   C47       1.0  0.3491799999999999  0.06744  0.64474  1.0000
  C   C48       1.0  0.41328  0.05324000000000001  0.73518  1.0000
  C   C49       1.0  0.39378999999999986  0.95967  0.75483  1.0000
  C   C50       1.0  0.46078999999999976  0.9535899999999998  0.8417899999999999  1.0000
  C   C51       1.0  0.54777  0.04070999999999999  0.90581  1.0000
  C   C52       1.0  0.56313  0.13085  0.8813  1.0000
  C   C53       1.0  0.8939299999999999  0.6083899999999999  0.7059  1.0000
  C   C54       1.0  0.93633  0.70803  0.70464  1.0000
  C   C55       1.0  0.9013799999999997  0.73206  0.61569  1.0000
  C   C56       1.0  0.82524  0.6556199999999999  0.53149  1.0000
  C   C57       1.0  0.7898999999999998  0.55623  0.53674  1.0000
  C   C58       1.0  0.7760899999999998  0.3731899999999999  0.8314999999999999  1.0000
  C   C59       1.0  0.8642999999999997  0.40245  0.92711  1.0000
  C   C60       1.0  0.9581099999999999  0.48303  0.9538499999999999  1.0000
  C   C61       1.0  0.5533999999999999  0.45361999999999997  0.7109699999999999  1.0000
  C   C62       1.0  0.55645  0.51369  0.63786  1.0000
  C   C63       1.0  0.5036199999999998  0.4713699999999998  0.53789  1.0000
  C   C64       1.0  0.16084  0.4638499999999999  0.83713  1.0000
  C   C65       1.0  0.2636399999999998  0.5265599999999999  0.90282  1.0000
  C   C66       1.0  0.30897  0.49918999999999997  0.98645  1.0000
  C   C67       1.0  0.24928  0.41024999999999995  0.00174  1.0000
  C   C68       1.0  0.14550999999999994  0.3517099999999999  0.9337799999999999  1.0000
  C   C69       1.0  0.07375  0.25791  0.94328  1.0000
  C   C70       1.0  0.08695999999999997  0.23094999999999993  0.03327  1.0000
  C   C71       1.0  0.01344  0.14131  0.03533  1.0000
  C   C72       1.0  0.92621  0.08186  0.94808  1.0000
  C   C73       1.0  0.91721  0.1135  0.86166  1.0000
  C   C74       1.0  0.6096299999999999  0.29737999999999987  0.39996  1.0000
  C   C75       1.0  0.56844  0.2982  0.30117  1.0000
  C   C76       1.0  0.6051399999999999  0.3880899999999999  0.27643  1.0000
  C   C77       1.0  0.68193  0.47357  0.35136  1.0000
  C   C78       1.0  0.7157899999999998  0.46857999999999994  0.45023  1.0000
  C   C79       1.0  0.7239799999999997  0.17120999999999997  0.6268  1.0000
  C   C80       1.0  0.6343199999999998  0.07201  0.59331  1.0000
  C   C81       1.0  0.5420499999999999  0.04628000000000003  0.51595  1.0000
  C   C82       1.0  0.94928  0.29151  0.54662  1.0000
  C   C83       1.0  0.941  0.3642399999999999  0.48818  1.0000
  C   C84       1.0  0.9979300000000001  0.46466999999999997  0.52749  1.0000
  N   N1        1.0  0.60282  0.84606  0.37926  1.0000
  N   N2        1.0  0.50405  0.8583899999999998  0.20245  1.0000
  N   N3        1.0  0.17469999999999994  0.4644099999999999  0.37855000000000005  1.0000
  N   N4        1.0  0.89682  0.61985  0.14502  1.0000
  N   N5        1.0  0.008569999999999998  0.80032  0.1405  1.0000
  N   N6        1.0  0.31939  0.61782  0.52756  1.0000
  N   N7        1.0  0.4006599999999999  0.15181999999999995  0.62186  1.0000
  N   N8        1.0  0.49664999999999987  0.13835999999999996  0.79882  1.0000
  N   N9        1.0  0.8240999999999998  0.53365  0.62355  1.0000
  N   N10       1.0  0.10223000000000002  0.37865  0.8523899999999999  1.0000
  N   N11       1.0  0.9901999999999996  0.19848999999999994  0.8578399999999999  1.0000
  N   N12       1.0  0.67967  0.38088  0.47345  1.0000
  O   O1        1.0  0.31084  0.6987599999999999  0.18096  1.0000
  O   O2        1.0  0.20943  0.57376  0.23305  1.0000
  O   O3        1.0  0.47028  0.63932  0.33242  1.0000
  O   O4        1.0  0.4305199999999999  0.49931000000000003  0.20099  1.0000
  O   O5        1.0  0.19250999999999993  0.8135699999999998  0.29642  1.0000
  O   O6        1.0  0.28409  0.76143  0.41926  1.0000
  O   O7        1.0  0.01012999999999993  0.6662199999999998  0.35288  1.0000
  O   O8        1.0  0.07494000000000002  0.80006  0.49539  1.0000
  O   O9        1.0  0.69136  0.29685999999999996  0.8196300000000001  1.0000
  O   O10       1.0  0.7905000000000001  0.42564  0.7704  1.0000
  O   O11       1.0  0.53485  0.35868  0.67097  1.0000
  O   O12       1.0  0.56441  0.49631  0.80099  1.0000
  O   O13       1.0  0.8067199999999999  0.1815199999999999  0.6991699999999998  1.0000
  O   O14       1.0  0.7116  0.23625000000000002  0.58114  1.0000
  O   O15       1.0  0.99092  0.33242  0.64379  1.0000
  O   O16       1.0  0.9207999999999996  0.19967999999999994  0.50003  1.0000
