data_image0
_chemical_formula_structural       Gd4H52C68O32
_chemical_formula_sum              "Gd4 H52 C68 O32"
_cell_length_a       8.24559
_cell_length_b       8.68728
_cell_length_c       28.41281
_cell_angle_alpha    90.07888
_cell_angle_beta     90.0
_cell_angle_gamma    90.0

_space_group_name_H-M_alt    "P 1"
_space_group_IT_number       1

loop_
  _space_group_symop_operation_xyz
  'x, y, z'

loop_
  _atom_site_type_symbol
  _atom_site_label
  _atom_site_symmetry_multiplicity
  _atom_site_fract_x
  _atom_site_fract_y
  _atom_site_fract_z
  _atom_site_occupancy
  Gd  Gd1       1.0  0.10707  0.57746  0.00614  1.0000
  Gd  Gd2       1.0  0.60706  0.4225599999999999  0.99386  1.0000
  Gd  Gd3       1.0  0.10758  0.9218099999999999  0.50594  1.0000
  Gd  Gd4       1.0  0.60758  0.0782  0.49406  1.0000
  H   H1        1.0  0.14568  0.49942  0.84564  1.0000
  H   H2        1.0  0.13277  0.43727  0.76005  1.0000
  H   H3        1.0  0.6703  0.30575  0.86394  1.0000
  H   H4        1.0  0.11416  0.17387  0.7146299999999999  1.0000
  H   H5        1.0  0.12332  0.12085999999999998  0.62831  1.0000
  H   H6        1.0  0.67906  0.3711  0.61019  1.0000
  H   H7        1.0  0.39964  0.15675999999999995  0.77678  1.0000
  H   H8        1.0  0.44539999999999996  0.32055  0.81307  1.0000
  H   H9        1.0  0.51125  0.13153  0.83011  1.0000
  H   H10       1.0  0.44401  0.56803  0.6975699999999999  1.0000
  H   H11       1.0  0.4588  0.40577  0.6587  1.0000
  H   H12       1.0  0.5643  0.5823599999999998  0.64565  1.0000
  H   H13       1.0  0.71187  0.7534599999999998  0.06522  1.0000
  H   H14       1.0  0.64569  0.50059  0.15434999999999996  1.0000
  H   H15       1.0  0.63278  0.56275  0.23994  1.0000
  H   H16       1.0  0.1703  0.69427  0.13605  1.0000
  H   H17       1.0  0.61417  0.82614  0.28537  1.0000
  H   H18       1.0  0.62333  0.87915  0.37168999999999996  1.0000
  H   H19       1.0  0.17906  0.62891  0.38981  1.0000
  H   H20       1.0  0.8996499999999997  0.8432499999999998  0.22322  1.0000
  H   H21       1.0  0.9454  0.67946  0.18693  1.0000
  H   H22       1.0  0.01125  0.8684899999999998  0.16988  1.0000
  H   H23       1.0  0.94401  0.43199  0.30243  1.0000
  H   H24       1.0  0.9588  0.59425  0.3413  1.0000
  H   H25       1.0  0.0643  0.4176599999999999  0.35435  1.0000
  H   H26       1.0  0.21186  0.24655999999999997  0.93478  1.0000
  H   H27       1.0  0.14593  0.9964099999999999  0.34541  1.0000
  H   H28       1.0  0.13273  0.060219999999999996  0.26001  1.0000
  H   H29       1.0  0.67341  0.19568  0.36463999999999996  1.0000
  H   H30       1.0  0.11585999999999999  0.3264  0.21467999999999995  1.0000
  H   H31       1.0  0.12343000000000001  0.3778199999999999  0.12826  1.0000
  H   H32       1.0  0.67732  0.13083999999999998  0.11109  1.0000
  H   H33       1.0  0.40232  0.34585  0.27693  1.0000
  H   H34       1.0  0.4473799999999999  0.17984  0.31205  1.0000
  H   H35       1.0  0.508  0.36833999999999995  0.3315  1.0000
  H   H36       1.0  0.44417  0.9322199999999999  0.19726  1.0000
  H   H37       1.0  0.46096  0.09588  0.15894  1.0000
  H   H38       1.0  0.56528  0.91875  0.14549  1.0000
  H   H39       1.0  0.71344  0.74201  0.56415  1.0000
  H   H40       1.0  0.64593  0.0036  0.65458  1.0000
  H   H41       1.0  0.63273  0.9397899999999999  0.73998  1.0000
  H   H42       1.0  0.17341  0.80434  0.63536  1.0000
  H   H43       1.0  0.61586  0.6736199999999998  0.7853199999999998  1.0000
  H   H44       1.0  0.62343  0.6221999999999999  0.87173  1.0000
  H   H45       1.0  0.17730999999999994  0.8691699999999999  0.88891  1.0000
  H   H46       1.0  0.90232  0.65417  0.7230699999999998  1.0000
  H   H47       1.0  0.94738  0.82017  0.68795  1.0000
  H   H48       1.0  0.008  0.63167  0.6685  1.0000
  H   H49       1.0  0.94416  0.06779999999999997  0.8027399999999999  1.0000
  H   H50       1.0  0.96097  0.90413  0.8410499999999997  1.0000
  H   H51       1.0  0.06528  0.08126  0.85451  1.0000
  H   H52       1.0  0.21344  0.25801  0.43585  1.0000
  C   C1        1.0  0.91256  0.4351199999999999  0.9113699999999998  1.0000
  C   C2        1.0  0.90817  0.40505999999999986  0.8596999999999999  1.0000
  C   C3        1.0  0.04002  0.44241  0.83074  1.0000
  C   C4        1.0  0.03182  0.4075799999999999  0.78291  1.0000
  C   C5        1.0  0.89408  0.3395299999999999  0.76261  1.0000
  C   C6        1.0  0.76119  0.30286  0.79235  1.0000
  C   C7        1.0  0.7693  0.3357199999999999  0.8404299999999999  1.0000
  C   C8        1.0  0.8937  0.305  0.71165  1.0000
  C   C9        1.0  0.02045  0.21945  0.69153  1.0000
  C   C10       1.0  0.02558  0.18880999999999995  0.64336  1.0000
  C   C11       1.0  0.90056  0.24322  0.6143799999999999  1.0000
  C   C12       1.0  0.77364  0.3304  0.63358  1.0000
  C   C13       1.0  0.77102  0.36333  0.68165  1.0000
  C   C14       1.0  0.89607  0.20394999999999996  0.56338  1.0000
  C   C15       1.0  0.48967999999999995  0.20878999999999995  0.80018  1.0000
  C   C16       1.0  0.5238  0.50464  0.67379  1.0000
  C   C17       1.0  0.82345  0.7125499999999998  0.04796  1.0000
  C   C18       1.0  0.41256  0.56489  0.08863  1.0000
  C   C19       1.0  0.40817  0.59495  0.1403  1.0000
  C   C20       1.0  0.54002  0.5575999999999999  0.16924999999999998  1.0000
  C   C21       1.0  0.5318199999999997  0.5924399999999999  0.21709  1.0000
  C   C22       1.0  0.39408  0.6604899999999998  0.23738  1.0000
  C   C23       1.0  0.26119  0.6971499999999998  0.20765  1.0000
  C   C24       1.0  0.26931  0.66429  0.15956999999999993  1.0000
  C   C25       1.0  0.3937  0.6950099999999998  0.28834999999999994  1.0000
  C   C26       1.0  0.52045  0.7805599999999998  0.30847  1.0000
  C   C27       1.0  0.52559  0.81121  0.35663  1.0000
  C   C28       1.0  0.40056  0.7568  0.3856099999999999  1.0000
  C   C29       1.0  0.27364  0.6696199999999999  0.36641  1.0000
  C   C30       1.0  0.27102  0.6366799999999998  0.31835  1.0000
  C   C31       1.0  0.39607  0.79606  0.43662  1.0000
  C   C32       1.0  0.9896800000000001  0.79122  0.19982  1.0000
  C   C33       1.0  0.0238  0.49537  0.3262  1.0000
  C   C34       1.0  0.32344  0.2874699999999999  0.95204  1.0000
  C   C35       1.0  0.91348  0.06116  0.41132  1.0000
  C   C36       1.0  0.90946  0.09296  0.35983  1.0000
  C   C37       1.0  0.04094  0.05511  0.33076  1.0000
  C   C38       1.0  0.03255  0.09101  0.28304999999999997  1.0000
  C   C39       1.0  0.89548  0.16122  0.26307  1.0000
  C   C40       1.0  0.76361  0.19976  0.29307  1.0000
  C   C41       1.0  0.77171  0.16491  0.34095  1.0000
  C   C42       1.0  0.89481  0.19557  0.2121  1.0000
  C   C43       1.0  0.02141  0.28079  0.19177  1.0000
  C   C44       1.0  0.02565  0.3108599999999999  0.14357  1.0000
  C   C45       1.0  0.89972  0.25758  0.11472  1.0000
  C   C46       1.0  0.77314  0.17077  0.13415  1.0000
  C   C47       1.0  0.7717  0.13725  0.18216  1.0000
  C   C48       1.0  0.8946  0.2972  0.06371  1.0000
  C   C49       1.0  0.49090000000000006  0.2934199999999999  0.30069  1.0000
  C   C50       1.0  0.5246499999999998  0.9960499999999999  0.17382  1.0000
  C   C51       1.0  0.82429  0.7846099999999998  0.5469  1.0000
  C   C52       1.0  0.41348  0.93885  0.58868  1.0000
  C   C53       1.0  0.40946  0.9070599999999998  0.64017  1.0000
  C   C54       1.0  0.54094  0.94491  0.66923  1.0000
  C   C55       1.0  0.53255  0.9089999999999998  0.71695  1.0000
  C   C56       1.0  0.39548  0.8388  0.73693  1.0000
  C   C57       1.0  0.26361  0.80026  0.70693  1.0000
  C   C58       1.0  0.27171  0.8351  0.65905  1.0000
  C   C59       1.0  0.39481  0.8044499999999998  0.7878999999999999  1.0000
  C   C60       1.0  0.52141  0.71923  0.8082299999999998  1.0000
  C   C61       1.0  0.52565  0.68915  0.85643  1.0000
  C   C62       1.0  0.39972  0.74244  0.88527  1.0000
  C   C63       1.0  0.27314  0.8292399999999998  0.86585  1.0000
  C   C64       1.0  0.2717  0.86276  0.8178299999999998  1.0000
  C   C65       1.0  0.39459  0.70281  0.93629  1.0000
  C   C66       1.0  0.9909  0.70659  0.69931  1.0000
  C   C67       1.0  0.024649999999999995  0.00396  0.82618  1.0000
  C   C68       1.0  0.32429  0.21538  0.4531  1.0000
  O   O1        1.0  0.03446  0.50527  0.92888  1.0000
  O   O2        1.0  0.7928  0.38658  0.93572  1.0000
  O   O3        1.0  0.01823  0.13479  0.54553  1.0000
  O   O4        1.0  0.76901  0.23810999999999996  0.53973  1.0000
  O   O5        1.0  0.63373  0.22766  0.7720199999999998  1.0000
  O   O6        1.0  0.65756  0.45523  0.7023799999999998  1.0000
  O   O7        1.0  0.80875  0.6146599999999999  0.01368  1.0000
  O   O8        1.0  0.96083  0.75832  0.06106  1.0000
  O   O9        1.0  0.53446  0.49473999999999996  0.07112  1.0000
  O   O10       1.0  0.2928  0.61344  0.06428  1.0000
  O   O11       1.0  0.51823  0.86522  0.45447  1.0000
  O   O12       1.0  0.26901  0.7619  0.46026999999999996  1.0000
  O   O13       1.0  0.13373  0.77236  0.22797999999999996  1.0000
  O   O14       1.0  0.15757  0.5447799999999998  0.29762  1.0000
  O   O15       1.0  0.30875  0.38535  0.98632  1.0000
  O   O16       1.0  0.46083  0.24171999999999996  0.93893  1.0000
  O   O17       1.0  0.03611  0.9921099999999999  0.4287  1.0000
  O   O18       1.0  0.79286  0.10755999999999999  0.43571  1.0000
  O   O19       1.0  0.01675  0.36622  0.04587  1.0000
  O   O20       1.0  0.76724  0.2638999999999999  0.04012  1.0000
  O   O21       1.0  0.63762  0.27902  0.27346  1.0000
  O   O22       1.0  0.65818  0.04496  0.20267  1.0000
  O   O23       1.0  0.80912  0.8862999999999998  0.51383  1.0000
  O   O24       1.0  0.96174  0.73631  0.55908  1.0000
  O   O25       1.0  0.53611  0.0079  0.5713  1.0000
  O   O26       1.0  0.29286  0.8924599999999998  0.56429  1.0000
  O   O27       1.0  0.51675  0.6338  0.95413  1.0000
  O   O28       1.0  0.26723  0.7361199999999998  0.95988  1.0000
  O   O29       1.0  0.13762  0.7209999999999998  0.72654  1.0000
  O   O30       1.0  0.15818  0.9550499999999998  0.7973299999999998  1.0000
  O   O31       1.0  0.30911  0.11370999999999998  0.48617  1.0000
  O   O32       1.0  0.46174  0.26367  0.44092  1.0000
