data_image0
_chemical_formula_structural       Zn6H78C60N12O18
_chemical_formula_sum              "Zn6 H78 C60 N12 O18"
_cell_length_a       10.60005
_cell_length_b       17.55925
_cell_length_c       17.52593
_cell_angle_alpha    119.96634
_cell_angle_beta     90.03470999999999
_cell_angle_gamma    90.04011999999999

_space_group_name_H-M_alt    "P 1"
_space_group_IT_number       1

loop_
  _space_group_symop_operation_xyz
  'x, y, z'

loop_
  _atom_site_type_symbol
  _atom_site_label
  _atom_site_symmetry_multiplicity
  _atom_site_fract_x
  _atom_site_fract_y
  _atom_site_fract_z
  _atom_site_occupancy
  Zn  Zn1       1.0  0.9278300000000002  0.07387000000000003  0.51534  1.0000
  Zn  Zn2       1.0  0.59679  0.4430299999999998  0.9244699999999998  1.0000
  Zn  Zn3       1.0  0.25877  0.4814899999999999  0.55643  1.0000
  Zn  Zn4       1.0  0.4358600000000001  0.90876  0.40518  1.0000
  Zn  Zn5       1.0  0.11578  0.49276  0.09484  1.0000
  Zn  Zn6       1.0  0.7726300000000001  0.59872  0.50395  1.0000
  H   H1        1.0  0.8961200000000001  0.90769  0.6071999999999999  1.0000
  H   H2        1.0  0.017250000000000005  0.92649  0.4457399999999999  1.0000
  H   H3        1.0  0.23342  0.69697  0.20714999999999997  1.0000
  H   H4        1.0  0.17324  0.85394  0.30827  1.0000
  H   H5        1.0  0.7890200000000002  0.77958  0.21587  1.0000
  H   H6        1.0  0.8667100000000001  0.62668  0.12070999999999997  1.0000
  H   H7        1.0  0.99992  0.9688699999999999  0.33576  1.0000
  H   H8        1.0  0.8393  0.93561  0.32047999999999993  1.0000
  H   H9        1.0  0.7585000000000001  0.86757  0.3994499999999999  1.0000
  H   H10       1.0  0.7847300000000001  0.80709  0.4963299999999999  1.0000
  H   H11       1.0  0.89003  0.71879  0.3477899999999999  1.0000
  H   H12       1.0  0.95746  0.70505  0.43315  1.0000
  H   H13       1.0  0.03546  0.77068  0.3961699999999999  1.0000
  H   H14       1.0  0.57403  0.69292  0.08834  1.0000
  H   H15       1.0  0.68279  0.51837  0.07426999999999999  1.0000
  H   H16       1.0  0.8951800000000001  0.5084  0.30238  1.0000
  H   H17       1.0  0.83681  0.45234  0.14445  1.0000
  H   H18       1.0  0.45182000000000005  0.4327599999999999  0.21608999999999995  1.0000
  H   H19       1.0  0.52788  0.4896699999999998  0.3696199999999999  1.0000
  H   H20       1.0  0.66378  0.36497999999999997  0.027719999999999995  1.0000
  H   H21       1.0  0.50301  0.38359  0.060799999999999986  1.0000
  H   H22       1.0  0.42381  0.53105  0.1304  1.0000
  H   H23       1.0  0.45453  0.68903  0.19036  1.0000
  H   H24       1.0  0.55038  0.6272699999999999  0.2808299999999999  1.0000
  H   H25       1.0  0.6221700000000001  0.7254699999999998  0.2959699999999999  1.0000
  H   H26       1.0  0.69869  0.6222500000000001  0.2316  1.0000
  H   H27       1.0  0.23349  0.39543999999999996  0.3008999999999999  1.0000
  H   H28       1.0  0.34889  0.55407  0.4804799999999999  1.0000
  H   H29       1.0  0.56174  0.79685  0.4954099999999999  1.0000
  H   H30       1.0  0.50382  0.69208  0.5476099999999998  1.0000
  H   H31       1.0  0.11851  0.78307  0.56905  1.0000
  H   H32       1.0  0.19395  0.88196  0.5151  1.0000
  H   H33       1.0  0.33232  0.6601899999999999  0.6332799999999997  1.0000
  H   H34       1.0  0.17124  0.67588  0.61677  1.0000
  H   H35       1.0  0.09112  0.60079  0.4677499999999999  1.0000
  H   H36       1.0  0.11910000000000003  0.5048199999999999  0.3099499999999999  1.0000
  H   H37       1.0  0.22045  0.6547499999999999  0.3727699999999999  1.0000
  H   H38       1.0  0.29206  0.57146  0.27447  1.0000
  H   H39       1.0  0.36657  0.60837  0.37829  1.0000
  H   H40       1.0  0.42240000000000005  0.053579999999999954  0.4210299999999999  1.0000
  H   H41       1.0  0.50012  0.07734  0.56062  1.0000
  H   H42       1.0  0.7214000000000002  0.27623  0.79887  1.0000
  H   H43       1.0  0.6577200000000001  0.1213699999999999  0.6915799999999998  1.0000
  H   H44       1.0  0.27552000000000004  0.1945599999999999  0.7886899999999998  1.0000
  H   H45       1.0  0.35217000000000004  0.34526  0.887  1.0000
  H   H46       1.0  0.4849200000000001  0.0043299999999998695  0.6440999999999998  1.0000
  H   H47       1.0  0.32405  0.038289999999999894  0.6676299999999997  1.0000
  H   H48       1.0  0.29108  0.17206999999999995  0.63896  1.0000
  H   H49       1.0  0.2767200000000001  0.18119999999999997  0.4949699999999999  1.0000
  H   H50       1.0  0.36194  0.29754  0.63774  1.0000
  H   H51       1.0  0.45694000000000007  0.28758  0.55012  1.0000
  H   H52       1.0  0.50951  0.24198999999999998  0.61575  1.0000
  H   H53       1.0  0.09722  0.3678199999999998  0.9447699999999998  1.0000
  H   H54       1.0  0.1669  0.48585999999999996  0.92606  1.0000
  H   H55       1.0  0.38247  0.51825  0.72053  1.0000
  H   H56       1.0  0.32236000000000004  0.5658599999999999  0.8761499999999998  1.0000
  H   H57       1.0  0.9404900000000002  0.5986399999999998  0.8084499999999998  1.0000
  H   H58       1.0  0.013640000000000001  0.54536  0.6564  1.0000
  H   H59       1.0  0.1532  0.64062  0.99604  1.0000
  H   H60       1.0  0.9915800000000001  0.63183  0.96358  1.0000
  H   H61       1.0  0.95945  0.4679899999999999  0.8278799999999997  1.0000
  H   H62       1.0  0.94963  0.3137699999999999  0.8195199999999998  1.0000
  H   H63       1.0  0.02453  0.33995  0.70135  1.0000
  H   H64       1.0  0.12673  0.2651599999999999  0.7103499999999998  1.0000
  H   H65       1.0  0.17337  0.37724  0.75435  1.0000
  H   H66       1.0  0.74942  0.57897  0.63213  1.0000
  H   H67       1.0  0.83022  0.4410599999999999  0.5174899999999998  1.0000
  H   H68       1.0  0.050960000000000005  0.20241999999999996  0.4791999999999999  1.0000
  H   H69       1.0  0.98838  0.31087  0.43269999999999986  1.0000
  H   H70       1.0  0.6067000000000001  0.2114  0.40365  1.0000
  H   H71       1.0  0.6820700000000001  0.11207000000000002  0.45535  1.0000
  H   H72       1.0  0.81807  0.35766  0.3614399999999999  1.0000
  H   H73       1.0  0.65674  0.3332699999999999  0.3698399999999999  1.0000
  H   H74       1.0  0.62214  0.36062  0.53265  1.0000
  H   H75       1.0  0.60629  0.50247  0.68624  1.0000
  H   H76       1.0  0.69674  0.36190999999999995  0.65989  1.0000
  H   H77       1.0  0.79152  0.4501999999999999  0.7366699999999998  1.0000
  H   H78       1.0  0.8422  0.38536  0.62497  1.0000
  C   C1        1.0  0.13566  0.71817  0.21276  1.0000
  C   C2        1.0  0.10175  0.80561  0.2679  1.0000
  C   C3        1.0  0.9747100000000002  0.82952  0.2717999999999999  1.0000
  C   C4        1.0  0.8885400000000001  0.76486  0.21717  1.0000
  C   C5        1.0  0.93122  0.67883  0.16389  1.0000
  C   C6        1.0  0.93316  0.9215200000000001  0.33686  1.0000
  C   C7        1.0  0.82611  0.8991199999999999  0.4543999999999999  1.0000
  C   C8        1.0  0.7491  0.9693800000000001  0.5345599999999998  1.0000
  C   C9        1.0  0.8707500000000001  0.83062  0.47961  1.0000
  C   C10       1.0  0.9430900000000001  0.75202  0.40979  1.0000
  C   C11       1.0  0.7978300000000002  0.49198000000000003  0.28016  1.0000
  C   C12       1.0  0.76496  0.45978  0.19234999999999994  1.0000
  C   C13       1.0  0.63817  0.43929  0.16745  1.0000
  C   C14       1.0  0.55125  0.44879  0.23149999999999996  1.0000
  C   C15       1.0  0.59295  0.48111000000000004  0.31787999999999994  1.0000
  C   C16       1.0  0.59734  0.41335  0.07536  1.0000
  C   C17       1.0  0.4925600000000001  0.55435  0.09953  1.0000
  C   C18       1.0  0.4169800000000001  0.5655299999999999  0.02951  1.0000
  C   C19       1.0  0.53908  0.64722  0.16851  1.0000
  C   C20       1.0  0.60697  0.65542  0.24857999999999994  1.0000
  C   C21       1.0  0.46434  0.79009  0.51096  1.0000
  C   C22       1.0  0.4317000000000001  0.7329700000000001  0.54125  1.0000
  C   C23       1.0  0.30503  0.72773  0.56129  1.0000
  C   C24       1.0  0.21787  0.78288  0.5531399999999997  1.0000
  C   C25       1.0  0.25925  0.83825  0.52245  1.0000
  C   C26       1.0  0.2648  0.66067  0.58594  1.0000
  C   C27       1.0  0.15829  0.54577  0.4442599999999999  1.0000
  C   C28       1.0  0.08057  0.46545  0.4331299999999999  1.0000
  C   C29       1.0  0.20427  0.5223  0.35123  1.0000
  C   C30       1.0  0.27533  0.59373  0.3444  1.0000
  C   C31       1.0  0.62407  0.25428  0.79411  1.0000
  C   C32       1.0  0.58803  0.16859  0.7357  1.0000
  C   C33       1.0  0.46035  0.14425999999999994  0.73031  1.0000
  C   C34       1.0  0.37538  0.2086799999999999  0.7878199999999997  1.0000
  C   C35       1.0  0.4179  0.2938  0.84438  1.0000
  C   C36       1.0  0.41787000000000013  0.05642999999999997  0.65548  1.0000
  C   C37       1.0  0.31593000000000004  0.11899999999999995  0.57238  1.0000
  C   C38       1.0  0.19155  0.06953999999999987  0.5330899999999997  1.0000
  C   C39       1.0  0.36105  0.16713999999999993  0.5226899999999998  1.0000
  C   C40       1.0  0.42674000000000006  0.25361  0.58522  1.0000
  C   C41       1.0  0.2862  0.53751  0.7439  1.0000
  C   C42       1.0  0.25214000000000003  0.5649299999999999  0.8300399999999998  1.0000
  C   C43       1.0  0.12564000000000003  0.5868499999999999  0.8561099999999998  1.0000
  C   C44       1.0  0.03967  0.58187  0.79282  1.0000
  C   C45       1.0  0.08020000000000001  0.55276  0.70706  1.0000
  C   C46       1.0  0.08463  0.60047  0.94457  1.0000
  C   C47       1.0  0.9843300000000003  0.4540099999999999  0.8806799999999998  1.0000
  C   C48       1.0  0.85988  0.4615799999999999  0.9288999999999997  1.0000
  C   C49       1.0  0.03211000000000001  0.3568199999999999  0.8322499999999998  1.0000
  C   C50       1.0  0.09346  0.33339999999999986  0.7445299999999998  1.0000
  C   C51       1.0  0.95401  0.20709999999999998  0.4612999999999999  1.0000
  C   C52       1.0  0.91859  0.26614  0.43469  1.0000
  C   C53       1.0  0.7914500000000001  0.2709599999999999  0.4144199999999999  1.0000
  C   C54       1.0  0.70617  0.21265999999999993  0.4197899999999999  1.0000
  C   C55       1.0  0.74796  0.15553999999999996  0.4478799999999999  1.0000
  C   C56       1.0  0.74976  0.34581999999999996  0.4013399999999999  1.0000
  C   C57       1.0  0.64644  0.42737999999999987  0.5466699999999998  1.0000
  C   C58       1.0  0.52223  0.46684999999999993  0.53718  1.0000
  C   C59       1.0  0.69101  0.47683999999999976  0.6445299999999998  1.0000
  C   C60       1.0  0.7599600000000001  0.41499  0.66785  1.0000
  N   N1        1.0  0.052170000000000015  0.65501  0.16223999999999994  1.0000
  N   N2        1.0  0.9296000000000002  0.93983  0.4297199999999999  1.0000
  N   N3        1.0  0.7135900000000001  0.50375  0.3426299999999999  1.0000
  N   N4        1.0  0.59546  0.48881  0.05864  1.0000
  N   N5        1.0  0.37987000000000004  0.84141  0.50043  1.0000
  N   N6        1.0  0.2612900000000001  0.56906  0.50971  1.0000
  N   N7        1.0  0.54025  0.3169099999999999  0.8473299999999998  1.0000
  N   N8        1.0  0.41333  0.06170999999999994  0.5741799999999998  1.0000
  N   N9        1.0  0.20157000000000003  0.5304  0.68241  1.0000
  N   N10       1.0  0.07968  0.51426  0.9396  1.0000
  N   N11       1.0  0.86997  0.15282000000000004  0.46892  1.0000
  N   N12       1.0  0.74369  0.42665999999999993  0.4879099999999999  1.0000
  O   O1        1.0  0.7812200000000001  0.05209000000000003  0.57033  1.0000
  O   O2        1.0  0.66205  0.9423299999999999  0.56203  1.0000
  O   O3        1.0  0.9509400000000002  0.8740399999999999  0.5568099999999998  1.0000
  O   O4        1.0  0.45011  0.5193799999999998  0.9468199999999998  1.0000
  O   O5        1.0  0.33033  0.62016  0.05663999999999999  1.0000
  O   O6        1.0  0.62489  0.67843  0.12557999999999997  1.0000
  O   O7        1.0  0.11142  0.42921  0.48004  1.0000
  O   O8        1.0  0.9942  0.43840999999999997  0.3780099999999999  1.0000
  O   O9        1.0  0.28689  0.44653  0.31770999999999994  1.0000
  O   O10       1.0  0.18788000000000002  0.9899999999999999  0.4762999999999999  1.0000
  O   O11       1.0  0.09341000000000002  0.12139000000000004  0.56451  1.0000
  O   O12       1.0  0.44916  0.11589999999999995  0.4533699999999999  1.0000
  O   O13       1.0  0.85638  0.47700000000000004  0.006429999999999998  1.0000
  O   O14       1.0  0.7614800000000002  0.4469199999999998  0.8780399999999998  1.0000
  O   O15       1.0  0.12440000000000001  0.3406499999999999  0.8827099999999998  1.0000
  O   O16       1.0  0.51891  0.52706  0.51919  1.0000
  O   O17       1.0  0.4239300000000001  0.43183999999999995  0.55337  1.0000
  O   O18       1.0  0.77589  0.5480699999999998  0.6635499999999999  1.0000
