data_image0
_chemical_formula_structural       Gd8H24C72S12O48
_chemical_formula_sum              "Gd8 H24 C72 S12 O48"
_cell_length_a       12.21653
_cell_length_b       17.19879
_cell_length_c       18.17684
_cell_angle_alpha    110.32162999999998
_cell_angle_beta     89.99415
_cell_angle_gamma    89.9815

_symmetry_space_group_name_H-M    'P 1'
_symmetry_Int_Tables_number       1

loop_
  _symmetry_equiv_pos_as_xyz
  'x,y,z'

loop_
  _atom_site_type_symbol
  _atom_site_label
  _atom_site_symmetry_multiplicity
  _atom_site_fract_x
  _atom_site_fract_y
  _atom_site_fract_z
  _atom_site_occupancy
  Gd  Gd1       1.0  0.4328  0.9985200000000001  0.40506  1.0000
  Gd  Gd2       1.0  0.054349999999999996  0.49330000000000007  0.59522  1.0000
  Gd  Gd3       1.0  0.43213  0.001380000000000002  0.09466  1.0000
  Gd  Gd4       1.0  0.0542  0.50661  0.9049699999999999  1.0000
  Gd  Gd5       1.0  0.56721  0.0014799999999999835  0.59494  1.0000
  Gd  Gd6       1.0  0.9456600000000001  0.5067  0.40478  1.0000
  Gd  Gd7       1.0  0.56788  0.9986100000000001  0.9053399999999998  1.0000
  Gd  Gd8       1.0  0.9458  0.49338  0.09503  1.0000
  H   H1        1.0  0.29324  0.15352999999999994  0.75032  1.0000
  H   H2        1.0  0.2309  0.17991  0.2043  1.0000
  H   H3        1.0  0.5443  0.19414  0.4242899999999999  1.0000
  H   H4        1.0  0.1682  0.2871  0.81532  1.0000
  H   H5        1.0  0.64154  0.32542999999999994  0.4075199999999999  1.0000
  H   H6        1.0  0.10936999999999998  0.31139000000000006  0.28497  1.0000
  H   H7        1.0  0.29288  0.8459800000000001  0.74924  1.0000
  H   H8        1.0  0.23102  0.8201400000000002  0.2955399999999999  1.0000
  H   H9        1.0  0.54405  0.80576  0.07596  1.0000
  H   H10       1.0  0.16774  0.7123599999999999  0.6846799999999997  1.0000
  H   H11       1.0  0.64115  0.67431  0.09253  1.0000
  H   H12       1.0  0.10949  0.6887200000000001  0.21492  1.0000
  H   H13       1.0  0.70677  0.8464700000000001  0.24968  1.0000
  H   H14       1.0  0.7691  0.8200900000000001  0.7956999999999999  1.0000
  H   H15       1.0  0.45571  0.80586  0.57571  1.0000
  H   H16       1.0  0.83181  0.71289  0.18468  1.0000
  H   H17       1.0  0.35847  0.67456  0.59248  1.0000
  H   H18       1.0  0.89064  0.68861  0.71503  1.0000
  H   H19       1.0  0.7071299999999999  0.15401  0.25076  1.0000
  H   H20       1.0  0.76899  0.17985000000000004  0.70446  1.0000
  H   H21       1.0  0.45596  0.19424  0.92404  1.0000
  H   H22       1.0  0.8322699999999998  0.28763  0.31532  1.0000
  H   H23       1.0  0.35885999999999996  0.32569000000000004  0.9074699999999999  1.0000
  H   H24       1.0  0.89052  0.31126999999999994  0.7850799999999998  1.0000
  C   C1        1.0  0.37953  0.11762000000000002  0.29529  1.0000
  C   C2        1.0  0.66666  0.20007  0.51308  1.0000
  C   C3        1.0  0.3041  0.18835  0.31615999999999994  1.0000
  C   C4        1.0  0.8335099999999999  0.38941  0.50147  1.0000
  C   C5        1.0  0.25536  0.19014000000000006  0.7191299999999999  1.0000
  C   C6        1.0  0.23406  0.2124  0.26743  1.0000
  C   C7        1.0  0.14978  0.37996  0.45408  1.0000
  C   C8        1.0  0.19555  0.31059  0.38973  1.0000
  C   C9        1.0  0.75643  0.32201  0.49772999999999995  1.0000
  C   C10       1.0  0.61533  0.22582000000000005  0.45707  1.0000
  C   C11       1.0  0.33529  0.10317999999999997  0.58574  1.0000
  C   C12       1.0  0.2682  0.17133  0.6384999999999998  1.0000
  C   C13       1.0  0.15581  0.29632  0.6994  1.0000
  C   C14       1.0  0.18974  0.26059  0.75358  1.0000
  C   C15       1.0  0.6668699999999999  0.29512  0.4481199999999999  1.0000
  C   C16       1.0  0.17088  0.28211  0.30992  1.0000
  C   C17       1.0  0.09404  0.37388000000000005  0.71717  1.0000
  C   C18       1.0  0.63734  0.12863000000000002  0.53512  1.0000
  C   C19       1.0  0.37972  0.8824599999999999  0.20444  1.0000
  C   C20       1.0  0.6668699999999999  0.8001400000000002  0.98739  1.0000
  C   C21       1.0  0.3041  0.81179  0.18374  1.0000
  C   C22       1.0  0.8334399999999998  0.61058  0.99861  1.0000
  C   C23       1.0  0.2551  0.8094700000000001  0.78056  1.0000
  C   C24       1.0  0.23404  0.78766  0.2324  1.0000
  C   C25       1.0  0.15002  0.61938  0.04597  1.0000
  C   C26       1.0  0.19575  0.68917  0.11005999999999998  1.0000
  C   C27       1.0  0.75626  0.67799  0.0025  1.0000
  C   C28       1.0  0.61524  0.77423  0.04321  1.0000
  C   C29       1.0  0.33572  0.8965699999999999  0.91371  1.0000
  C   C30       1.0  0.26839  0.8285  0.86115  1.0000
  C   C31       1.0  0.15567  0.70361  0.80088  1.0000
  C   C32       1.0  0.18937999999999997  0.7390500000000002  0.74641  1.0000
  C   C33       1.0  0.6665700000000001  0.70478  0.05205  1.0000
  C   C34       1.0  0.17099  0.71789  0.1899  1.0000
  C   C35       1.0  0.09392  0.62613  0.7836  1.0000
  C   C36       1.0  0.63744  0.87152  0.96529  1.0000
  C   C37       1.0  0.62048  0.8823800000000002  0.70471  1.0000
  C   C38       1.0  0.3333499999999999  0.7999200000000002  0.48691999999999996  1.0000
  C   C39       1.0  0.6959099999999999  0.8116400000000003  0.6838399999999999  1.0000
  C   C40       1.0  0.1665  0.61058  0.49853  1.0000
  C   C41       1.0  0.74464  0.80985  0.28086999999999995  1.0000
  C   C42       1.0  0.76594  0.78759  0.7325699999999998  1.0000
  C   C43       1.0  0.85023  0.62004  0.54592  1.0000
  C   C44       1.0  0.80446  0.68941  0.61027  1.0000
  C   C45       1.0  0.24358  0.67799  0.50227  1.0000
  C   C46       1.0  0.38467999999999997  0.77418  0.54293  1.0000
  C   C47       1.0  0.66472  0.89681  0.41426  1.0000
  C   C48       1.0  0.73181  0.82866  0.3615  1.0000
  C   C49       1.0  0.8442  0.7036800000000002  0.3006  1.0000
  C   C50       1.0  0.81027  0.73941  0.24641999999999997  1.0000
  C   C51       1.0  0.33314  0.7048700000000001  0.5518799999999999  1.0000
  C   C52       1.0  0.82913  0.71789  0.69008  1.0000
  C   C53       1.0  0.9059599999999999  0.6261200000000002  0.28283  1.0000
  C   C54       1.0  0.36267  0.87136  0.46488  1.0000
  C   C55       1.0  0.62029  0.11753999999999996  0.7955599999999998  1.0000
  C   C56       1.0  0.33314  0.19986  0.01261  1.0000
  C   C57       1.0  0.6959099999999999  0.18821000000000004  0.81626  1.0000
  C   C58       1.0  0.16657  0.38942  0.00139  1.0000
  C   C59       1.0  0.74491  0.19052  0.21944  1.0000
  C   C60       1.0  0.76597  0.21233999999999997  0.7676  1.0000
  C   C61       1.0  0.8499899999999999  0.3806200000000001  0.95403  1.0000
  C   C62       1.0  0.80426  0.31083000000000005  0.88994  1.0000
  C   C63       1.0  0.24374999999999997  0.32201  0.9975000000000002  1.0000
  C   C64       1.0  0.38477  0.22576  0.95679  1.0000
  C   C65       1.0  0.66429  0.10343  0.08629  1.0000
  C   C66       1.0  0.7316199999999999  0.1715  0.13885  1.0000
  C   C67       1.0  0.84434  0.29638  0.19912  1.0000
  C   C68       1.0  0.81063  0.26094  0.25359  1.0000
  C   C69       1.0  0.33343999999999996  0.29521  0.9479499999999998  1.0000
  C   C70       1.0  0.82902  0.2821  0.8101  1.0000
  C   C71       1.0  0.90609  0.37387  0.2164  1.0000
  C   C72       1.0  0.36257  0.12847  0.03471  1.0000
  S   S1        1.0  0.20159  0.24163  0.60567  1.0000
  S   S2        1.0  0.29399  0.25113  0.41306  1.0000
  S   S3        1.0  0.77681  0.26247999999999994  0.5560299999999999  1.0000
  S   S4        1.0  0.20177  0.7586100000000002  0.89443  1.0000
  S   S5        1.0  0.29407  0.7487700000000003  0.08681  1.0000
  S   S6        1.0  0.77708  0.7377  0.94447  1.0000
  S   S7        1.0  0.79842  0.7583599999999999  0.39433  1.0000
  S   S8        1.0  0.7060199999999999  0.7488600000000001  0.58694  1.0000
  S   S9        1.0  0.2232  0.73751  0.44397  1.0000
  S   S10       1.0  0.79823  0.24139  0.10557  1.0000
  S   S11       1.0  0.70594  0.25122  0.91319  1.0000
  S   S12       1.0  0.22293000000000002  0.26229  0.05553  1.0000
  O   O1        1.0  0.08367  0.40596  0.66438  1.0000
  O   O2        1.0  0.6896200000000001  0.11179  0.58828  1.0000
  O   O3        1.0  0.18947  0.39673  0.52257  1.0000
  O   O4        1.0  0.32285  0.08171  0.51151  1.0000
  O   O5        1.0  0.05388999999999999  0.40523999999999993  0.7864099999999999  1.0000
  O   O6        1.0  0.06748  0.42162000000000005  0.442  1.0000
  O   O7        1.0  0.9022099999999998  0.40971  0.5584  1.0000
  O   O8        1.0  0.55505  0.08274999999999998  0.5005499999999999  1.0000
  O   O9        1.0  0.8279099999999999  0.4213299999999999  0.4479299999999999  1.0000
  O   O10       1.0  0.42696  0.10259000000000003  0.35235  1.0000
  O   O11       1.0  0.39375999999999994  0.07542  0.22345  1.0000
  O   O12       1.0  0.404  0.07094  0.62039  1.0000
  O   O13       1.0  0.08356  0.59441  0.83666  1.0000
  O   O14       1.0  0.6895799999999999  0.88843  0.91211  1.0000
  O   O15       1.0  0.19005999999999998  0.60162  0.9774999999999999  1.0000
  O   O16       1.0  0.32268  0.91845  0.98793  1.0000
  O   O17       1.0  0.05378  0.59425  0.71438  1.0000
  O   O18       1.0  0.0673  0.57842  0.05842  1.0000
  O   O19       1.0  0.90201  0.5903100000000001  0.9416199999999999  1.0000
  O   O20       1.0  0.55512  0.9173699999999999  0.9999699999999999  1.0000
  O   O21       1.0  0.82795  0.5787400000000001  0.0522  1.0000
  O   O22       1.0  0.42628  0.89754  0.14713  1.0000
  O   O23       1.0  0.3952  0.92461  0.27614  1.0000
  O   O24       1.0  0.40507  0.9280500000000002  0.87884  1.0000
  O   O25       1.0  0.91634  0.5940299999999998  0.3356199999999999  1.0000
  O   O26       1.0  0.31039  0.8882  0.41171999999999986  1.0000
  O   O27       1.0  0.8105400000000001  0.6032700000000002  0.47742999999999997  1.0000
  O   O28       1.0  0.6771599999999999  0.91828  0.48849  1.0000
  O   O29       1.0  0.9461099999999999  0.5947500000000001  0.21359  1.0000
  O   O30       1.0  0.93253  0.57837  0.558  1.0000
  O   O31       1.0  0.0978  0.59028  0.44159  1.0000
  O   O32       1.0  0.44496  0.9172400000000003  0.49944  1.0000
  O   O33       1.0  0.1721  0.57867  0.55207  1.0000
  O   O34       1.0  0.57305  0.8974100000000004  0.6476499999999998  1.0000
  O   O35       1.0  0.60625  0.9245700000000002  0.77655  1.0000
  O   O36       1.0  0.59601  0.92906  0.37961  1.0000
  O   O37       1.0  0.9164499999999999  0.40558999999999995  0.16333999999999996  1.0000
  O   O38       1.0  0.31043  0.11156  0.08789  1.0000
  O   O39       1.0  0.80995  0.39837  0.0225  1.0000
  O   O40       1.0  0.6773299999999999  0.08155  0.01207  1.0000
  O   O41       1.0  0.94623  0.40574  0.28562  1.0000
  O   O42       1.0  0.93271  0.4215800000000001  0.94158  1.0000
  O   O43       1.0  0.098  0.40969  0.058379999999999994  1.0000
  O   O44       1.0  0.44489  0.08262  2.9999999999999997e-05  1.0000
  O   O45       1.0  0.17206000000000002  0.42125000000000007  0.9477999999999999  1.0000
  O   O46       1.0  0.57373  0.10245000000000001  0.85287  1.0000
  O   O47       1.0  0.60481  0.07538000000000006  0.72386  1.0000
  O   O48       1.0  0.59494  0.07195  0.12115  1.0000
