data_image0
_chemical_formula_structural       Ag4H72C56N24
_chemical_formula_sum              "Ag4 H72 C56 N24"
_cell_length_a       6.91178
_cell_length_b       11.32634
_cell_length_c       18.2115
_cell_angle_alpha    90.0216
_cell_angle_beta     89.99236
_cell_angle_gamma    90.21047

_symmetry_space_group_name_H-M    'P 1'
_symmetry_Int_Tables_number       1

loop_
  _symmetry_equiv_pos_as_xyz
  'x,y,z'

loop_
  _atom_site_type_symbol
  _atom_site_label
  _atom_site_symmetry_multiplicity
  _atom_site_fract_x
  _atom_site_fract_y
  _atom_site_fract_z
  _atom_site_occupancy
  Ag  Ag1       1.0  0.75717  0.04730000000000001  0.05716  1.0000
  Ag  Ag2       1.0  0.74925  0.54824  0.4439100000000001  1.0000
  Ag  Ag3       1.0  0.24281999999999995  0.95269  0.94284  1.0000
  Ag  Ag4       1.0  0.25074  0.45175  0.5561000000000001  1.0000
  H   H1        1.0  0.5041  0.23251  0.16002  1.0000
  H   H2        1.0  0.05999  0.20794000000000004  0.9983400000000001  1.0000
  H   H3        1.0  0.48674  0.58177  0.28201  1.0000
  H   H4        1.0  0.06263  0.37631  0.3944700000000001  1.0000
  H   H5        1.0  0.21415  0.29012  0.24155000000000001  1.0000
  H   H6        1.0  0.37683  0.39236000000000004  0.19990000000000002  1.0000
  H   H7        1.0  0.28811  0.60912  0.19064  1.0000
  H   H8        1.0  0.06317  0.65658  0.22688000000000003  1.0000
  H   H9        1.0  0.05401  0.6416500000000002  0.08969  1.0000
  H   H10       1.0  0.07818999999999998  0.43923000000000006  0.03113  1.0000
  H   H11       1.0  0.29784999999999995  0.47844  0.07496  1.0000
  H   H12       1.0  0.90107  0.23456  0.17643  1.0000
  H   H13       1.0  0.8432699999999999  0.29726  0.09053  1.0000
  H   H14       1.0  0.6574399999999998  0.39713000000000004  0.19131  1.0000
  H   H15       1.0  0.83665  0.5118  0.28804  1.0000
  H   H16       1.0  0.89498  0.36023000000000005  0.29157  1.0000
  H   H17       1.0  0.75231  0.6046  0.16149  1.0000
  H   H18       1.0  0.75401  0.51523  0.08194  1.0000
  H   H19       1.0  0.55155  0.29266  0.49826  1.0000
  H   H20       1.0  0.0037099999999999998  0.25832  0.65586  1.0000
  H   H21       1.0  0.55951  0.12751  0.8942899999999999  1.0000
  H   H22       1.0  0.97718  0.91747  0.78292  1.0000
  H   H23       1.0  0.86991  0.10587000000000002  0.6991900000000001  1.0000
  H   H24       1.0  0.70945  0.20992  0.73981  1.0000
  H   H25       1.0  0.7780699999999999  0.8891500000000001  0.69215  1.0000
  H   H26       1.0  0.55192  0.8433200000000001  0.72846  1.0000
  H   H27       1.0  0.54439  0.85467  0.59125  1.0000
  H   H28       1.0  0.7907  0.01729  0.5752600000000001  1.0000
  H   H29       1.0  0.57202  0.05593  0.53093  1.0000
  H   H30       1.0  0.33802  0.19870000000000002  0.58873  1.0000
  H   H31       1.0  0.39658  0.26401  0.67394  1.0000
  H   H32       1.0  0.15086  0.10140000000000002  0.6906100000000001  1.0000
  H   H33       1.0  0.38808999999999994  0.14097  0.79058  1.0000
  H   H34       1.0  0.32811  0.9893700000000001  0.78826  1.0000
  H   H35       1.0  0.24268  0.89354  0.66222  1.0000
  H   H36       1.0  0.24648  0.9812500000000001  0.58202  1.0000
  H   H37       1.0  0.49588  0.76748  0.83998  1.0000
  H   H38       1.0  0.94  0.7920500000000001  0.00166  1.0000
  H   H39       1.0  0.51325  0.41822  0.71799  1.0000
  H   H40       1.0  0.93736  0.62368  0.60553  1.0000
  H   H41       1.0  0.78584  0.70988  0.75845  1.0000
  H   H42       1.0  0.62316  0.60763  0.80011  1.0000
  H   H43       1.0  0.71188  0.39088  0.80936  1.0000
  H   H44       1.0  0.93681  0.34341000000000005  0.77313  1.0000
  H   H45       1.0  0.94598  0.35834000000000005  0.91032  1.0000
  H   H46       1.0  0.9218  0.56077  0.9688800000000001  1.0000
  H   H47       1.0  0.70214  0.52155  0.9250400000000001  1.0000
  H   H48       1.0  0.09892  0.76544  0.82358  1.0000
  H   H49       1.0  0.15670999999999996  0.70273  0.90947  1.0000
  H   H50       1.0  0.34255  0.60286  0.80869  1.0000
  H   H51       1.0  0.16333999999999996  0.48819  0.71196  1.0000
  H   H52       1.0  0.10501  0.63976  0.70843  1.0000
  H   H53       1.0  0.24767999999999996  0.39539  0.83851  1.0000
  H   H54       1.0  0.24597999999999995  0.48477  0.9180600000000001  1.0000
  H   H55       1.0  0.44844  0.70733  0.50175  1.0000
  H   H56       1.0  0.9962799999999999  0.74168  0.34415  1.0000
  H   H57       1.0  0.44047999999999987  0.87248  0.10572  1.0000
  H   H58       1.0  0.02281  0.08252  0.21709  1.0000
  H   H59       1.0  0.13008  0.89412  0.30081  1.0000
  H   H60       1.0  0.2905399999999999  0.79008  0.2602  1.0000
  H   H61       1.0  0.22191  0.11084  0.30785  1.0000
  H   H62       1.0  0.44807  0.15667  0.27154  1.0000
  H   H63       1.0  0.4556  0.14532  0.40876  1.0000
  H   H64       1.0  0.20929  0.9827  0.42475  1.0000
  H   H65       1.0  0.42797  0.94406  0.46907  1.0000
  H   H66       1.0  0.6619699999999998  0.8012900000000001  0.41127  1.0000
  H   H67       1.0  0.60341  0.73598  0.32606  1.0000
  H   H68       1.0  0.84913  0.89859  0.30939  1.0000
  H   H69       1.0  0.6119  0.8590200000000001  0.20942  1.0000
  H   H70       1.0  0.67188  0.01062  0.21174  1.0000
  H   H71       1.0  0.7573099999999999  0.10645  0.33778  1.0000
  H   H72       1.0  0.75351  0.01874  0.4179800000000001  1.0000
  C   C1        1.0  0.42704999999999993  0.21768000000000004  0.10945  1.0000
  C   C2        1.0  0.19796  0.20402  0.026390000000000004  1.0000
  C   C3        1.0  0.41404  0.52809  0.32236  1.0000
  C   C4        1.0  0.19709  0.41852000000000006  0.37864  1.0000
  C   C5        1.0  0.12919  0.34581  0.13252  1.0000
  C   C6        1.0  0.22247  0.3693  0.20684000000000002  1.0000
  C   C7        1.0  0.12207  0.47181  0.24591  1.0000
  C   C8        1.0  0.13595  0.58362  0.19836  1.0000
  C   C9        1.0  0.04096  0.56111  0.12314  1.0000
  C   C10       1.0  0.14451  0.45783  0.08472  1.0000
  C   C11       1.0  0.91281  0.31573  0.14374  1.0000
  C   C12       1.0  0.8120099999999999  0.41896000000000005  0.18266  1.0000
  C   C13       1.0  0.9078099999999999  0.44009  0.25755  1.0000
  C   C14       1.0  0.82699  0.53032  0.13483  1.0000
  C   C15       1.0  0.69111  0.29425  0.52524  1.0000
  C   C16       1.0  0.9236  0.27722  0.60659  1.0000
  C   C17       1.0  0.69309  0.08506  0.87825  1.0000
  C   C18       1.0  0.9073999999999998  0.97446  0.8220900000000002  1.0000
  C   C19       1.0  0.62327  0.15152  0.63138  1.0000
  C   C20       1.0  0.71612  0.12982  0.70589  1.0000
  C   C21       1.0  0.6144799999999999  0.02846  0.746  1.0000
  C   C22       1.0  0.62646  0.91539  0.69945  1.0000
  C   C23       1.0  0.53235  0.93608  0.62392  1.0000
  C   C24       1.0  0.63762  0.03835  0.58469  1.0000
  C   C25       1.0  0.4071999999999999  0.18187  0.64217  1.0000
  C   C26       1.0  0.30522  0.07961  0.6820800000000001  1.0000
  C   C27       1.0  0.40052  0.060340000000000005  0.75726  1.0000
  C   C28       1.0  0.31874  0.9672  0.6351400000000001  1.0000
  C   C29       1.0  0.57294  0.7823100000000001  0.89055  1.0000
  C   C30       1.0  0.80203  0.79597  0.9736100000000001  1.0000
  C   C31       1.0  0.58595  0.47190000000000004  0.67764  1.0000
  C   C32       1.0  0.8029  0.58147  0.62137  1.0000
  C   C33       1.0  0.8708  0.65418  0.86748  1.0000
  C   C34       1.0  0.77751  0.63069  0.7931600000000001  1.0000
  C   C35       1.0  0.87792  0.52818  0.75409  1.0000
  C   C36       1.0  0.86404  0.41637  0.8016500000000001  1.0000
  C   C37       1.0  0.95903  0.43888  0.87686  1.0000
  C   C38       1.0  0.85548  0.54217  0.91528  1.0000
  C   C39       1.0  0.08718  0.6842600000000001  0.8562700000000002  1.0000
  C   C40       1.0  0.18797999999999995  0.58103  0.81735  1.0000
  C   C41       1.0  0.09218  0.5599  0.74246  1.0000
  C   C42       1.0  0.17299999999999993  0.46967000000000003  0.86518  1.0000
  C   C43       1.0  0.30886999999999987  0.70574  0.4747700000000001  1.0000
  C   C44       1.0  0.07639  0.72277  0.39341  1.0000
  C   C45       1.0  0.3069  0.91493  0.12176000000000001  1.0000
  C   C46       1.0  0.09257999999999997  0.02553  0.17792  1.0000
  C   C47       1.0  0.37671999999999994  0.84847  0.36862  1.0000
  C   C48       1.0  0.28387  0.8701700000000001  0.29412  1.0000
  C   C49       1.0  0.3855  0.97153  0.25401000000000007  1.0000
  C   C50       1.0  0.3735299999999999  0.0846  0.30055  1.0000
  C   C51       1.0  0.46763999999999994  0.06391  0.37608  1.0000
  C   C52       1.0  0.36237  0.96164  0.4153200000000001  1.0000
  C   C53       1.0  0.59279  0.81813  0.35783  1.0000
  C   C54       1.0  0.69477  0.92039  0.31792  1.0000
  C   C55       1.0  0.59947  0.93965  0.24274000000000004  1.0000
  C   C56       1.0  0.68125  0.03279  0.36487  1.0000
  N   N1        1.0  0.4949  0.15492  0.05268  1.0000
  N   N2        1.0  0.35204  0.14832  0.00017  1.0000
  N   N3        1.0  0.23303  0.24595000000000003  0.09723  1.0000
  N   N4        1.0  0.49323  0.48569  0.38445  1.0000
  N   N5        1.0  0.3564799999999999  0.41659000000000007  0.41912  1.0000
  N   N6        1.0  0.21949  0.49261  0.31745  1.0000
  N   N7        1.0  0.84538  0.35004  0.49870000000000003  1.0000
  N   N8        1.0  0.99071  0.34102  0.55011  1.0000
  N   N9        1.0  0.72842  0.25035  0.59537  1.0000
  N   N10       1.0  0.85294  0.08729  0.91846  1.0000
  N   N11       1.0  0.98819  0.01744  0.88385  1.0000
  N   N12       1.0  0.7132  0.00983  0.81752  1.0000
  N   N13       1.0  0.50509  0.8450700000000001  0.9473300000000001  1.0000
  N   N14       1.0  0.64795  0.85167  0.99983  1.0000
  N   N15       1.0  0.76696  0.75404  0.90277  1.0000
  N   N16       1.0  0.50675  0.5143  0.61555  1.0000
  N   N17       1.0  0.64351  0.58341  0.58089  1.0000
  N   N18       1.0  0.7804900000000001  0.50738  0.68255  1.0000
  N   N19       1.0  0.15461  0.6499500000000001  0.50131  1.0000
  N   N20       1.0  0.00928  0.65897  0.44989  1.0000
  N   N21       1.0  0.27157  0.7496400000000001  0.4046400000000001  1.0000
  N   N22       1.0  0.14705  0.9127000000000001  0.08154  1.0000
  N   N23       1.0  0.011800000000000001  0.9825500000000001  0.11615  1.0000
  N   N24       1.0  0.28679  0.99016  0.18248  1.0000
