data_image0
_chemical_formula_structural       Ag6P6H76C56N18O16
_chemical_formula_sum              "Ag6 P6 H76 C56 N18 O16"
_cell_length_a       10.93558
_cell_length_b       11.493169999999997
_cell_length_c       18.83194
_cell_angle_alpha    89.82011
_cell_angle_beta     101.76783
_cell_angle_gamma    89.88734999999998

_symmetry_space_group_name_H-M    'P 1'
_symmetry_Int_Tables_number       1

loop_
  _symmetry_equiv_pos_as_xyz
  'x,y,z'

loop_
  _atom_site_type_symbol
  _atom_site_label
  _atom_site_symmetry_multiplicity
  _atom_site_fract_x
  _atom_site_fract_y
  _atom_site_fract_z
  _atom_site_occupancy
  Ag  Ag1       1.0  0.37158  0.58357  0.02943  1.0000
  Ag  Ag2       1.0  0.34145999999999993  0.22875  0.47939  1.0000
  Ag  Ag3       1.0  0.9145799999999998  0.5971100000000001  0.90953  1.0000
  Ag  Ag4       1.0  0.6345199999999999  0.08355  0.96909  1.0000
  Ag  Ag5       1.0  0.65455  0.7277700000000001  0.51992  1.0000
  Ag  Ag6       1.0  0.08923999999999997  0.09627000000000001  0.08910999999999997  1.0000
  P   P1        1.0  0.14277999999999996  0.90023  0.11785  1.0000
  P   P2        1.0  0.59885  0.8810500000000001  0.43953999999999993  1.0000
  P   P3        1.0  0.49720999999999993  0.6824  0.96148  1.0000
  P   P4        1.0  0.8632299999999998  0.40064000000000005  0.8804399999999999  1.0000
  P   P5        1.0  0.39964  0.38151000000000007  0.55988  1.0000
  P   P6        1.0  0.5081400000000001  0.18155000000000002  0.03683  1.0000
  H   H1        1.0  0.9399299999999998  0.7958900000000002  0.75862  1.0000
  H   H2        1.0  0.13392999999999997  0.40788  0.75304  1.0000
  H   H3        1.0  0.33577999999999997  0.84549  0.07933  1.0000
  H   H4        1.0  0.20257  0.80594  0.01285  1.0000
  H   H5        1.0  0.17817  0.90577  0.25226  1.0000
  H   H6        1.0  0.31964  0.90861  0.22037  1.0000
  H   H7        1.0  0.96397  0.79373  0.05323  1.0000
  H   H8        1.0  0.94144  0.83335  0.14103  1.0000
  H   H9        1.0  0.14648  0.5381600000000001  0.11033  1.0000
  H   H10       1.0  0.08409  0.63156  0.03605  1.0000
  H   H11       1.0  0.40551999999999994  0.7313800000000001  0.18533999999999998  1.0000
  H   H12       1.0  0.33125999999999994  0.596  0.19643999999999998  1.0000
  H   H13       1.0  0.13186  0.59414  0.23343  1.0000
  H   H14       1.0  0.060149999999999954  0.72919  0.24759999999999996  1.0000
  H   H15       1.0  0.6413499999999999  0.17524000000000006  0.47992999999999997  1.0000
  H   H16       1.0  0.5714299999999999  0.23716  0.39383  1.0000
  H   H17       1.0  0.7983199999999998  0.94035  0.40583  1.0000
  H   H18       1.0  0.77477  0.01068  0.48551  1.0000
  H   H19       1.0  0.67615  0.00768  0.28797  1.0000
  H   H20       1.0  0.59094  0.14133  0.28456  1.0000
  H   H21       1.0  0.32865999999999995  0.01457  0.35051  1.0000
  H   H22       1.0  0.38958999999999994  0.1454  0.31941  1.0000
  H   H23       1.0  0.5348  0.013130000000000001  0.52708  1.0000
  H   H24       1.0  0.40263999999999983  0.94846  0.46974999999999995  1.0000
  H   H25       1.0  0.4287599999999999  0.83138  0.33776  1.0000
  H   H26       1.0  0.5763799999999999  0.82844  0.31151  1.0000
  H   H27       1.0  0.7743099999999999  0.83636  0.9923999999999998  1.0000
  H   H28       1.0  0.7863  0.87219  0.90217  1.0000
  H   H29       1.0  0.6575899999999999  0.54293  0.9455699999999999  1.0000
  H   H30       1.0  0.71557  0.63899  0.01785  1.0000
  H   H31       1.0  0.7072299999999999  0.7419000000000001  0.80272  1.0000
  H   H32       1.0  0.6405299999999999  0.6060700000000001  0.82069  1.0000
  H   H33       1.0  0.59395  0.9193400000000003  0.8135099999999997  1.0000
  H   H34       1.0  0.4466399999999999  0.9130500000000003  0.84114  1.0000
  H   H35       1.0  0.57938  0.85711  0.03121  1.0000
  H   H36       1.0  0.43906999999999996  0.88511  0.96558  1.0000
  H   H37       1.0  0.34912999999999994  0.7282300000000002  0.85058  1.0000
  H   H38       1.0  0.4311599999999998  0.5970200000000001  0.8413099999999999  1.0000
  H   H39       1.0  0.058899999999999994  0.293  0.24352  1.0000
  H   H40       1.0  0.8673399999999997  0.9038000000000003  0.24529999999999996  1.0000
  H   H41       1.0  0.67141  0.34622  0.9203599999999998  1.0000
  H   H42       1.0  0.8056699999999999  0.30475  0.9858  1.0000
  H   H43       1.0  0.8263399999999999  0.40788  0.7460699999999998  1.0000
  H   H44       1.0  0.6852899999999998  0.4112800000000001  0.77839  1.0000
  H   H45       1.0  0.04276000000000001  0.29207  0.94398  1.0000
  H   H46       1.0  0.06364  0.33278  0.85596  1.0000
  H   H47       1.0  0.8585099999999999  0.03839  0.88723  1.0000
  H   H48       1.0  0.9222499999999999  0.13014  0.9615699999999999  1.0000
  H   H49       1.0  0.5995199999999999  0.23430000000000004  0.81396  1.0000
  H   H50       1.0  0.6728399999999998  0.09856000000000001  0.8021599999999998  1.0000
  H   H51       1.0  0.8712899999999999  0.09588  0.7641599999999998  1.0000
  H   H52       1.0  0.94315  0.23062  0.7496799999999998  1.0000
  H   H53       1.0  0.35939  0.6782  0.52168  1.0000
  H   H54       1.0  0.43261999999999995  0.73673  0.60797  1.0000
  H   H55       1.0  0.2019  0.44360000000000005  0.59527  1.0000
  H   H56       1.0  0.22553999999999996  0.5152  0.5159  1.0000
  H   H57       1.0  0.3284599999999999  0.50613  0.71355  1.0000
  H   H58       1.0  0.41486999999999985  0.63879  0.7166099999999997  1.0000
  H   H59       1.0  0.6730099999999999  0.51071  0.64745  1.0000
  H   H60       1.0  0.6139399999999999  0.64137  0.67985  1.0000
  H   H61       1.0  0.4619099999999999  0.51546  0.47224999999999995  1.0000
  H   H62       1.0  0.59495  0.44815  0.5279  1.0000
  H   H63       1.0  0.57169  0.3281  0.66041  1.0000
  H   H64       1.0  0.42519  0.32624000000000003  0.68794  1.0000
  H   H65       1.0  0.23124999999999996  0.33687000000000006  0.00497  1.0000
  H   H66       1.0  0.21792999999999998  0.3718  0.09496  1.0000
  H   H67       1.0  0.3469999999999999  0.0425  0.05190999999999999  1.0000
  H   H68       1.0  0.29010999999999987  0.13998  0.9797199999999999  1.0000
  H   H69       1.0  0.2961  0.23994000000000001  0.19454999999999997  1.0000
  H   H70       1.0  0.36327999999999994  0.10414000000000002  0.17688  1.0000
  H   H71       1.0  0.40966  0.41722  0.18432  1.0000
  H   H72       1.0  0.5574899999999999  0.4107  0.15735  1.0000
  H   H73       1.0  0.42703999999999986  0.35757  0.96697  1.0000
  H   H74       1.0  0.56666  0.3840700000000001  0.03324  1.0000
  H   H75       1.0  0.6552499999999998  0.2261  0.14820999999999995  1.0000
  H   H76       1.0  0.5734  0.09486  0.15728999999999999  1.0000
  C   C1        1.0  0.12708999999999993  0.56127  0.8162399999999999  1.0000
  C   C2        1.0  0.07189999999999998  0.6726  0.8188099999999999  1.0000
  C   C3        1.0  0.9828299999999999  0.71033  0.75859  1.0000
  C   C4        1.0  0.9427599999999998  0.63972  0.69807  1.0000
  C   C5        1.0  0.99656  0.52814  0.69546  1.0000
  C   C6        1.0  0.09082999999999988  0.49324000000000007  0.7541099999999997  1.0000
  C   C7        1.0  0.21451999999999993  0.5100200000000001  0.88146  1.0000
  C   C8        1.0  0.10315999999999992  0.75495  0.88266  1.0000
  C   C9        1.0  0.95018  0.43772  0.63811  1.0000
  C   C10       1.0  0.83947  0.68445  0.63917  1.0000
  C   C11       1.0  0.24182999999999993  0.80756  0.07134999999999998  1.0000
  C   C12       1.0  0.22669999999999998  0.8682500000000002  0.21209  1.0000
  C   C13       1.0  0.008879999999999996  0.79848  0.11086999999999998  1.0000
  C   C14       1.0  0.12980999999999998  0.62928  0.09355999999999999  1.0000
  C   C15       1.0  0.31511  0.6871  0.1792  1.0000
  C   C16       1.0  0.11708  0.68449  0.21441  1.0000
  C   C17       1.0  0.59422  0.15562  0.42408  1.0000
  C   C18       1.0  0.7275999999999999  0.9845000000000003  0.4307199999999999  1.0000
  C   C19       1.0  0.6135  0.05915  0.31424  1.0000
  C   C20       1.0  0.41429  0.06367  0.34893  1.0000
  C   C21       1.0  0.49384999999999996  0.9892800000000002  0.47087  1.0000
  C   C22       1.0  0.5181799999999999  0.87737  0.34222  1.0000
  C   C23       1.0  0.72859  0.8281800000000001  0.93523  1.0000
  C   C24       1.0  0.65938  0.6343000000000001  0.96252  1.0000
  C   C25       1.0  0.6507499999999999  0.69783  0.83673  1.0000
  C   C26       1.0  0.5396  0.8733500000000002  0.84784  1.0000
  C   C27       1.0  0.5294299999999998  0.8397100000000002  0.9752899999999999  1.0000
  C   C28       1.0  0.4417099999999998  0.6866900000000001  0.8613199999999998  1.0000
  C   C29       1.0  0.8758299999999998  0.05872000000000001  0.18269  1.0000
  C   C30       1.0  0.93088  0.17014000000000004  0.1811  1.0000
  C   C31       1.0  0.01686  0.20715  0.2426  1.0000
  C   C32       1.0  0.055539999999999964  0.13528  0.30303  1.0000
  C   C33       1.0  0.0034699999999999766  0.022850000000000002  0.30404999999999993  1.0000
  C   C34       1.0  0.91032  0.9892200000000002  0.24470999999999998  1.0000
  C   C35       1.0  0.79063  0.00942  0.11641  1.0000
  C   C36       1.0  0.9017999999999999  0.25404  0.11740999999999999  1.0000
  C   C37       1.0  0.05272999999999998  0.93014  0.3597699999999999  1.0000
  C   C38       1.0  0.15600999999999993  0.17958000000000002  0.3634199999999999  1.0000
  C   C39       1.0  0.7651099999999998  0.30761  0.9274699999999999  1.0000
  C   C40       1.0  0.77807  0.37024  0.78637  1.0000
  C   C41       1.0  0.99674  0.29793  0.8865299999999999  1.0000
  C   C42       1.0  0.87573  0.12913  0.90418  1.0000
  C   C43       1.0  0.68965  0.18931  0.8195  1.0000
  C   C44       1.0  0.8866999999999999  0.1859  0.78319  1.0000
  C   C45       1.0  0.40768  0.6564300000000001  0.5771  1.0000
  C   C46       1.0  0.2731199999999999  0.48694  0.5703399999999998  1.0000
  C   C47       1.0  0.39062  0.55737  0.68678  1.0000
  C   C48       1.0  0.58801  0.5604100000000001  0.65016  1.0000
  C   C49       1.0  0.50436  0.4896900000000001  0.52804  1.0000
  C   C50       1.0  0.48284  0.3751100000000001  0.65681  1.0000
  C   C51       1.0  0.27625  0.32788  0.062259999999999996  1.0000
  C   C52       1.0  0.3457  0.13414  0.03518999999999999  1.0000
  C   C53       1.0  0.35316  0.19609  0.16084  1.0000
  C   C54       1.0  0.46448999999999996  0.37142  0.15025  1.0000
  C   C55       1.0  0.47619  0.33923000000000003  0.02304  1.0000
  C   C56       1.0  0.5628199999999999  0.18469  0.13713  1.0000
  N   N1        1.0  0.25441  0.6866400000000001  0.10087  1.0000
  N   N2        1.0  0.23983  0.7423200000000002  0.22496999999999998  1.0000
  N   N3        1.0  0.05028  0.68222  0.13793  1.0000
  N   N4        1.0  0.47419  0.09491  0.42502  1.0000
  N   N5        1.0  0.6766099999999999  0.08646999999999999  0.38878  1.0000
  N   N6        1.0  0.49533999999999995  0.9952500000000001  0.31143999999999994  1.0000
  N   N7        1.0  0.60547  0.88781  0.92467  1.0000
  N   N8        1.0  0.7195  0.70471  0.91341  1.0000
  N   N9        1.0  0.5272199999999999  0.75179  0.82485  1.0000
  N   N10       1.0  0.7514999999999998  0.18731  0.89763  1.0000
  N   N11       1.0  0.76423  0.24458000000000002  0.77328  1.0000
  N   N12       1.0  0.9546199999999999  0.18229000000000004  0.85945  1.0000
  N   N13       1.0  0.52635  0.59394  0.57456  1.0000
  N   N14       1.0  0.32611  0.58703  0.61273  1.0000
  N   N15       1.0  0.5077  0.4920400000000001  0.68811  1.0000
  N   N16       1.0  0.39944  0.38703  0.07331  1.0000
  N   N17       1.0  0.28517  0.20421  0.08407  1.0000
  N   N18       1.0  0.47671  0.24958  0.17328  1.0000
  O   O1        1.0  0.18739  0.5368  0.94278  1.0000
  O   O2        1.0  0.30273999999999995  0.4452200000000001  0.8716299999999999  1.0000
  O   O3        1.0  0.018049999999999945  0.7648300000000002  0.9215299999999998  1.0000
  O   O4        1.0  0.2019199999999999  0.81237  0.8928799999999999  1.0000
  O   O5        1.0  0.02473  0.4001  0.60025  1.0000
  O   O6        1.0  0.8422599999999999  0.39518  0.63618  1.0000
  O   O7        1.0  0.7697799999999999  0.76575  0.6538  1.0000
  O   O8        1.0  0.82555  0.63434  0.5774799999999999  1.0000
  O   O9        1.0  0.81887  0.03946  0.05585  1.0000
  O   O10       1.0  0.703  0.9428500000000001  0.12472  1.0000
  O   O11       1.0  0.9874099999999998  0.26306  0.07871999999999998  1.0000
  O   O12       1.0  0.80459  0.3141300000000001  0.1073  1.0000
  O   O13       1.0  0.9796299999999999  0.8864900000000002  0.39652  1.0000
  O   O14       1.0  0.1626  0.8921900000000003  0.36079  1.0000
  O   O15       1.0  0.22376999999999997  0.26350000000000007  0.35004  1.0000
  O   O16       1.0  0.17040999999999998  0.12746  0.42467  1.0000
