data_image0
_chemical_formula_structural       Mn12H32C96O80
_chemical_formula_sum              "Mn12 H32 C96 O80"
_cell_length_a       9.38062
_cell_length_b       11.57029
_cell_length_c       32.18082
_cell_angle_alpha    89.83266999999998
_cell_angle_beta     90.05879
_cell_angle_gamma    90.00046

_space_group_name_H-M_alt    "P 1"
_space_group_IT_number       1

loop_
  _space_group_symop_operation_xyz
  'x, y, z'

loop_
  _atom_site_type_symbol
  _atom_site_label
  _atom_site_symmetry_multiplicity
  _atom_site_fract_x
  _atom_site_fract_y
  _atom_site_fract_z
  _atom_site_occupancy
  Mn  Mn1       1.0  0.20146  0.08852  0.63746  1.0000
  Mn  Mn2       1.0  0.23094000000000003  0.7175400000000001  0.59652  1.0000
  Mn  Mn3       1.0  0.21837000000000004  0.40758000000000005  0.6244199999999998  1.0000
  Mn  Mn4       1.0  0.29818000000000006  0.91019  0.13775  1.0000
  Mn  Mn5       1.0  0.2685600000000001  0.28135  0.09677  1.0000
  Mn  Mn6       1.0  0.2824200000000001  0.59202  0.12433999999999999  1.0000
  Mn  Mn7       1.0  0.7971600000000002  0.59025  0.86182  1.0000
  Mn  Mn8       1.0  0.76935  0.2189  0.9034399999999998  1.0000
  Mn  Mn9       1.0  0.7815600000000003  0.9081200000000001  0.87517  1.0000
  Mn  Mn10      1.0  0.7017400000000001  0.4093  0.36216  1.0000
  Mn  Mn11      1.0  0.73063  0.78096  0.40326  1.0000
  Mn  Mn12      1.0  0.71838  0.09091  0.37546  1.0000
  H   H1        1.0  0.50975  0.39646  0.56547  1.0000
  H   H2        1.0  0.80085  0.42008000000000006  0.55669  1.0000
  H   H3        1.0  0.9280100000000001  0.44783  0.68311  1.0000
  H   H4        1.0  0.63816  0.41770000000000007  0.69418  1.0000
  H   H5        1.0  0.5865900000000002  0.21081000000000003  0.48105  1.0000
  H   H6        1.0  0.36483000000000004  0.19683  0.53667  1.0000
  H   H7        1.0  0.9885600000000002  0.56133  0.76758  1.0000
  H   H8        1.0  0.16489  0.60192  0.70087  1.0000
  H   H9        1.0  0.9903200000000001  0.60489  0.06515  1.0000
  H   H10       1.0  0.69918  0.58024  0.05668  1.0000
  H   H11       1.0  0.57057  0.54885  0.18301  1.0000
  H   H12       1.0  0.8596800000000001  0.58273  0.19376  1.0000
  H   H13       1.0  0.9174600000000003  0.7877  0.98102  1.0000
  H   H14       1.0  0.13943  0.80359  0.03681  1.0000
  H   H15       1.0  0.50864  0.43496000000000007  0.2675799999999999  1.0000
  H   H16       1.0  0.33215  0.39406  0.2009  1.0000
  H   H17       1.0  0.48882  0.89698  0.93516  1.0000
  H   H18       1.0  0.19751000000000002  0.9206800000000002  0.94312  1.0000
  H   H19       1.0  0.0703  0.95169  0.81746  1.0000
  H   H20       1.0  0.35917000000000004  0.9185800000000001  0.8062  1.0000
  H   H21       1.0  0.41369  0.71043  0.01856  1.0000
  H   H22       1.0  0.6368100000000002  0.69707  0.96315  1.0000
  H   H23       1.0  0.00651  0.06339  0.73227  1.0000
  H   H24       1.0  0.8308300000000002  0.10505999999999999  0.79894  1.0000
  H   H25       1.0  0.011330000000000003  0.10234  0.43527  1.0000
  H   H26       1.0  0.30264000000000013  0.07819  0.4431999999999999  1.0000
  H   H27       1.0  0.42898  0.04948000000000001  0.31709  1.0000
  H   H28       1.0  0.13968  0.08215  0.30596  1.0000
  H   H29       1.0  0.08543  0.28938  0.51926  1.0000
  H   H30       1.0  0.86288  0.3028  0.46344  1.0000
  H   H31       1.0  0.48976000000000003  0.93711  0.23213  1.0000
  H   H32       1.0  0.66548  0.89639  0.29902  1.0000
  C   C1        1.0  0.44133  0.19601  0.62076  1.0000
  C   C2        1.0  0.5732100000000002  0.25276  0.60676  1.0000
  C   C3        1.0  0.5944  0.34589  0.5796999999999998  1.0000
  C   C4        1.0  0.74263  0.3572100000000001  0.57498  1.0000
  C   C5        1.0  0.80441  0.2719  0.59957  1.0000
  C   C6        1.0  0.9562900000000001  0.25074  0.60951  1.0000
  C   C7        1.0  0.9824700000000001  0.63213  0.61873  1.0000
  C   C8        1.0  0.8559000000000001  0.57421  0.63634  1.0000
  C   C9        1.0  0.8401400000000002  0.4904700000000001  0.6673  1.0000
  C   C10       1.0  0.69273  0.47558  0.67299  1.0000
  C   C11       1.0  0.62555  0.54932  0.6449  1.0000
  C   C12       1.0  0.47228  0.56392  0.63476  1.0000
  C   C13       1.0  0.6914  0.9739300000000001  0.45877  1.0000
  C   C14       1.0  0.5858600000000002  0.02146  0.48782  1.0000
  C   C15       1.0  0.54198  0.13398  0.49529  1.0000
  C   C16       1.0  0.42771  0.12692  0.5237999999999999  1.0000
  C   C17       1.0  0.4089600000000001  0.01023  0.53266  1.0000
  C   C18       1.0  0.31029  0.94991  0.56111  1.0000
  C   C19       1.0  0.8552300000000002  0.77504  0.7974099999999997  1.0000
  C   C20       1.0  0.95171  0.7484  0.76266  1.0000
  C   C21       1.0  0.00991  0.64254  0.75185  1.0000
  C   C22       1.0  0.10057  0.66371  0.71776  1.0000
  C   C23       1.0  0.09125000000000003  0.7811  0.70906  1.0000
  C   C24       1.0  0.15503  0.85215  0.67619  1.0000
  C   C25       1.0  0.05862  0.8052000000000001  0.12  1.0000
  C   C26       1.0  0.9267100000000001  0.74786  0.10642  1.0000
  C   C27       1.0  0.9056000000000002  0.65492  0.07944  1.0000
  C   C28       1.0  0.75736  0.64306  0.0749  1.0000
  C   C29       1.0  0.6955  0.72748  0.09964  1.0000
  C   C30       1.0  0.54369  0.74717  0.10987  1.0000
  C   C31       1.0  0.51801  0.36335  0.11937  1.0000
  C   C32       1.0  0.6441700000000001  0.42317  0.13649  1.0000
  C   C33       1.0  0.65893  0.5072  0.16722  1.0000
  C   C34       1.0  0.80614  0.524  0.17275  1.0000
  C   C35       1.0  0.8743200000000001  0.45117  0.14476  1.0000
  C   C36       1.0  0.02778  0.43717000000000006  0.13479  1.0000
  C   C37       1.0  0.8083  0.02306  0.95872  1.0000
  C   C38       1.0  0.9145100000000003  0.9764800000000002  0.9879099999999998  1.0000
  C   C39       1.0  0.9607300000000001  0.86457  0.99541  1.0000
  C   C40       1.0  0.07509000000000002  0.87276  0.02388  1.0000
  C   C41       1.0  0.09163  0.98959  0.0327  1.0000
  C   C42       1.0  0.18992  0.05021  0.06115  1.0000
  C   C43       1.0  0.6423600000000002  0.22246  0.29798  1.0000
  C   C44       1.0  0.54687  0.24833  0.26286  1.0000
  C   C45       1.0  0.48772000000000004  0.35378  0.25192  1.0000
  C   C46       1.0  0.39713000000000004  0.33236  0.21779  1.0000
  C   C47       1.0  0.4076200000000001  0.21522  0.20915  1.0000
  C   C48       1.0  0.34516  0.14403  0.17625  1.0000
  C   C49       1.0  0.5583500000000002  0.69704  0.87996  1.0000
  C   C50       1.0  0.42647  0.7541600000000002  0.89364  1.0000
  C   C51       1.0  0.4045400000000001  0.84674  0.92069  1.0000
  C   C52       1.0  0.2561400000000001  0.85813  0.92496  1.0000
  C   C53       1.0  0.19501  0.77358  0.90006  1.0000
  C   C54       1.0  0.043570000000000005  0.75318  0.88939  1.0000
  C   C55       1.0  0.01796  0.13498  0.88129  1.0000
  C   C56       1.0  0.14455  0.07746000000000003  0.86377  1.0000
  C   C57       1.0  0.15895000000000004  0.9936300000000001  0.8330299999999998  1.0000
  C   C58       1.0  0.30604  0.97738  0.82725  1.0000
  C   C59       1.0  0.37445  0.05062  0.8551  1.0000
  C   C60       1.0  0.52793  0.06398  0.86518  1.0000
  C   C61       1.0  0.30778  0.47555  0.04082  1.0000
  C   C62       1.0  0.41221000000000013  0.52193  0.01106  1.0000
  C   C63       1.0  0.45756  0.63423  0.00392  1.0000
  C   C64       1.0  0.5723  0.6274  0.97562  1.0000
  C   C65       1.0  0.5897400000000002  0.5109  0.96649  1.0000
  C   C66       1.0  0.6897700000000002  0.45135000000000003  0.93843  1.0000
  C   C67       1.0  0.14186  0.27528  0.70192  1.0000
  C   C68       1.0  0.046370000000000015  0.24982000000000001  0.7370499999999998  1.0000
  C   C69       1.0  0.9863800000000001  0.14465  0.74794  1.0000
  C   C70       1.0  0.8962800000000001  0.16642  0.78209  1.0000
  C   C71       1.0  0.9077800000000001  0.28351  0.79078  1.0000
  C   C72       1.0  0.8452100000000001  0.35469  0.82368  1.0000
  C   C73       1.0  0.9413700000000002  0.30282  0.38006  1.0000
  C   C74       1.0  0.07348  0.24567000000000005  0.39372  1.0000
  C   C75       1.0  0.09554  0.15273  0.42079  1.0000
  C   C76       1.0  0.24398  0.14106  0.42501  1.0000
  C   C77       1.0  0.3049500000000001  0.22593  0.40008  1.0000
  C   C78       1.0  0.4563  0.24667  0.38948  1.0000
  C   C79       1.0  0.48207000000000005  0.865  0.38124  1.0000
  C   C80       1.0  0.35568  0.92313  0.36361  1.0000
  C   C81       1.0  0.3407300000000001  0.00721  0.3327699999999999  1.0000
  C   C82       1.0  0.19349  0.02338000000000001  0.32705  1.0000
  C   C83       1.0  0.12564  0.9497900000000001  0.35499  1.0000
  C   C84       1.0  0.97233  0.93643  0.3651799999999999  1.0000
  C   C85       1.0  0.19216000000000005  0.52412  0.54079  1.0000
  C   C86       1.0  0.08735000000000002  0.47778  0.51119  1.0000
  C   C87       1.0  0.04173000000000002  0.36553  0.50434  1.0000
  C   C88       1.0  0.92727  0.37244  0.47587  1.0000
  C   C89       1.0  0.9102  0.4889  0.46641  1.0000
  C   C90       1.0  0.8110300000000003  0.54823  0.4379  1.0000
  C   C91       1.0  0.35762  0.72286  0.20195  1.0000
  C   C92       1.0  0.45256  0.7502  0.237  1.0000
  C   C93       1.0  0.51077  0.85591  0.24793  1.0000
  C   C94       1.0  0.60118  0.83452  0.28212  1.0000
  C   C95       1.0  0.59153  0.71707  0.29079  1.0000
  C   C96       1.0  0.65466  0.64557  0.3237  1.0000
  O   O1        1.0  0.3231  0.24627  0.61024  1.0000
  O   O2        1.0  0.44397000000000003  0.10047000000000002  0.63942  1.0000
  O   O3        1.0  0.7012700000000001  0.20643  0.61867  1.0000
  O   O4        1.0  0.03508000000000001  0.3374  0.60091  1.0000
  O   O5        1.0  0.9926000000000001  0.15458  0.62503  1.0000
  O   O6        1.0  0.10716000000000002  0.58367  0.62492  1.0000
  O   O7        1.0  0.97175  0.72639  0.6  1.0000
  O   O8        1.0  0.72454  0.61148  0.62291  1.0000
  O   O9        1.0  0.3924  0.4851900000000001  0.65024  1.0000
  O   O10       1.0  0.43612000000000006  0.6483000000000001  0.61221  1.0000
  O   O11       1.0  0.69992  0.8631700000000001  0.45625  1.0000
  O   O12       1.0  0.7647600000000002  0.045500000000000006  0.43741  1.0000
  O   O13       1.0  0.50495  0.9454200000000001  0.51065  1.0000
  O   O14       1.0  0.22139  0.0115  0.58111  1.0000
  O   O15       1.0  0.32229000000000013  0.8400600000000001  0.56265  1.0000
  O   O16       1.0  0.8588200000000001  0.87479  0.81442  1.0000
  O   O17       1.0  0.77796  0.6904  0.80857  1.0000
  O   O18       1.0  0.0011199999999999995  0.83434  0.7369899999999998  1.0000
  O   O19       1.0  0.23581  0.79997  0.65004  1.0000
  O   O20       1.0  0.12856  0.9594600000000001  0.67662  1.0000
  O   O21       1.0  0.17683  0.7538900000000001  0.11024999999999997  1.0000
  O   O22       1.0  0.05619  0.9019600000000001  0.13763  1.0000
  O   O23       1.0  0.79866  0.7932900000000002  0.11858  1.0000
  O   O24       1.0  0.4645500000000001  0.66201  0.09988  1.0000
  O   O25       1.0  0.50729  0.84068  0.1271  1.0000
  O   O26       1.0  0.3929  0.4119  0.12491999999999999  1.0000
  O   O27       1.0  0.52872  0.26799  0.1017  1.0000
  O   O28       1.0  0.77601  0.38795  0.12292  1.0000
  O   O29       1.0  0.10783  0.51542  0.15037  1.0000
  O   O30       1.0  0.0642  0.35321  0.11225  1.0000
  O   O31       1.0  0.7994400000000003  0.1337  0.95611  1.0000
  O   O32       1.0  0.73539  0.9512300000000001  0.93745  1.0000
  O   O33       1.0  0.99412  0.05323  0.0107  1.0000
  O   O34       1.0  0.2792700000000001  0.98864  0.08109  1.0000
  O   O35       1.0  0.17713000000000007  0.16012  0.06272  1.0000
  O   O36       1.0  0.6415  0.12167  0.3145  1.0000
  O   O37       1.0  0.71564  0.30841  0.31004  1.0000
  O   O38       1.0  0.49812  0.16214  0.23725  1.0000
  O   O39       1.0  0.2640400000000001  0.19485000000000002  0.14968  1.0000
  O   O40       1.0  0.37216000000000005  0.03672  0.17697  1.0000
  O   O41       1.0  0.67675  0.7482000000000001  0.88962  1.0000
  O   O42       1.0  0.55568  0.60032  0.8623  1.0000
  O   O43       1.0  0.2987200000000001  0.70853  0.88127  1.0000
  O   O44       1.0  0.96499  0.8397700000000001  0.89823  1.0000
  O   O45       1.0  0.00729  0.65841  0.873  1.0000
  O   O46       1.0  0.89337  0.08621  0.87504  1.0000
  O   O47       1.0  0.0284  0.22893999999999998  0.89998  1.0000
  O   O48       1.0  0.27641  0.11395999999999998  0.877  1.0000
  O   O49       1.0  0.60713  0.98457  0.8498299999999998  1.0000
  O   O50       1.0  0.5647100000000003  0.14816  0.88757  1.0000
  O   O51       1.0  0.30005  0.36488  0.04394  1.0000
  O   O52       1.0  0.23566000000000004  0.54763  0.06216  1.0000
  O   O53       1.0  0.49249  0.44594  0.98801  1.0000
  O   O54       1.0  0.77898  0.5137700000000002  0.9188  1.0000
  O   O55       1.0  0.6783200000000003  0.3414400000000001  0.93707  1.0000
  O   O56       1.0  0.14157  0.37609  0.68546  1.0000
  O   O57       1.0  0.21449  0.18897000000000003  0.68987  1.0000
  O   O58       1.0  0.9985700000000001  0.33621  0.76273  1.0000
  O   O59       1.0  0.7643500000000002  0.30298  0.85005  1.0000
  O   O60       1.0  0.87195  0.46203  0.8231  1.0000
  O   O61       1.0  0.8232600000000002  0.25143  0.38984  1.0000
  O   O62       1.0  0.94368  0.39974000000000004  0.3623  1.0000
  O   O63       1.0  0.20114  0.29139  0.38129  1.0000
  O   O64       1.0  0.5351800000000002  0.16004  0.39822  1.0000
  O   O65       1.0  0.4923100000000001  0.34197  0.37324  1.0000
  O   O66       1.0  0.6069400000000001  0.91351  0.37505  1.0000
  O   O67       1.0  0.47158  0.77085  0.39999  1.0000
  O   O68       1.0  0.22399  0.88642  0.37693  1.0000
  O   O69       1.0  0.89305  0.01618  0.34989  1.0000
  O   O70       1.0  0.93557  0.85193  0.38757  1.0000
  O   O71       1.0  0.20016000000000006  0.63466  0.54371  1.0000
  O   O72       1.0  0.2645  0.45194  0.56225  1.0000
  O   O73       1.0  0.007470000000000001  0.55385  0.4878599999999999  1.0000
  O   O74       1.0  0.72052  0.48597  0.4187899999999999  1.0000
  O   O75       1.0  0.8249300000000002  0.65784  0.43548  1.0000
  O   O76       1.0  0.36428  0.62282  0.18525  1.0000
  O   O77       1.0  0.27871  0.80601  0.1902  1.0000
  O   O78       1.0  0.5016  0.66394  0.26271  1.0000
  O   O79       1.0  0.73527  0.69715  0.35008  1.0000
  O   O80       1.0  0.6284  0.53822  0.32305  1.0000
