data_image0
_chemical_formula_structural       Cu6H64C80N16Cl2
_chemical_formula_sum              "Cu6 H64 C80 N16 Cl2"
_cell_length_a       12.53382
_cell_length_b       12.612650000000002
_cell_length_c       22.701719999999998
_cell_angle_alpha    74.98277
_cell_angle_beta     74.19551
_cell_angle_gamma    88.83090999999999

_space_group_name_H-M_alt    "P 1"
_space_group_IT_number       1

loop_
  _space_group_symop_operation_xyz
  'x, y, z'

loop_
  _atom_site_type_symbol
  _atom_site_label
  _atom_site_symmetry_multiplicity
  _atom_site_fract_x
  _atom_site_fract_y
  _atom_site_fract_z
  _atom_site_occupancy
  Cu  Cu1       1.0  0.6874199999999998  0.04793999999999995  0.8369400000000001  1.0000
  Cu  Cu2       1.0  0.9521999999999999  0.3125500000000001  0.66376  1.0000
  Cu  Cu3       1.0  0.014269999999999998  0.98509  0.24956  1.0000
  Cu  Cu4       1.0  0.31257999999999997  0.95206  0.16306  1.0000
  Cu  Cu5       1.0  0.04779  0.68744  0.33624  1.0000
  Cu  Cu6       1.0  0.9857300000000001  0.014909999999999975  0.75044  1.0000
  H   H1        1.0  0.7866400000000001  0.6876200000000001  0.65097  1.0000
  H   H2        1.0  0.8570799999999998  0.52652  0.61148  1.0000
  H   H3        1.0  0.8858000000000001  0.35367999999999994  0.78827  1.0000
  H   H4        1.0  0.82722  0.51233  0.83362  1.0000
  H   H5        1.0  0.8873799999999995  0.6945300000000001  0.82568  1.0000
  H   H6        1.0  0.83209  0.8610800000000001  0.8630600000000002  1.0000
  H   H7        1.0  0.58657  0.91686  0.76918  1.0000
  H   H8        1.0  0.6387  0.75913  0.72282  1.0000
  H   H9        1.0  0.90053  0.8365600000000001  0.09215  1.0000
  H   H10       1.0  0.69297  0.8731399999999999  0.95277  1.0000
  H   H11       1.0  0.9061399999999996  0.19162999999999997  0.05493  1.0000
  H   H12       1.0  0.7815100000000001  0.20622  0.88687  1.0000
  H   H13       1.0  0.87297  0.19977  0.9703200000000001  1.0000
  H   H14       1.0  0.9742999999999998  0.83286  0.18221  1.0000
  H   H15       1.0  0.9738899999999999  0.17223000000000002  0.14827  1.0000
  H   H16       1.0  0.7881999999999998  0.84941  0.03593  1.0000
  H   H17       1.0  0.30919  0.21514  0.84946  1.0000
  H   H18       1.0  0.4685699999999999  0.14317  0.8900000000000001  1.0000
  H   H19       1.0  0.64818  0.11017999999999996  0.71357  1.0000
  H   H20       1.0  0.4913600000000001  0.16963  0.66716  1.0000
  H   H21       1.0  0.3074  0.11245999999999996  0.67399  1.0000
  H   H22       1.0  0.14073999999999998  0.16748000000000002  0.63683  1.0000
  H   H23       1.0  0.08272999999999998  0.41213  0.73198  1.0000
  H   H24       1.0  0.24081999999999992  0.36079999999999995  0.7778200000000001  1.0000
  H   H25       1.0  0.16537999999999997  0.09597999999999997  0.4069  1.0000
  H   H26       1.0  0.12834999999999996  0.3037999999999999  0.54767  1.0000
  H   H27       1.0  0.8067399999999999  0.09540999999999998  0.44568  1.0000
  H   H28       1.0  0.79198  0.21642999999999996  0.61523  1.0000
  H   H29       1.0  0.79869  0.12561000000000003  0.53111  1.0000
  H   H30       1.0  0.16821  0.022240000000000003  0.31654  1.0000
  H   H31       1.0  0.8259499999999999  0.02742000000000003  0.35199  1.0000
  H   H32       1.0  0.15268999999999994  0.20976  0.46342  1.0000
  H   H33       1.0  0.21336000000000005  0.31238  0.34903  1.0000
  H   H34       1.0  0.14291  0.47348  0.38852000000000003  1.0000
  H   H35       1.0  0.11420000000000001  0.64632  0.21173  1.0000
  H   H36       1.0  0.17278000000000002  0.48766000000000004  0.16638  1.0000
  H   H37       1.0  0.11261  0.30547000000000013  0.17432  1.0000
  H   H38       1.0  0.1679  0.13892  0.13694  1.0000
  H   H39       1.0  0.41342  0.08313000000000001  0.23082  1.0000
  H   H40       1.0  0.36129  0.24087000000000003  0.27718  1.0000
  H   H41       1.0  0.09946000000000003  0.16344000000000006  0.90785  1.0000
  H   H42       1.0  0.30702  0.12685  0.04723  1.0000
  H   H43       1.0  0.09385999999999996  0.80837  0.94507  1.0000
  H   H44       1.0  0.21847999999999995  0.79378  0.11313  1.0000
  H   H45       1.0  0.12702  0.80023  0.02968  1.0000
  H   H46       1.0  0.02570000000000001  0.16713999999999998  0.81779  1.0000
  H   H47       1.0  0.026100000000000022  0.82777  0.8517299999999999  1.0000
  H   H48       1.0  0.21178999999999992  0.15058999999999992  0.9640700000000001  1.0000
  H   H49       1.0  0.6908  0.78485  0.15054  1.0000
  H   H50       1.0  0.53143  0.85683  0.11  1.0000
  H   H51       1.0  0.3518199999999999  0.88981  0.28643  1.0000
  H   H52       1.0  0.5086399999999999  0.8303700000000002  0.33284  1.0000
  H   H53       1.0  0.6925999999999998  0.88754  0.32601  1.0000
  H   H54       1.0  0.8592499999999997  0.8325200000000001  0.36317000000000005  1.0000
  H   H55       1.0  0.9172599999999999  0.58787  0.26802  1.0000
  H   H56       1.0  0.7591699999999999  0.6392  0.22218  1.0000
  H   H57       1.0  0.8346099999999997  0.9040199999999999  0.5931  1.0000
  H   H58       1.0  0.8716399999999996  0.69619  0.45233000000000007  1.0000
  H   H59       1.0  0.19324999999999995  0.9045900000000001  0.55432  1.0000
  H   H60       1.0  0.20801999999999995  0.78357  0.38476999999999995  1.0000
  H   H61       1.0  0.20129999999999992  0.8743900000000001  0.46889  1.0000
  H   H62       1.0  0.8317799999999999  0.9777500000000001  0.68346  1.0000
  H   H63       1.0  0.17404999999999998  0.97258  0.64801  1.0000
  H   H64       1.0  0.8472999999999996  0.79024  0.53658  1.0000
  C   C1        1.0  0.8076699999999999  0.61537  0.68313  1.0000
  C   C2        1.0  0.8471599999999999  0.5256900000000001  0.66074  1.0000
  C   C3        1.0  0.8667399999999998  0.4308899999999999  0.75908  1.0000
  C   C4        1.0  0.8329899999999998  0.51916  0.78405  1.0000
  C   C5        1.0  0.80182  0.61569  0.7461  1.0000
  C   C6        1.0  0.76798  0.7108800000000001  0.77059  1.0000
  C   C7        1.0  0.8198499999999999  0.74121  0.81219  1.0000
  C   C8        1.0  0.78943  0.8342200000000002  0.8331699999999999  1.0000
  C   C9        1.0  0.6542499999999999  0.86665  0.7796100000000001  1.0000
  C   C10       1.0  0.68353  0.77817  0.75399  1.0000
  C   C11       1.0  0.91296  0.91362  0.10303  1.0000
  C   C12       1.0  0.7361199999999998  0.94303  0.95758  1.0000
  C   C13       1.0  0.7894199999999999  0.9309100000000001  0.00452  1.0000
  C   C14       1.0  0.8408999999999999  0.0229  0.013230000000000002  1.0000
  C   C15       1.0  0.89157  0.015160000000000005  0.06412  1.0000
  C   C16       1.0  0.9192499999999998  0.10975  0.08137  1.0000
  C   C17       1.0  0.7833099999999997  0.12913  0.92179  1.0000
  C   C18       1.0  0.8352599999999996  0.12415000000000004  0.96874  1.0000
  C   C19       1.0  0.9574699999999999  0.09979999999999999  0.13388  1.0000
  C   C20       1.0  0.9547  0.9102  0.15371  1.0000
  C   C21       1.0  0.38264  0.19265999999999994  0.8176400000000001  1.0000
  C   C22       1.0  0.4713999999999999  0.15250000000000002  0.84056  1.0000
  C   C23       1.0  0.5697799999999997  0.1305399999999999  0.7423900000000001  1.0000
  C   C24       1.0  0.48244999999999977  0.16476000000000002  0.71687  1.0000
  C   C25       1.0  0.3845199999999998  0.19745000000000001  0.75451  1.0000
  C   C26       1.0  0.28985000000000005  0.23152000000000003  0.72972  1.0000
  C   C27       1.0  0.26022  0.17973000000000003  0.68783  1.0000
  C   C28       1.0  0.16717000000000004  0.21004000000000003  0.66692  1.0000
  C   C29       1.0  0.13349999999999995  0.34485  0.72114  1.0000
  C   C30       1.0  0.22203  0.31590000000000007  0.74656  1.0000
  C   C31       1.0  0.08745  0.08449999999999998  0.39640000000000003  1.0000
  C   C32       1.0  0.057929999999999975  0.261  0.54297  1.0000
  C   C33       1.0  0.07035999999999999  0.20821  0.49552  1.0000
  C   C34       1.0  0.9773899999999999  0.15718  0.48718999999999996  1.0000
  C   C35       1.0  0.9850399999999998  0.10694999999999996  0.43592000000000003  1.0000
  C   C36       1.0  0.8892899999999999  0.08083  0.41896  1.0000
  C   C37       1.0  0.8698899999999998  0.21442999999999998  0.57979  1.0000
  C   C38       1.0  0.8750599999999998  0.16286999999999996  0.53244  1.0000
  C   C39       1.0  0.89905  0.042600000000000006  0.36627  1.0000
  C   C40       1.0  0.09042000000000001  0.04279999999999999  0.34556  1.0000
  C   C41       1.0  0.19232999999999992  0.38463  0.31687  1.0000
  C   C42       1.0  0.1528399999999999  0.4743000000000001  0.33926  1.0000
  C   C43       1.0  0.13324999999999995  0.56911  0.24092  1.0000
  C   C44       1.0  0.16699999999999995  0.48084  0.21595  1.0000
  C   C45       1.0  0.19817000000000004  0.3843  0.2539  1.0000
  C   C46       1.0  0.23201  0.28911999999999993  0.22941000000000003  1.0000
  C   C47       1.0  0.18013999999999997  0.2587900000000001  0.18781  1.0000
  C   C48       1.0  0.21056  0.16578  0.16683  1.0000
  C   C49       1.0  0.34574  0.13335  0.22039000000000003  1.0000
  C   C50       1.0  0.3164699999999999  0.22182000000000002  0.24601  1.0000
  C   C51       1.0  0.08704  0.08637000000000003  0.8969699999999999  1.0000
  C   C52       1.0  0.26387999999999995  0.05696  0.04242  1.0000
  C   C53       1.0  0.21057999999999996  0.06908999999999992  0.9954800000000001  1.0000
  C   C54       1.0  0.15908999999999998  0.9770899999999999  0.98677  1.0000
  C   C55       1.0  0.10841999999999997  0.9848399999999998  0.9358800000000002  1.0000
  C   C56       1.0  0.08074  0.8902500000000001  0.91863  1.0000
  C   C57       1.0  0.21667999999999998  0.87087  0.07821  1.0000
  C   C58       1.0  0.16472999999999993  0.87585  0.03126  1.0000
  C   C59       1.0  0.04252999999999998  0.9002000000000002  0.86612  1.0000
  C   C60       1.0  0.04528999999999995  0.0897999999999999  0.8462900000000001  1.0000
  C   C61       1.0  0.61736  0.8073400000000001  0.18236  1.0000
  C   C62       1.0  0.52859  0.84749  0.15944  1.0000
  C   C63       1.0  0.43022  0.86945  0.25761  1.0000
  C   C64       1.0  0.51754  0.8352300000000001  0.28313  1.0000
  C   C65       1.0  0.61548  0.80255  0.24549  1.0000
  C   C66       1.0  0.7101399999999998  0.76848  0.27028  1.0000
  C   C67       1.0  0.73978  0.8202699999999999  0.31217  1.0000
  C   C68       1.0  0.83282  0.78996  0.33308  1.0000
  C   C69       1.0  0.8664899999999999  0.6551500000000001  0.27886  1.0000
  C   C70       1.0  0.7779599999999998  0.6840900000000001  0.25344  1.0000
  C   C71       1.0  0.9125499999999999  0.9155  0.6036  1.0000
  C   C72       1.0  0.9420599999999998  0.739  0.45703000000000005  1.0000
  C   C73       1.0  0.9296399999999996  0.7917800000000002  0.50448  1.0000
  C   C74       1.0  0.022600000000000012  0.8428100000000001  0.51281  1.0000
  C   C75       1.0  0.014959999999999998  0.89305  0.56408  1.0000
  C   C76       1.0  0.11071  0.91916  0.58104  1.0000
  C   C77       1.0  0.1301  0.7855700000000001  0.42021  1.0000
  C   C78       1.0  0.12493999999999995  0.83712  0.46756  1.0000
  C   C79       1.0  0.10094  0.9574  0.63373  1.0000
  C   C80       1.0  0.9095699999999997  0.9572  0.65444  1.0000
  N   N1        1.0  0.87734  0.4329200000000001  0.69742  1.0000
  N   N2        1.0  0.7063499999999998  0.89722  0.81832  1.0000
  N   N3        1.0  0.9748599999999997  0.0013100000000000093  0.17181  1.0000
  N   N4        1.0  0.7325400000000001  0.040719999999999965  0.91474  1.0000
  N   N5        1.0  0.56548  0.12085999999999998  0.80419  1.0000
  N   N6        1.0  0.10356000000000003  0.29289  0.68212  1.0000
  N   N7        1.0  0.9983299999999998  0.0238  0.32784  1.0000
  N   N8        1.0  0.95919  0.26475  0.58652  1.0000
  N   N9        1.0  0.12266  0.5670799999999999  0.30258  1.0000
  N   N10       1.0  0.2936399999999999  0.10278  0.18168  1.0000
  N   N11       1.0  0.025140000000000075  0.9986900000000001  0.82819  1.0000
  N   N12       1.0  0.2674499999999999  0.95928  0.08526  1.0000
  N   N13       1.0  0.43451000000000006  0.8791300000000001  0.19581  1.0000
  N   N14       1.0  0.8964299999999998  0.70711  0.31788  1.0000
  N   N15       1.0  0.0016600000000000278  0.9762  0.67216  1.0000
  N   N16       1.0  0.04079999999999998  0.7352499999999998  0.41348000000000007  1.0000
  Cl  Cl1       1.0  0.15344999999999995  0.8459000000000001  0.24869  1.0000
  Cl  Cl2       1.0  0.8465399999999998  0.15410000000000004  0.75131  1.0000
