data_image0
_chemical_formula_structural       Cu4H60C90O20
_chemical_formula_sum              "Cu4 H60 C90 O20"
_cell_length_a       15.13488
_cell_length_b       16.85739
_cell_length_c       19.06636
_cell_angle_alpha    102.77443
_cell_angle_beta     91.97292
_cell_angle_gamma    92.69781

_space_group_name_H-M_alt    "P 1"
_space_group_IT_number       1

loop_
  _space_group_symop_operation_xyz
  'x, y, z'

loop_
  _atom_site_type_symbol
  _atom_site_label
  _atom_site_symmetry_multiplicity
  _atom_site_fract_x
  _atom_site_fract_y
  _atom_site_fract_z
  _atom_site_occupancy
  Cu  Cu1       1.0  0.47737  0.46182  0.04498  1.0000
  Cu  Cu2       1.0  0.52183  0.53783  0.9553  1.0000
  Cu  Cu3       1.0  0.4632  0.49826999999999994  0.55558  1.0000
  Cu  Cu4       1.0  0.53704  0.50181  0.44403  1.0000
  H   H1        1.0  0.99858  0.47157  0.22378000000000003  1.0000
  H   H2        1.0  0.6515300000000004  0.10419000000000002  0.89493  1.0000
  H   H3        1.0  0.9046100000000002  0.82533  0.24693  1.0000
  H   H4        1.0  0.14046000000000006  0.83103  0.23377  1.0000
  H   H5        1.0  0.13475000000000004  0.82663  0.38602  1.0000
  H   H6        1.0  0.6869500000000002  0.5286  0.20852  1.0000
  H   H7        1.0  0.44302  0.96758  0.32475  1.0000
  H   H8        1.0  0.09533000000000003  0.17459  0.75295  1.0000
  H   H9        1.0  0.89076  0.73056  0.13308  1.0000
  H   H10       1.0  0.55697  0.032800000000000024  0.67543  1.0000
  H   H11       1.0  0.18383  0.40682  0.71081  1.0000
  H   H12       1.0  0.9075200000000002  0.31686  0.52029  1.0000
  H   H13       1.0  0.31283  0.47148  0.79154  1.0000
  H   H14       1.0  0.012759999999999994  0.9666400000000002  0.70835  1.0000
  H   H15       1.0  0.73729  0.87662  0.55381  1.0000
  H   H16       1.0  0.85947  0.16899  0.76622  1.0000
  H   H17       1.0  0.56546  0.72074  0.7008  1.0000
  H   H18       1.0  0.07767  0.9507800000000001  0.44317  1.0000
  H   H19       1.0  0.5834600000000002  0.22739999999999994  0.96492  1.0000
  H   H20       1.0  0.038010000000000016  0.04833999999999997  0.57523  1.0000
  H   H21       1.0  0.66164  0.36215  0.80879  1.0000
  H   H22       1.0  0.3343800000000001  0.25954  0.50289  1.0000
  H   H23       1.0  0.7303700000000002  0.23950999999999997  0.73863  1.0000
  H   H24       1.0  0.51837  0.005989999999999999  0.25855  1.0000
  H   H25       1.0  0.03212  0.03663000000000001  0.41847  1.0000
  H   H26       1.0  0.02566  0.058780000000000006  0.77472  1.0000
  H   H27       1.0  0.97427  0.94124  0.22526  1.0000
  H   H28       1.0  0.77885  0.38122  0.4734400000000001  1.0000
  H   H29       1.0  0.04023  0.56391  0.1885  1.0000
  H   H30       1.0  0.63922  0.85564  0.75858  1.0000
  H   H31       1.0  0.09229  0.6832000000000001  0.47979  1.0000
  H   H32       1.0  0.81637  0.59297  0.28896  1.0000
  H   H33       1.0  0.9678300000000001  0.9633399999999999  0.5815  1.0000
  H   H34       1.0  0.2382300000000001  0.33495  0.94722  1.0000
  H   H35       1.0  0.43446  0.27933  0.29942  1.0000
  H   H36       1.0  0.36073  0.14444  0.24156  1.0000
  H   H37       1.0  0.4815800000000001  0.99403  0.74145  1.0000
  H   H38       1.0  0.26258000000000004  0.12336000000000003  0.44627000000000006  1.0000
  H   H39       1.0  0.96191  0.9516400000000002  0.42477  1.0000
  H   H40       1.0  0.14452  0.0725  0.36715  1.0000
  H   H41       1.0  0.79864  0.36247  0.72979  1.0000
  H   H42       1.0  0.33207  0.57763  0.3185  1.0000
  H   H43       1.0  0.8554400000000002  0.92749  0.6329  1.0000
  H   H44       1.0  0.6677300000000003  0.42232  0.68166  1.0000
  H   H45       1.0  0.09681000000000001  0.04087000000000002  0.70067  1.0000
  H   H46       1.0  0.2694900000000001  0.76064  0.26144  1.0000
  H   H47       1.0  0.98717  0.033360000000000015  0.29164  1.0000
  H   H48       1.0  0.9222600000000002  0.04918000000000003  0.55678  1.0000
  H   H49       1.0  0.8651000000000002  0.17336  0.61399  1.0000
  H   H50       1.0  0.22088000000000005  0.61886  0.52671  1.0000
  H   H51       1.0  0.41643  0.77274  0.03514  1.0000
  H   H52       1.0  0.9599  0.43595  0.81148  1.0000
  H   H53       1.0  0.76143  0.66515  0.05276  1.0000
  H   H54       1.0  0.6653800000000002  0.74046  0.49726000000000004  1.0000
  H   H55       1.0  0.33835  0.63802  0.19129  1.0000
  H   H56       1.0  0.20126  0.63752  0.27032  1.0000
  H   H57       1.0  0.1091  0.26918  0.8666700000000002  1.0000
  H   H58       1.0  0.34831  0.89598  0.10516  1.0000
  H   H59       1.0  0.9031100000000002  0.9591299999999999  0.2993  1.0000
  H   H60       1.0  0.001330000000000004  0.5284  0.77617  1.0000
  C   C1        1.0  0.048770000000000015  0.20588  0.7255  1.0000
  C   C2        1.0  0.6994800000000001  0.23728  0.78887  1.0000
  C   C3        1.0  0.02059000000000001  0.83806  0.31831  1.0000
  C   C4        1.0  0.9311800000000002  0.29009  0.65689  1.0000
  C   C5        1.0  0.7395000000000003  0.95607  0.69274  1.0000
  C   C6        1.0  0.3001700000000001  0.98343  0.257  1.0000
  C   C7        1.0  0.06269  0.29096  0.73541  1.0000
  C   C8        1.0  0.26724  0.42762  0.80756  1.0000
  C   C9        1.0  0.7152  0.40453  0.57446  1.0000
  C   C10       1.0  0.7936100000000001  0.3659  0.67349  1.0000
  C   C11       1.0  0.14458000000000001  0.6598100000000001  0.44448000000000004  1.0000
  C   C12       1.0  0.54527  0.01238999999999999  0.72446  1.0000
  C   C13       1.0  0.34561  0.8396  0.12395000000000002  1.0000
  C   C14       1.0  0.8241500000000002  0.9749900000000001  0.67038  1.0000
  C   C15       1.0  0.38106000000000007  0.6978100000000002  0.10877000000000002  1.0000
  C   C16       1.0  0.8458400000000003  0.6867  0.14981  1.0000
  C   C17       1.0  0.86864  0.05117000000000001  0.69562  1.0000
  C   C18       1.0  0.70088  0.84212  0.58648  1.0000
  C   C19       1.0  0.92169  0.20527000000000004  0.64681  1.0000
  C   C20       1.0  0.03770000000000002  0.9303500000000001  0.32811  1.0000
  C   C21       1.0  0.2825000000000001  0.4076  0.87446  1.0000
  C   C22       1.0  0.5766700000000002  0.37568  0.93224  1.0000
  C   C23       1.0  0.69979  0.016629999999999985  0.74306  1.0000
  C   C24       1.0  0.13126  0.94883  0.3044  1.0000
  C   C25       1.0  0.19537  0.39116  0.76255  1.0000
  C   C26       1.0  0.6189  0.30239  0.89133  1.0000
  C   C27       1.0  0.45472  0.9872899999999999  0.27539  1.0000
  C   C28       1.0  0.17579  0.024990000000000002  0.32966  1.0000
  C   C29       1.0  0.63943  0.55457  0.07763  1.0000
  C   C30       1.0  0.9712100000000002  0.9676700000000001  0.28309  1.0000
  C   C31       1.0  0.3551  0.16913  0.29875  1.0000
  C   C32       1.0  0.9511900000000002  0.79406  0.27438  1.0000
  C   C33       1.0  0.00433  0.53633  0.22608000000000003  1.0000
  C   C34       1.0  0.21624  0.62408  0.4708800000000001  1.0000
  C   C35       1.0  0.99528  0.46363  0.77371  1.0000
  C   C36       1.0  0.8552100000000002  0.3402  0.55561  1.0000
  C   C37       1.0  0.33916000000000013  0.69448  0.1726  1.0000
  C   C38       1.0  0.9793000000000002  0.16191  0.68165  1.0000
  C   C39       1.0  0.56769  0.6412  0.56125  1.0000
  C   C40       1.0  0.2845800000000001  0.59543  0.4257  1.0000
  C   C41       1.0  0.66081  0.3057  0.82751  1.0000
  C   C42       1.0  0.3963800000000001  0.24459999999999998  0.33088  1.0000
  C   C43       1.0  0.616  0.22929  0.9153  1.0000
  C   C44       1.0  0.3057600000000001  0.12426  0.3396  1.0000
  C   C45       1.0  0.97261  0.03007000000000002  0.59144  1.0000
  C   C46       1.0  0.13936000000000007  0.66592  0.37227  1.0000
  C   C47       1.0  0.26045  0.04395000000000002  0.30735  1.0000
  C   C48       1.0  0.93728  0.70896  0.26442  1.0000
  C   C49       1.0  0.2788400000000001  0.60014  0.3531  1.0000
  C   C50       1.0  0.72093  0.3998  0.64703  1.0000
  C   C51       1.0  0.78353  0.37592  0.52925  1.0000
  C   C52       1.0  0.43225  0.35885  0.43879  1.0000
  C   C53       1.0  0.17338  0.89064  0.25485  1.0000
  C   C54       1.0  0.3004400000000001  0.76286  0.21122  1.0000
  C   C55       1.0  0.07815999999999998  0.7947099999999999  0.3532  1.0000
  C   C56       1.0  0.15393000000000007  0.31322  0.85005  1.0000
  C   C57       1.0  0.3395600000000001  0.23365  0.44578  1.0000
  C   C58       1.0  0.028710000000000003  0.03234  0.71689  1.0000
  C   C59       1.0  0.63603  0.43891  0.54582  1.0000
  C   C60       1.0  0.8604300000000003  0.33406  0.62781  1.0000
  C   C61       1.0  0.8621800000000002  0.6667100000000001  0.21675  1.0000
  C   C62       1.0  0.13772  0.33322  0.78309  1.0000
  C   C63       1.0  0.69416  0.8757599999999999  0.66052  1.0000
  C   C64       1.0  0.4231600000000001  0.62441  0.0679  1.0000
  C   C65       1.0  0.38884000000000013  0.27762  0.40461  1.0000
  C   C66       1.0  0.65429  0.16056  0.87612  1.0000
  C   C67       1.0  0.2990000000000001  0.15789  0.41364  1.0000
  C   C68       1.0  0.66026  0.7663899999999999  0.55437  1.0000
  C   C69       1.0  0.36391  0.56113  0.45417  1.0000
  C   C70       1.0  0.3839200000000001  0.77088  0.08477  1.0000
  C   C71       1.0  0.20622  0.63407  0.32662  1.0000
  C   C72       1.0  0.30279000000000006  0.83639  0.18762  1.0000
  C   C73       1.0  0.6109900000000003  0.72243  0.59557  1.0000
  C   C74       1.0  0.06866  0.7099  0.34312  1.0000
  C   C75       1.0  0.77422  0.65009  0.1046  1.0000
  C   C76       1.0  0.36009  0.44549  0.9223100000000001  1.0000
  C   C77       1.0  0.6448400000000002  0.8309099999999999  0.7014  1.0000
  C   C78       1.0  0.71695  0.59262  0.12556  1.0000
  C   C79       1.0  0.6971499999999999  0.16374  0.81245  1.0000
  C   C80       1.0  0.8265400000000003  0.10939  0.74515  1.0000
  C   C81       1.0  0.8045400000000001  0.6087600000000001  0.2373  1.0000
  C   C82       1.0  0.9622000000000002  0.06963  0.67187  1.0000
  C   C83       1.0  0.7324400000000002  0.57249  0.19241  1.0000
  C   C84       1.0  0.22534  0.3499999999999999  0.8953899999999999  1.0000
  C   C85       1.0  0.25842000000000004  0.9056699999999999  0.23161999999999996  1.0000
  C   C86       1.0  0.60353  0.7554299999999999  0.6693  1.0000
  C   C87       1.0  0.002749999999999997  0.33222  0.7004  1.0000
  C   C88       1.0  0.02731  0.9699  0.40854  1.0000
  C   C89       1.0  0.7415  0.09442  0.76842  1.0000
  C   C90       1.0  0.9971800000000002  0.66773  0.2995  1.0000
  O   O1        1.0  0.012340000000000002  0.41631  0.70727  1.0000
  O   O2        1.0  0.6388700000000002  0.45231  0.48241  1.0000
  O   O3        1.0  0.5709500000000002  0.452  0.58733  1.0000
  O   O4        1.0  0.38368  0.99966  0.23263  1.0000
  O   O5        1.0  0.98769  0.58367  0.29267  1.0000
  O   O6        1.0  0.4604800000000001  0.63118  0.01004  1.0000
  O   O7        1.0  0.36122  0.5476  0.51765  1.0000
  O   O8        1.0  0.61626  0.00035999999999998853  0.76739  1.0000
  O   O9        1.0  0.58043  0.43965000000000004  0.9061400000000001  1.0000
  O   O10       1.0  0.41114  0.4959799999999999  0.89923  1.0000
  O   O11       1.0  0.58487  0.6113200000000001  0.49566  1.0000
  O   O12       1.0  0.58851  0.5041  0.10075  1.0000
  O   O13       1.0  0.5394600000000003  0.36879000000000006  0.9900400000000001  1.0000
  O   O14       1.0  0.37016  0.42423  0.9825  1.0000
  O   O15       1.0  0.6294600000000002  0.57568  0.0173  1.0000
  O   O16       1.0  0.5172  0.60745  0.6002  1.0000
  O   O17       1.0  0.4152400000000001  0.3888  0.50451  1.0000
  O   O18       1.0  0.4288699999999999  0.5482  0.41266  1.0000
  O   O19       1.0  0.4826000000000001  0.39246  0.39977  1.0000
  O   O20       1.0  0.4192  0.5605  0.09396  1.0000
