data_image0
_chemical_formula_structural       Ce2Cu8H48C72I8N6O12
_chemical_formula_sum              "Ce2 Cu8 H48 C72 I8 N6 O12"
_cell_length_a       9.85421
_cell_length_b       16.500199999999996
_cell_length_c       21.326830000000005
_cell_angle_alpha    104.34667000000002
_cell_angle_beta     100.84695
_cell_angle_gamma    96.41004

_space_group_name_H-M_alt    "P 1"
_space_group_IT_number       1

loop_
  _space_group_symop_operation_xyz
  'x, y, z'

loop_
  _atom_site_type_symbol
  _atom_site_label
  _atom_site_symmetry_multiplicity
  _atom_site_fract_x
  _atom_site_fract_y
  _atom_site_fract_z
  _atom_site_occupancy
  Ce  Ce1       1.0  0.28312  0.5163500000000002  0.9970599999999998  1.0000
  Ce  Ce2       1.0  0.71414  0.4825000000000001  0.00249  1.0000
  Cu  Cu1       1.0  0.0028299999999999853  0.94041  0.53886  1.0000
  Cu  Cu2       1.0  0.7539  0.82887  0.5031999999999999  1.0000
  Cu  Cu3       1.0  0.81953  0.9453000000000003  0.61648  1.0000
  Cu  Cu4       1.0  0.9646600000000001  0.81948  0.59634  1.0000
  Cu  Cu5       1.0  0.99717  0.059610000000000024  0.46116  1.0000
  Cu  Cu6       1.0  0.24612999999999993  0.17117  0.49683999999999995  1.0000
  Cu  Cu7       1.0  0.18045000000000003  0.05474  0.38355  1.0000
  Cu  Cu8       1.0  0.035320000000000004  0.18051  0.40366  1.0000
  H   H1        1.0  0.4514500000000001  0.84313  0.47857  1.0000
  H   H2        1.0  0.22764999999999996  0.7644  0.40221999999999997  1.0000
  H   H3        1.0  0.46642  0.59298  0.3  1.0000
  H   H4        1.0  0.68256  0.67807  0.38133  1.0000
  H   H5        1.0  0.28556  0.61084  0.20923999999999998  1.0000
  H   H6        1.0  0.85309  0.49645  0.17286999999999997  1.0000
  H   H7        1.0  0.86103  0.54503  0.29474  1.0000
  H   H8        1.0  0.08063000000000003  0.6280100000000002  0.37298  1.0000
  H   H9        1.0  0.87512  0.11870999999999998  0.72135  1.0000
  H   H10       1.0  0.72811  0.22075999999999998  0.76832  1.0000
  H   H11       1.0  0.36321999999999993  0.036730000000000006  0.65536  1.0000
  H   H12       1.0  0.5229499999999999  0.9414299999999999  0.61371  1.0000
  H   H13       1.0  0.5791599999999999  0.25999000000000005  0.8356899999999999  1.0000
  H   H14       1.0  0.17344000000000004  0.33486  0.80763  1.0000
  H   H15       1.0  0.10396999999999998  0.23291000000000006  0.69313  1.0000
  H   H16       1.0  0.2712399999999999  0.14451000000000003  0.6516999999999998  1.0000
  H   H17       1.0  0.26270000000000004  0.81056  0.6076  1.0000
  H   H18       1.0  0.44675999999999993  0.7464900000000001  0.66581  1.0000
  H   H19       1.0  0.12240999999999998  0.61726  0.7340999999999999  1.0000
  H   H20       1.0  0.9508400000000002  0.6860200000000002  0.67295  1.0000
  H   H21       1.0  0.29956  0.63928  0.8231499999999999  1.0000
  H   H22       1.0  0.69293  0.54974  0.8468199999999999  1.0000
  H   H23       1.0  0.72161  0.5718699999999999  0.7373299999999999  1.0000
  H   H24       1.0  0.5386099999999999  0.62901  0.6718999999999999  1.0000
  H   H25       1.0  0.54857  0.15687  0.52142  1.0000
  H   H26       1.0  0.77234  0.23561000000000007  0.59778  1.0000
  H   H27       1.0  0.5336  0.40701999999999994  0.69999  1.0000
  H   H28       1.0  0.31749  0.32195  0.61868  1.0000
  H   H29       1.0  0.71463  0.3892200000000001  0.7908  1.0000
  H   H30       1.0  0.14715000000000006  0.50355  0.82707  1.0000
  H   H31       1.0  0.13903000000000001  0.4549500000000002  0.70516  1.0000
  H   H32       1.0  0.91933  0.372  0.62698  1.0000
  H   H33       1.0  0.12494000000000004  0.88134  0.27866  1.0000
  H   H34       1.0  0.27186  0.77924  0.23168  1.0000
  H   H35       1.0  0.6368  0.9633100000000002  0.34467  1.0000
  H   H36       1.0  0.47699  0.058539999999999974  0.38625999999999994  1.0000
  H   H37       1.0  0.42096  0.7400300000000002  0.16431  1.0000
  H   H38       1.0  0.8268600000000002  0.66507  0.19235  1.0000
  H   H39       1.0  0.89596  0.7670400000000003  0.30682  1.0000
  H   H40       1.0  0.72883  0.8554300000000002  0.34825  1.0000
  H   H41       1.0  0.73727  0.18947000000000006  0.39238999999999996  1.0000
  H   H42       1.0  0.55325  0.25353  0.33415999999999996  1.0000
  H   H43       1.0  0.8776199999999998  0.38276  0.26588  1.0000
  H   H44       1.0  0.049220000000000014  0.314  0.32705  1.0000
  H   H45       1.0  0.70044  0.3607300000000001  0.17679  1.0000
  H   H46       1.0  0.30702  0.45020000000000004  0.15319  1.0000
  H   H47       1.0  0.2783999999999999  0.42813  0.26271  1.0000
  H   H48       1.0  0.46148999999999996  0.37099000000000015  0.3281  1.0000
  C   C1        1.0  0.45057000000000014  0.7868800000000002  0.43872999999999995  1.0000
  C   C2        1.0  0.32579  0.74281  0.39579  1.0000
  C   C3        1.0  0.32837  0.67179  0.3439499999999999  1.0000
  C   C4        1.0  0.45912  0.6485100000000001  0.33855  1.0000
  C   C5        1.0  0.57953  0.6950700000000002  0.3841899999999999  1.0000
  C   C6        1.0  0.19826  0.62394  0.29667  1.0000
  C   C7        1.0  0.19321000000000002  0.5963400000000001  0.22834  1.0000
  C   C8        1.0  0.06775000000000005  0.5519500000000003  0.18396  1.0000
  C   C9        1.0  0.94861  0.53198  0.20813999999999996  1.0000
  C   C10       1.0  0.9536800000000001  0.55935  0.27608  1.0000
  C   C11       1.0  0.07699000000000004  0.6059100000000002  0.32004  1.0000
  C   C12       1.0  0.0582  0.52843  0.11064  1.0000
  C   C13       1.0  0.76096  0.10270999999999995  0.7082299999999999  1.0000
  C   C14       1.0  0.67812  0.15927  0.73463  1.0000
  C   C15       1.0  0.53133  0.13788999999999998  0.71571  1.0000
  C   C16       1.0  0.47575999999999996  0.057849999999999964  0.6711199999999999  1.0000
  C   C17       1.0  0.56486  0.004269999999999999  0.64766  1.0000
  C   C18       1.0  0.43658  0.19471999999999998  0.74073  1.0000
  C   C19       1.0  0.47589999999999993  0.25342  0.80366  1.0000
  C   C20       1.0  0.38003999999999993  0.30294  0.82732  1.0000
  C   C21       1.0  0.24534  0.29551  0.78779  1.0000
  C   C22       1.0  0.20697  0.23849000000000006  0.72479  1.0000
  C   C23       1.0  0.30133  0.18801999999999994  0.70145  1.0000
  C   C24       1.0  0.4200399999999999  0.36325  0.8948299999999999  1.0000
  C   C25       1.0  0.23548999999999995  0.7669  0.63577  1.0000
  C   C26       1.0  0.33791  0.73074  0.66823  1.0000
  C   C27       1.0  0.30035  0.6761900000000002  0.70543  1.0000
  C   C28       1.0  0.15814000000000003  0.66022  0.70704  1.0000
  C   C29       1.0  0.06169000000000003  0.6982  0.67273  1.0000
  C   C30       1.0  0.40644  0.6390100000000002  0.74269  1.0000
  C   C31       1.0  0.39048  0.62444  0.80305  1.0000
  C   C32       1.0  0.4935  0.59258  0.84012  1.0000
  C   C33       1.0  0.61404  0.5741899999999999  0.8169199999999999  1.0000
  C   C34       1.0  0.6297  0.58736  0.75627  1.0000
  C   C35       1.0  0.52689  0.61953  0.71947  1.0000
  C   C36       1.0  0.47285  0.5777  0.90409  1.0000
  C   C37       1.0  0.54914  0.21316  0.56125  1.0000
  C   C38       1.0  0.67428  0.25722  0.60424  1.0000
  C   C39       1.0  0.67165  0.32821  0.65605  1.0000
  C   C40       1.0  0.54093  0.35151999999999994  0.6614799999999998  1.0000
  C   C41       1.0  0.42055000000000003  0.30493  0.6158  1.0000
  C   C42       1.0  0.80185  0.3761000000000001  0.70336  1.0000
  C   C43       1.0  0.80695  0.40369  0.77162  1.0000
  C   C44       1.0  0.93232  0.44798  0.81599  1.0000
  C   C45       1.0  0.05150999999999993  0.46803  0.79181  1.0000
  C   C46       1.0  0.04645  0.44067  0.72391  1.0000
  C   C47       1.0  0.9231  0.39409  0.67994  1.0000
  C   C48       1.0  0.9411400000000001  0.47156999999999993  0.8892299999999999  1.0000
  C   C49       1.0  0.23905000000000004  0.8971700000000002  0.2917  1.0000
  C   C50       1.0  0.32187000000000004  0.8407500000000002  0.26538  1.0000
  C   C51       1.0  0.4688200000000001  0.8621300000000002  0.28432  1.0000
  C   C52       1.0  0.52422  0.9421200000000001  0.32887  1.0000
  C   C53       1.0  0.43523000000000006  0.9957200000000002  0.35234  1.0000
  C   C54       1.0  0.5635000000000001  0.8054100000000002  0.25934999999999997  1.0000
  C   C55       1.0  0.52421  0.74672  0.19641  1.0000
  C   C56       1.0  0.62006  0.6972200000000002  0.17283  1.0000
  C   C57       1.0  0.75481  0.70446  0.21210999999999997  1.0000
  C   C58       1.0  0.79309  0.76148  0.27514999999999995  1.0000
  C   C59       1.0  0.69877  0.81189  0.29853  1.0000
  C   C60       1.0  0.57958  0.6372  0.10525  1.0000
  C   C61       1.0  0.76442  0.23312  0.36421  1.0000
  C   C62       1.0  0.66211  0.26925000000000004  0.33176  1.0000
  C   C63       1.0  0.69972  0.32384  0.29451  1.0000
  C   C64       1.0  0.84187  0.33977  0.29295  1.0000
  C   C65       1.0  0.9383  0.30182  0.32724999999999993  1.0000
  C   C66       1.0  0.5936099999999999  0.36105  0.25723  1.0000
  C   C67       1.0  0.60954  0.37566  0.19683  1.0000
  C   C68       1.0  0.50605  0.4074  0.15978  1.0000
  C   C69       1.0  0.38595  0.42583  0.18315  1.0000
  C   C70       1.0  0.37033999999999995  0.41268  0.24379  1.0000
  C   C71       1.0  0.4732100000000002  0.38044  0.28053  1.0000
  C   C72       1.0  0.52598  0.4222700000000001  0.09588  1.0000
  I   I1        1.0  0.76225  0.99471  0.4969699999999999  1.0000
  I   I2        1.0  0.98111  0.77455  0.46493  1.0000
  I   I3        1.0  0.08964000000000001  0.9811000000000001  0.67342  1.0000
  I   I4        1.0  0.70074  0.78548  0.6131  1.0000
  I   I5        1.0  0.23775  0.005279999999999983  0.503  1.0000
  I   I6        1.0  0.018860000000000012  0.22544  0.53503  1.0000
  I   I7        1.0  0.91034  0.0189  0.32656  1.0000
  I   I8        1.0  0.29923  0.21451999999999996  0.38687999999999995  1.0000
  N   N1        1.0  0.57708  0.76395  0.43367  1.0000
  N   N2        1.0  0.7062099999999999  0.025519999999999998  0.665  1.0000
  N   N3        1.0  0.09845999999999999  0.75187  0.63769  1.0000
  N   N4        1.0  0.4231  0.23603000000000005  0.56632  1.0000
  N   N5        1.0  0.29389000000000004  0.9745600000000002  0.33504  1.0000
  N   N6        1.0  0.9015800000000002  0.24814000000000003  0.3623  1.0000
  O   O1        1.0  0.17009  0.54145  0.09007  1.0000
  O   O2        1.0  0.93859  0.49658  0.07168  1.0000
  O   O3        1.0  0.54424  0.3713700000000001  0.92862  1.0000
  O   O4        1.0  0.32616999999999996  0.4042600000000001  0.91504  1.0000
  O   O5        1.0  0.35587  0.58872  0.9203099999999999  1.0000
  O   O6        1.0  0.57077  0.553  0.93929  1.0000
  O   O7        1.0  0.8301999999999998  0.45879999999999993  0.9102699999999999  1.0000
  O   O8        1.0  0.06130999999999996  0.50374  0.92816  1.0000
  O   O9        1.0  0.45477  0.62899  0.07184999999999998  1.0000
  O   O10       1.0  0.67336  0.59658  0.08464999999999999  1.0000
  O   O11       1.0  0.64205  0.41160000000000013  0.07944  1.0000
  O   O12       1.0  0.42729000000000006  0.4469200000000001  0.06047  1.0000
