data_image0
_chemical_formula_structural       Mg4Cd6H48C96O48
_chemical_formula_sum              "Mg4 Cd6 H48 C96 O48"
_cell_length_a       16.63895
_cell_length_b       16.987550000000002
_cell_length_c       16.98763
_cell_angle_alpha    116.34638999999999
_cell_angle_beta     103.46840000000002
_cell_angle_gamma    103.46799999999999

_symmetry_space_group_name_H-M    'P 1'
_symmetry_Int_Tables_number       1

loop_
  _symmetry_equiv_pos_as_xyz
  'x,y,z'

loop_
  _atom_site_type_symbol
  _atom_site_label
  _atom_site_symmetry_multiplicity
  _atom_site_fract_x
  _atom_site_fract_y
  _atom_site_fract_z
  _atom_site_occupancy
  Mg  Mg1       1.0  0.26874999999999993  0.5978799999999999  0.8212899999999997  1.0000
  Mg  Mg2       1.0  0.2312599999999999  0.17870999999999992  0.40211999999999987  1.0000
  Mg  Mg3       1.0  0.7312599999999998  0.40210999999999986  0.17869999999999994  1.0000
  Mg  Mg4       1.0  0.7687399999999999  0.82129  0.59788  1.0000
  Cd  Cd1       1.0  0.25  0.36392  0.63608  1.0000
  Cd  Cd2       1.0  0.75  0.63608  0.36392  1.0000
  Cd  Cd3       1.0  0.35814  0.78646  0.05952  1.0000
  Cd  Cd4       1.0  0.85814  0.05952000000000003  0.78646  1.0000
  Cd  Cd5       1.0  0.14186  0.94048  0.21355  1.0000
  Cd  Cd6       1.0  0.6418599999999999  0.2135499999999999  0.94048  1.0000
  H   H1        1.0  0.4509  0.32417999999999997  0.4270699999999999  1.0000
  H   H2        1.0  0.46492999999999995  0.34405999999999987  0.8567599999999997  1.0000
  H   H3        1.0  0.43185999999999997  0.5878199999999998  0.60724  1.0000
  H   H4        1.0  0.42570999999999976  0.6075799999999997  0.9873199999999999  1.0000
  H   H5        1.0  0.049100000000000005  0.57293  0.67581  1.0000
  H   H6        1.0  0.03507999999999992  0.14324999999999988  0.6559399999999997  1.0000
  H   H7        1.0  0.06815  0.39276  0.41217  1.0000
  H   H8        1.0  0.07428999999999998  0.012680000000000004  0.39242  1.0000
  H   H9        1.0  0.5491  0.67581  0.5729299999999998  1.0000
  H   H10       1.0  0.53508  0.65594  0.14325  1.0000
  H   H11       1.0  0.56815  0.41217  0.39276  1.0000
  H   H12       1.0  0.57429  0.39242  0.01268  1.0000
  H   H13       1.0  0.95091  0.42705999999999994  0.3241799999999999  1.0000
  H   H14       1.0  0.96493  0.85675  0.34406  1.0000
  H   H15       1.0  0.93185  0.60723  0.58782  1.0000
  H   H16       1.0  0.9257199999999995  0.9873199999999998  0.6075799999999998  1.0000
  H   H17       1.0  0.51323  0.01843999999999995  0.39939999999999987  1.0000
  H   H18       1.0  0.62432  0.07935  0.56232  1.0000
  H   H19       1.0  0.60331  0.7898199999999999  0.27985999999999994  1.0000
  H   H20       1.0  0.5127999999999999  0.6676  0.79128  1.0000
  H   H21       1.0  0.53414  0.9557199999999999  0.9597899999999998  1.0000
  H   H22       1.0  0.64733  0.011330000000000012  0.90233  1.0000
  H   H23       1.0  0.71406  0.85172  0.43982999999999994  1.0000
  H   H24       1.0  0.6276199999999996  0.724  0.7349999999999998  1.0000
  H   H25       1.0  0.013229999999999994  0.3994  0.01844  1.0000
  H   H26       1.0  0.12432  0.56232  0.07933999999999997  1.0000
  H   H27       1.0  0.1033099999999999  0.2798499999999998  0.7898299999999998  1.0000
  H   H28       1.0  0.012789999999999992  0.79127  0.6676  1.0000
  H   H29       1.0  0.03413999999999989  0.9597799999999997  0.9557199999999999  1.0000
  H   H30       1.0  0.14733  0.90233  0.01133  1.0000
  H   H31       1.0  0.21405999999999997  0.43983  0.85172  1.0000
  H   H32       1.0  0.12762  0.735  0.72401  1.0000
  H   H33       1.0  0.9867800000000001  0.60059  0.9815599999999999  1.0000
  H   H34       1.0  0.8756799999999998  0.43767999999999985  0.9206599999999998  1.0000
  H   H35       1.0  0.8967  0.72014  0.21017999999999998  1.0000
  H   H36       1.0  0.9872  0.2087199999999999  0.3323899999999999  1.0000
  H   H37       1.0  0.96587  0.040209999999999996  0.04428999999999999  1.0000
  H   H38       1.0  0.85267  0.09765000000000001  0.9886599999999999  1.0000
  H   H39       1.0  0.78595  0.56017  0.14828  1.0000
  H   H40       1.0  0.87237  0.26498  0.27597  1.0000
  H   H41       1.0  0.48677999999999993  0.9815599999999999  0.6006  1.0000
  H   H42       1.0  0.37569  0.92065  0.4376799999999999  1.0000
  H   H43       1.0  0.39669999999999994  0.2101799999999999  0.72014  1.0000
  H   H44       1.0  0.4871999999999999  0.3324  0.20872999999999997  1.0000
  H   H45       1.0  0.46586  0.04427  0.040219999999999985  1.0000
  H   H46       1.0  0.3526699999999999  0.98866  0.09765999999999997  1.0000
  H   H47       1.0  0.28594999999999987  0.14827999999999994  0.56017  1.0000
  H   H48       1.0  0.37237  0.27598  0.26499  1.0000
  C   C1        1.0  0.43480999999999986  0.45108999999999977  0.5190499999999998  1.0000
  C   C2        1.0  0.47292  0.40082  0.4584899999999999  1.0000
  C   C3        1.0  0.48011999999999994  0.4122299999999999  0.9193199999999998  1.0000
  C   C4        1.0  0.46222  0.55024  0.5604299999999999  1.0000
  C   C5        1.0  0.4585499999999999  0.561  0.9930799999999999  1.0000
  C   C6        1.0  0.4382399999999999  0.4730699999999999  0.9118599999999998  1.0000
  C   C7        1.0  0.36673  0.40108  0.54257  1.0000
  C   C8        1.0  0.3717499999999998  0.4421899999999999  0.8176999999999998  1.0000
  C   C9        1.0  0.06518999999999998  0.48095  0.5489  1.0000
  C   C10       1.0  0.02708999999999992  0.5415  0.5991699999999998  1.0000
  C   C11       1.0  0.019889999999999915  0.0806799999999999  0.5877699999999998  1.0000
  C   C12       1.0  0.03778999999999999  0.43957  0.44975  1.0000
  C   C13       1.0  0.04145999999999998  0.006919999999999977  0.43899999999999995  1.0000
  C   C14       1.0  0.061770000000000005  0.08813999999999998  0.52693  1.0000
  C   C15       1.0  0.13326999999999997  0.45742  0.59892  1.0000
  C   C16       1.0  0.1282599999999999  0.18229999999999985  0.5578099999999998  1.0000
  C   C17       1.0  0.56519  0.5489  0.48095  1.0000
  C   C18       1.0  0.52709  0.59917  0.54151  1.0000
  C   C19       1.0  0.51989  0.58777  0.08067999999999997  1.0000
  C   C20       1.0  0.53779  0.44975  0.43957  1.0000
  C   C21       1.0  0.54146  0.439  0.006929999999999999  1.0000
  C   C22       1.0  0.56177  0.52693  0.08814  1.0000
  C   C23       1.0  0.63327  0.59891  0.45742  1.0000
  C   C24       1.0  0.62826  0.55781  0.18229999999999993  1.0000
  C   C25       1.0  0.93481  0.51904  0.45109  1.0000
  C   C26       1.0  0.97292  0.45848999999999995  0.4008199999999999  1.0000
  C   C27       1.0  0.9801199999999999  0.9193199999999999  0.41223  1.0000
  C   C28       1.0  0.9622199999999996  0.56042  0.5502399999999997  1.0000
  C   C29       1.0  0.9585500000000003  0.99307  0.5609999999999999  1.0000
  C   C30       1.0  0.9382399999999999  0.9118599999999998  0.4730699999999999  1.0000
  C   C31       1.0  0.86673  0.54256  0.4010699999999999  1.0000
  C   C32       1.0  0.87175  0.8177  0.44219  1.0000
  C   C33       1.0  0.55728  0.98248  0.4093799999999999  1.0000
  C   C34       1.0  0.61863  0.016319999999999953  0.4996599999999999  1.0000
  C   C35       1.0  0.55111  0.90028  0.33007  1.0000
  C   C36       1.0  0.60769  0.85312  0.34127  1.0000
  C   C37       1.0  0.7377600000000001  0.003299999999999999  0.6081  1.0000
  C   C38       1.0  0.5425  0.74236  0.81467  1.0000
  C   C39       1.0  0.51525  0.80802  0.8771899999999998  1.0000
  C   C40       1.0  0.7064399999999997  0.9018499999999999  0.7739699999999998  1.0000
  C   C41       1.0  0.67415  0.9680999999999998  0.5110999999999999  1.0000
  C   C42       1.0  0.5541899999999997  0.9053199999999999  0.9099699999999997  1.0000
  C   C43       1.0  0.44448  0.77258  0.90734  1.0000
  C   C44       1.0  0.48395999999999995  0.86199  0.23405999999999993  1.0000
  C   C45       1.0  0.61691  0.93634  0.8776899999999997  1.0000
  C   C46       1.0  0.66917  0.8872099999999998  0.43144  1.0000
  C   C47       1.0  0.60596  0.77357  0.78339  1.0000
  C   C48       1.0  0.64189  0.87022  0.8127  1.0000
  C   C49       1.0  0.05727999999999993  0.40936999999999985  0.9824899999999998  1.0000
  C   C50       1.0  0.11863  0.49966  0.016319999999999998  1.0000
  C   C51       1.0  0.05111000000000004  0.33007  0.90028  1.0000
  C   C52       1.0  0.10768999999999998  0.34126999999999996  0.85313  1.0000
  C   C53       1.0  0.23774999999999988  0.6080999999999998  0.003299999999999999  1.0000
  C   C54       1.0  0.0425  0.81466  0.74236  1.0000
  C   C55       1.0  0.015249999999999894  0.87718  0.8080299999999998  1.0000
  C   C56       1.0  0.20644999999999994  0.77398  0.9018499999999998  1.0000
  C   C57       1.0  0.17415  0.51109  0.9681  1.0000
  C   C58       1.0  0.05418999999999989  0.9099599999999999  0.9053199999999998  1.0000
  C   C59       1.0  0.9444899999999999  0.9073399999999999  0.77258  1.0000
  C   C60       1.0  0.9839700000000001  0.23405999999999988  0.8619999999999998  1.0000
  C   C61       1.0  0.11691000000000003  0.87768  0.93634  1.0000
  C   C62       1.0  0.1691699999999999  0.43143999999999977  0.8872099999999998  1.0000
  C   C63       1.0  0.10595999999999998  0.78338  0.77357  1.0000
  C   C64       1.0  0.14189000000000002  0.8127  0.87022  1.0000
  C   C65       1.0  0.9427299999999997  0.5906199999999998  0.01752  1.0000
  C   C66       1.0  0.8813799999999997  0.50034  0.98368  1.0000
  C   C67       1.0  0.9489000000000001  0.66993  0.09971999999999998  1.0000
  C   C68       1.0  0.8923199999999999  0.6587299999999998  0.14687999999999998  1.0000
  C   C69       1.0  0.76225  0.39189999999999997  0.9967  1.0000
  C   C70       1.0  0.9575  0.18532999999999994  0.25762999999999997  1.0000
  C   C71       1.0  0.9847500000000001  0.12281  0.19197  1.0000
  C   C72       1.0  0.79356  0.22603  0.09814  1.0000
  C   C73       1.0  0.82586  0.48889999999999995  0.0319  1.0000
  C   C74       1.0  0.94581  0.09003  0.09467999999999999  1.0000
  C   C75       1.0  0.05552  0.09265999999999999  0.22741999999999998  1.0000
  C   C76       1.0  0.016039999999999992  0.76594  0.13801  1.0000
  C   C77       1.0  0.8830899999999999  0.1223  0.06365  1.0000
  C   C78       1.0  0.83084  0.56856  0.11278999999999997  1.0000
  C   C79       1.0  0.8940399999999997  0.21659999999999996  0.22642  1.0000
  C   C80       1.0  0.8581099999999998  0.18729999999999997  0.12977  1.0000
  C   C81       1.0  0.44273  0.017509999999999984  0.59062  1.0000
  C   C82       1.0  0.38138  0.98367  0.50034  1.0000
  C   C83       1.0  0.4488899999999999  0.09971999999999999  0.66993  1.0000
  C   C84       1.0  0.3923199999999999  0.14686999999999995  0.6587299999999999  1.0000
  C   C85       1.0  0.26225  0.9967  0.3918999999999999  1.0000
  C   C86       1.0  0.4574999999999999  0.25762999999999997  0.18532999999999994  1.0000
  C   C87       1.0  0.48475  0.19196999999999997  0.12280999999999997  1.0000
  C   C88       1.0  0.29355  0.09813999999999998  0.22601999999999997  1.0000
  C   C89       1.0  0.3258599999999998  0.03189999999999993  0.4889099999999999  1.0000
  C   C90       1.0  0.44581  0.09466999999999999  0.09002999999999997  1.0000
  C   C91       1.0  0.55551  0.22741999999999996  0.09265999999999998  1.0000
  C   C92       1.0  0.51604  0.1379899999999999  0.7659399999999997  1.0000
  C   C93       1.0  0.38309  0.06364999999999996  0.12230999999999999  1.0000
  C   C94       1.0  0.3308399999999999  0.1127899999999999  0.5685599999999998  1.0000
  C   C95       1.0  0.39404  0.22641999999999998  0.21660999999999997  1.0000
  C   C96       1.0  0.35810999999999993  0.12976999999999989  0.18729999999999994  1.0000
  O   O1        1.0  0.35381999999999997  0.45440999999999987  0.6156599999999998  1.0000
  O   O2        1.0  0.3583199999999999  0.36233999999999983  0.7462799999999998  1.0000
  O   O3        1.0  0.32753999999999994  0.4923099999999999  0.8076599999999999  1.0000
  O   O4        1.0  0.32576  0.31048999999999993  0.49247  1.0000
  O   O5        1.0  0.14618999999999996  0.3843299999999999  0.54559  1.0000
  O   O6        1.0  0.14168999999999995  0.25373  0.63766  1.0000
  O   O7        1.0  0.1724699999999999  0.19233999999999993  0.5076899999999998  1.0000
  O   O8        1.0  0.17424999999999985  0.5075299999999997  0.6895099999999997  1.0000
  O   O9        1.0  0.64618  0.54558  0.3843299999999999  1.0000
  O   O10       1.0  0.64167  0.63766  0.25373  1.0000
  O   O11       1.0  0.6724800000000001  0.5077  0.19233999999999996  1.0000
  O   O12       1.0  0.67425  0.6895  0.50753  1.0000
  O   O13       1.0  0.85381  0.61565  0.4544  1.0000
  O   O14       1.0  0.85832  0.74627  0.36234  1.0000
  O   O15       1.0  0.8275399999999999  0.8076599999999997  0.4923099999999999  1.0000
  O   O16       1.0  0.82575  0.49245  0.31048  1.0000
  O   O17       1.0  0.4491899999999998  0.8285099999999999  0.9903599999999998  1.0000
  O   O18       1.0  0.43076999999999993  0.9027999999999998  0.22209999999999994  1.0000
  O   O19       1.0  0.77779  0.9491499999999999  0.61904  1.0000
  O   O20       1.0  0.7067199999999999  0.8410299999999998  0.69628  1.0000
  O   O21       1.0  0.75357  0.08308999999999989  0.6780799999999998  1.0000
  O   O22       1.0  0.7575699999999999  0.9906600000000001  0.8255499999999998  1.0000
  O   O23       1.0  0.38566  0.68862  0.84829  1.0000
  O   O24       1.0  0.479  0.78646  0.16239  1.0000
  O   O25       1.0  0.9492099999999999  0.9903699999999999  0.82852  1.0000
  O   O26       1.0  0.93076  0.22209999999999983  0.9027899999999998  1.0000
  O   O27       1.0  0.27778999999999987  0.6190399999999999  0.9491499999999998  1.0000
  O   O28       1.0  0.2067299999999998  0.6962799999999996  0.8410399999999998  1.0000
  O   O29       1.0  0.25355999999999984  0.6780799999999998  0.08309  1.0000
  O   O30       1.0  0.25758000000000003  0.8255700000000001  0.99066  1.0000
  O   O31       1.0  0.8856599999999997  0.8482999999999999  0.68863  1.0000
  O   O32       1.0  0.9790200000000001  0.16237999999999986  0.7864799999999997  1.0000
  O   O33       1.0  0.050819999999999976  0.009639999999999975  0.17147999999999994  1.0000
  O   O34       1.0  0.06925  0.7778999999999999  0.09720999999999998  1.0000
  O   O35       1.0  0.72221  0.38096  0.05084  1.0000
  O   O36       1.0  0.7932999999999999  0.30372999999999994  0.15895  1.0000
  O   O37       1.0  0.7464499999999998  0.3219199999999999  0.9169099999999998  1.0000
  O   O38       1.0  0.7424299999999999  0.17444  0.009329999999999996  1.0000
  O   O39       1.0  0.11433999999999996  0.15169999999999995  0.3113799999999999  1.0000
  O   O40       1.0  0.020999999999999963  0.8376099999999997  0.21354  1.0000
  O   O41       1.0  0.5508  0.17146999999999996  0.00963  1.0000
  O   O42       1.0  0.5692499999999998  0.09719999999999998  0.7779  1.0000
  O   O43       1.0  0.22221  0.05084999999999995  0.38096  1.0000
  O   O44       1.0  0.29328  0.15895  0.30372  1.0000
  O   O45       1.0  0.24644999999999997  0.9169099999999999  0.32192  1.0000
  O   O46       1.0  0.24242  0.009329999999999969  0.17442999999999995  1.0000
  O   O47       1.0  0.61434  0.31137  0.15168  1.0000
  O   O48       1.0  0.5209799999999998  0.21350999999999984  0.8376199999999998  1.0000
