data_image0
_chemical_formula_structural       Cd4H80C88N24O16
_chemical_formula_sum              "Cd4 H80 C88 N24 O16"
_cell_length_a       8.07019
_cell_length_b       19.01548
_cell_length_c       19.49
_cell_angle_alpha    90.0
_cell_angle_beta     95.66962
_cell_angle_gamma    90.0

_space_group_name_H-M_alt    "P 1"
_space_group_IT_number       1

loop_
  _space_group_symop_operation_xyz
  'x, y, z'

loop_
  _atom_site_type_symbol
  _atom_site_label
  _atom_site_symmetry_multiplicity
  _atom_site_fract_x
  _atom_site_fract_y
  _atom_site_fract_z
  _atom_site_occupancy
  Cd  Cd1       1.0  0.4884999999999999  0.36198000000000013  0.47253  1.0000
  Cd  Cd2       1.0  0.48403  0.3368  0.014729999999999998  1.0000
  Cd  Cd3       1.0  0.5115  0.86197  0.52747  1.0000
  Cd  Cd4       1.0  0.5159799999999998  0.8367900000000003  0.98527  1.0000
  H   H1        1.0  0.019579999999999993  0.33463000000000004  0.58502  1.0000
  H   H2        1.0  0.25862  0.33695  0.67817  1.0000
  H   H3        1.0  0.9362  0.4290400000000001  0.8171  1.0000
  H   H4        1.0  0.69662  0.42210000000000003  0.72487  1.0000
  H   H5        1.0  0.18658999999999998  0.24157000000000003  0.8604199999999999  1.0000
  H   H6        1.0  0.01983000000000001  0.30167  0.86464  1.0000
  H   H7        1.0  0.15931  0.28459000000000007  0.93962  1.0000
  H   H8        1.0  0.5055  0.5201100000000001  0.77168  1.0000
  H   H9        1.0  0.28953  0.51656  0.74141  1.0000
  H   H10       1.0  0.43131  0.4585400000000001  0.70601  1.0000
  H   H11       1.0  0.72097  0.6400400000000003  0.44171999999999995  1.0000
  H   H12       1.0  0.9494999999999998  0.55779  0.41663  1.0000
  H   H13       1.0  0.31091  0.69601  0.5243  1.0000
  H   H14       1.0  0.08167999999999997  0.7802600000000002  0.54441  1.0000
  H   H15       1.0  0.07596  0.45378000000000007  0.51577  1.0000
  H   H16       1.0  0.15812999999999994  0.52009  0.57388  1.0000
  H   H17       1.0  0.2656599999999999  0.43833  0.56806  1.0000
  H   H18       1.0  0.49281  0.63248  0.32907  1.0000
  H   H19       1.0  0.45635000000000003  0.68857  0.39994  1.0000
  H   H20       1.0  0.28605  0.66022  0.34113  1.0000
  H   H21       1.0  0.30892  0.29264  0.24865999999999996  1.0000
  H   H22       1.0  0.09000999999999998  0.28372  0.33005  1.0000
  H   H23       1.0  0.7132  0.3316900000000001  0.16381  1.0000
  H   H24       1.0  0.93334  0.33644  0.0818  1.0000
  H   H25       1.0  0.77335  0.44048000000000004  0.40591  1.0000
  H   H26       1.0  0.84776  0.44285000000000013  0.32257  1.0000
  H   H27       1.0  0.95977  0.3944300000000001  0.39058  1.0000
  H   H28       1.0  0.50559  0.1632  0.25092  1.0000
  H   H29       1.0  0.7268499999999998  0.15279000000000006  0.25791  1.0000
  H   H30       1.0  0.62558  0.20772  0.19227  1.0000
  H   H31       1.0  0.6143899999999999  0.0728  0.94358  1.0000
  H   H32       1.0  0.8402399999999997  0.9884  0.92117  1.0000
  H   H33       1.0  0.2099699999999999  0.14427000000000004  0.98849  1.0000
  H   H34       1.0  0.98144  0.22891000000000003  0.00948  1.0000
  H   H35       1.0  0.19786  0.87861  0.05128  1.0000
  H   H36       1.0  0.00867  0.9229  0.02306  1.0000
  H   H37       1.0  0.16404  0.9661200000000001  0.08029  1.0000
  H   H38       1.0  0.31553  0.13165  0.86144  1.0000
  H   H39       1.0  0.13661999999999994  0.09100000000000001  0.81709  1.0000
  H   H40       1.0  0.34069  0.06829  0.79553  1.0000
  H   H41       1.0  0.98042  0.8346300000000001  0.41498  1.0000
  H   H42       1.0  0.7413899999999998  0.83695  0.32183  1.0000
  H   H43       1.0  0.06381  0.92904  0.18289  1.0000
  H   H44       1.0  0.30339  0.9221000000000001  0.27512  1.0000
  H   H45       1.0  0.81342  0.7415700000000001  0.13958  1.0000
  H   H46       1.0  0.9801799999999998  0.80167  0.13535  1.0000
  H   H47       1.0  0.8406999999999998  0.78459  0.06038  1.0000
  H   H48       1.0  0.4945  0.020110000000000003  0.22832  1.0000
  H   H49       1.0  0.7104699999999998  0.01656  0.25859  1.0000
  H   H50       1.0  0.5687  0.9585400000000001  0.29398  1.0000
  H   H51       1.0  0.2790399999999999  0.14004000000000003  0.55828  1.0000
  H   H52       1.0  0.0505  0.05779  0.58337  1.0000
  H   H53       1.0  0.6891  0.19601000000000005  0.47569  1.0000
  H   H54       1.0  0.9183199999999998  0.28026  0.45559  1.0000
  H   H55       1.0  0.9240499999999998  0.9537700000000002  0.48423  1.0000
  H   H56       1.0  0.84187  0.02009  0.42612  1.0000
  H   H57       1.0  0.7343499999999998  0.93832  0.43193999999999994  1.0000
  H   H58       1.0  0.50719  0.13248  0.67093  1.0000
  H   H59       1.0  0.54365  0.18857  0.60006  1.0000
  H   H60       1.0  0.71396  0.16022  0.65887  1.0000
  H   H61       1.0  0.6910800000000001  0.7926400000000002  0.75133  1.0000
  H   H62       1.0  0.90999  0.78372  0.66995  1.0000
  H   H63       1.0  0.2868  0.8316900000000002  0.8361899999999999  1.0000
  H   H64       1.0  0.06667  0.8364400000000002  0.9182  1.0000
  H   H65       1.0  0.22666  0.94048  0.59409  1.0000
  H   H66       1.0  0.15224999999999994  0.9428500000000001  0.6774299999999999  1.0000
  H   H67       1.0  0.040229999999999974  0.8944300000000001  0.60942  1.0000
  H   H68       1.0  0.49441  0.66319  0.74908  1.0000
  H   H69       1.0  0.27316  0.65279  0.74209  1.0000
  H   H70       1.0  0.37443  0.7077200000000001  0.80773  1.0000
  H   H71       1.0  0.3856099999999999  0.5728  0.05642  1.0000
  H   H72       1.0  0.15976999999999994  0.48840000000000006  0.07883  1.0000
  H   H73       1.0  0.79004  0.64427  0.01151  1.0000
  H   H74       1.0  0.018559999999999972  0.7289100000000002  0.9905199999999998  1.0000
  H   H75       1.0  0.8021399999999996  0.37861  0.9487199999999999  1.0000
  H   H76       1.0  0.9913399999999999  0.4229  0.97694  1.0000
  H   H77       1.0  0.83597  0.46612000000000003  0.9196999999999999  1.0000
  H   H78       1.0  0.68448  0.6316500000000003  0.13856  1.0000
  H   H79       1.0  0.8633799999999998  0.5910000000000001  0.18291  1.0000
  H   H80       1.0  0.65931  0.56829  0.20447  1.0000
  C   C1        1.0  0.7036499999999998  0.37774000000000013  0.59313  1.0000
  C   C2        1.0  0.8450699999999998  0.3786400000000001  0.64947  1.0000
  C   C3        1.0  0.0030600000000000037  0.35449  0.63621  1.0000
  C   C4        1.0  0.13574  0.35587  0.68781  1.0000
  C   C5        1.0  0.10902  0.3830900000000001  0.75238  1.0000
  C   C6        1.0  0.9524699999999999  0.4075900000000001  0.76646  1.0000
  C   C7        1.0  0.8200399999999998  0.4043  0.71506  1.0000
  C   C8        1.0  0.14992000000000003  0.29122  0.88355  1.0000
  C   C9        1.0  0.26082999999999984  0.34914000000000006  0.8658999999999999  1.0000
  C   C10       1.0  0.3772299999999999  0.43343  0.80903  1.0000
  C   C11       1.0  0.40264  0.48496  0.75377  1.0000
  C   C12       1.0  0.7514099999999998  0.76522  0.50766  1.0000
  C   C13       1.0  0.8877599999999997  0.71467  0.4952599999999999  1.0000
  C   C14       1.0  0.8500199999999999  0.65208  0.45897  1.0000
  C   C15       1.0  0.9769299999999997  0.6061  0.44545  1.0000
  C   C16       1.0  0.14148999999999998  0.62255  0.46958  1.0000
  C   C17       1.0  0.18196999999999994  0.6844300000000002  0.50607  1.0000
  C   C18       1.0  0.05375  0.73071  0.51808  1.0000
  C   C19       1.0  0.19157  0.47854000000000013  0.53869  1.0000
  C   C20       1.0  0.29044  0.50793  0.48524  1.0000
  C   C21       1.0  0.38803  0.5804400000000001  0.41004  1.0000
  C   C22       1.0  0.40672  0.64427  0.36763  1.0000
  C   C23       1.0  0.26515  0.32041000000000003  0.11114  1.0000
  C   C24       1.0  0.13437999999999994  0.31570000000000004  0.1603  1.0000
  C   C25       1.0  0.17870999999999995  0.30067  0.23019000000000003  1.0000
  C   C26       1.0  0.05641999999999999  0.2957  0.27578  1.0000
  C   C27       1.0  0.89016  0.30684000000000006  0.25056  1.0000
  C   C28       1.0  0.84348  0.32256  0.18132  1.0000
  C   C29       1.0  0.9667199999999998  0.32622  0.13621  1.0000
  C   C30       1.0  0.83456  0.4098400000000001  0.36799999999999994  1.0000
  C   C31       1.0  0.73252  0.34688  0.34805  1.0000
  C   C32       1.0  0.63805  0.25041  0.29434  1.0000
  C   C33       1.0  0.6238399999999997  0.19006000000000003  0.24585  1.0000
  C   C34       1.0  0.65236  0.21063000000000004  0.98664  1.0000
  C   C35       1.0  0.78466  0.15670000000000006  0.97675  1.0000
  C   C36       1.0  0.74432  0.08857000000000001  0.95302  1.0000
  C   C37       1.0  0.87026  0.04113  0.94051  1.0000
  C   C38       1.0  0.03645999999999997  0.06248000000000001  0.9528899999999999  1.0000
  C   C39       1.0  0.07944000000000002  0.12944  0.9784400000000001  1.0000
  C   C40       1.0  0.95255  0.17630000000000004  0.9900199999999999  1.0000
  C   C41       1.0  0.14317  0.9297800000000002  0.03644  1.0000
  C   C42       1.0  0.2231299999999999  0.9577800000000001  0.9768699999999999  1.0000
  C   C43       1.0  0.27871  0.024620000000000006  0.88938  1.0000
  C   C44       1.0  0.2666299999999999  0.08232  0.83773  1.0000
  C   C45       1.0  0.29636  0.8777400000000001  0.40686  1.0000
  C   C46       1.0  0.15493999999999994  0.87864  0.35053  1.0000
  C   C47       1.0  0.9969500000000001  0.85449  0.36379  1.0000
  C   C48       1.0  0.86427  0.8558700000000001  0.31219  1.0000
  C   C49       1.0  0.8909899999999997  0.88309  0.24762  1.0000
  C   C50       1.0  0.04753  0.9075900000000001  0.23353  1.0000
  C   C51       1.0  0.17996  0.9043000000000001  0.28493  1.0000
  C   C52       1.0  0.85009  0.79121  0.11645  1.0000
  C   C53       1.0  0.73918  0.84914  0.1341  1.0000
  C   C54       1.0  0.6227799999999998  0.9334300000000001  0.19097  1.0000
  C   C55       1.0  0.59737  0.9849600000000001  0.24622999999999998  1.0000
  C   C56       1.0  0.24859999999999996  0.26522  0.49233999999999994  1.0000
  C   C57       1.0  0.11224  0.21467  0.50474  1.0000
  C   C58       1.0  0.14999  0.15208000000000002  0.54103  1.0000
  C   C59       1.0  0.023079999999999996  0.10610000000000003  0.55455  1.0000
  C   C60       1.0  0.85851  0.12255  0.53042  1.0000
  C   C61       1.0  0.81803  0.18443000000000004  0.49393  1.0000
  C   C62       1.0  0.94626  0.23071  0.48192  1.0000
  C   C63       1.0  0.8084399999999998  0.97853  0.46131000000000005  1.0000
  C   C64       1.0  0.7095699999999998  0.007930000000000003  0.51476  1.0000
  C   C65       1.0  0.61197  0.08044000000000001  0.58995  1.0000
  C   C66       1.0  0.59329  0.14426  0.63237  1.0000
  C   C67       1.0  0.73486  0.8204000000000002  0.88886  1.0000
  C   C68       1.0  0.86562  0.8156900000000002  0.8397  1.0000
  C   C69       1.0  0.8213  0.80067  0.76981  1.0000
  C   C70       1.0  0.94359  0.7956900000000002  0.72422  1.0000
  C   C71       1.0  0.10985  0.8068400000000001  0.74944  1.0000
  C   C72       1.0  0.15653  0.82256  0.81868  1.0000
  C   C73       1.0  0.03328  0.8262100000000002  0.86379  1.0000
  C   C74       1.0  0.16545000000000004  0.90984  0.632  1.0000
  C   C75       1.0  0.26749  0.84688  0.65195  1.0000
  C   C76       1.0  0.36196  0.75041  0.70566  1.0000
  C   C77       1.0  0.37616  0.6900500000000002  0.75415  1.0000
  C   C78       1.0  0.34765  0.71062  0.013359999999999999  1.0000
  C   C79       1.0  0.21535  0.6567  0.02325  1.0000
  C   C80       1.0  0.25568999999999986  0.5885700000000003  0.04698  1.0000
  C   C81       1.0  0.12974999999999995  0.54113  0.05949  1.0000
  C   C82       1.0  0.96354  0.56248  0.04710999999999999  1.0000
  C   C83       1.0  0.92056  0.6294400000000001  0.02156  1.0000
  C   C84       1.0  0.04746  0.6763  0.00997  1.0000
  C   C85       1.0  0.85684  0.42978  0.96356  1.0000
  C   C86       1.0  0.7768799999999998  0.45778  0.02313  1.0000
  C   C87       1.0  0.72129  0.5246300000000002  0.11062  1.0000
  C   C88       1.0  0.73337  0.58232  0.16227  1.0000
  N   N1        1.0  0.3963299999999999  0.37188000000000004  0.90329  1.0000
  N   N2        1.0  0.47034  0.42475  0.8680299999999999  1.0000
  N   N3        1.0  0.24428  0.38694000000000006  0.80555  1.0000
  N   N4        1.0  0.41492  0.47712  0.45734  1.0000
  N   N5        1.0  0.47676  0.5220200000000002  0.41003  1.0000
  N   N6        1.0  0.26966  0.5737000000000002  0.45661  1.0000
  N   N7        1.0  0.59869  0.32434  0.3759  1.0000
  N   N8        1.0  0.53921  0.26371  0.34284  1.0000
  N   N9        1.0  0.76168  0.30119  0.2961  1.0000
  N   N10       1.0  0.35736  0.9332400000000001  0.95067  1.0000
  N   N11       1.0  0.3926499999999999  0.9746600000000002  0.89556  1.0000
  N   N12       1.0  0.16907  0.01584  0.93916  1.0000
  N   N13       1.0  0.6036699999999998  0.8718800000000002  0.09671  1.0000
  N   N14       1.0  0.52967  0.92475  0.13197  1.0000
  N   N15       1.0  0.75573  0.88694  0.19445  1.0000
  N   N16       1.0  0.5851  0.97711  0.54266  1.0000
  N   N17       1.0  0.52325  0.022020000000000005  0.58997  1.0000
  N   N18       1.0  0.73034  0.07370000000000002  0.54338  1.0000
  N   N19       1.0  0.40132000000000007  0.82434  0.6241  1.0000
  N   N20       1.0  0.4607899999999999  0.7637100000000002  0.65716  1.0000
  N   N21       1.0  0.23832  0.80118  0.7039  1.0000
  N   N22       1.0  0.64265  0.4332500000000001  0.04932999999999999  1.0000
  N   N23       1.0  0.6073599999999998  0.4746600000000001  0.10444  1.0000
  N   N24       1.0  0.83093  0.51584  0.06083999999999999  1.0000
  O   O1        1.0  0.7436299999999999  0.36502  0.53198  1.0000
  O   O2        1.0  0.55685  0.3889  0.60766  1.0000
  O   O3        1.0  0.79193  0.823  0.53881  1.0000
  O   O4        1.0  0.60158  0.7500000000000002  0.48605  1.0000
  O   O5        1.0  0.70898  0.27343  4e-05  1.0000
  O   O6        1.0  0.5004299999999997  0.19462  0.9817299999999999  1.0000
  O   O7        1.0  0.21703  0.33766  0.04825  1.0000
  O   O8        1.0  0.41612  0.30808  0.1318  1.0000
  O   O9        1.0  0.25638  0.86502  0.46801999999999994  1.0000
  O   O10       1.0  0.4431599999999999  0.8889  0.39234  1.0000
  O   O11       1.0  0.20808  0.32301  0.46119  1.0000
  O   O12       1.0  0.39843  0.25  0.51395  1.0000
  O   O13       1.0  0.29102  0.77342  0.9999599999999998  1.0000
  O   O14       1.0  0.49957999999999997  0.69461  0.01827  1.0000
  O   O15       1.0  0.78298  0.8376600000000001  0.9517499999999999  1.0000
  O   O16       1.0  0.5838799999999997  0.80808  0.8681899999999999  1.0000
