data_image0
_chemical_formula_structural       Gd4Co6H36C84N12O48
_chemical_formula_sum              "Gd4 Co6 H36 C84 N12 O48"
_cell_length_a       15.35884
_cell_length_b       15.35938
_cell_length_c       14.931349999999998
_cell_angle_alpha    90.00108
_cell_angle_beta     89.99863000000002
_cell_angle_gamma    120.03701

_space_group_name_H-M_alt    "P 1"
_space_group_IT_number       1

loop_
  _space_group_symop_operation_xyz
  'x, y, z'

loop_
  _atom_site_type_symbol
  _atom_site_label
  _atom_site_symmetry_multiplicity
  _atom_site_fract_x
  _atom_site_fract_y
  _atom_site_fract_z
  _atom_site_occupancy
  Gd  Gd1       1.0  0.3333300000000002  0.6667200000000002  0.24952  1.0000
  Gd  Gd2       1.0  0.6666900000000001  0.3333  0.24956  1.0000
  Gd  Gd3       1.0  0.66674  0.33331  0.75046  1.0000
  Gd  Gd4       1.0  0.33324  0.66658  0.75047  1.0000
  Co  Co1       1.0  0.49982  0.00031  0.0  1.0000
  Co  Co2       1.0  0.0001599999999999871  0.50003  0.99997  1.0000
  Co  Co3       1.0  0.50036  0.50006  9.999999999999997e-06  1.0000
  Co  Co4       1.0  9.000000000000178e-05  0.50001  0.50004  1.0000
  Co  Co5       1.0  0.49984000000000006  0.9997300000000001  0.5  1.0000
  Co  Co6       1.0  0.5000700000000002  0.4997200000000001  0.4999499999999999  1.0000
  H   H1        1.0  0.24266  0.95724  0.14663  1.0000
  H   H2        1.0  0.04261000000000001  0.28522  0.14653  1.0000
  H   H3        1.0  0.71469  0.7574000000000001  0.14667  1.0000
  H   H4        1.0  0.75735  0.042780000000000006  0.14663  1.0000
  H   H5        1.0  0.95742  0.71483  0.14655  1.0000
  H   H6        1.0  0.28532  0.24257000000000004  0.14667  1.0000
  H   H7        1.0  0.95702  0.24294000000000004  0.35366  1.0000
  H   H8        1.0  0.28572  0.04288000000000001  0.3537  1.0000
  H   H9        1.0  0.7572000000000002  0.71415  0.35352  1.0000
  H   H10       1.0  0.04300000000000006  0.7570500000000001  0.35364  1.0000
  H   H11       1.0  0.71428  0.95713  0.3536799999999999  1.0000
  H   H12       1.0  0.24285  0.28585  0.35359  1.0000
  H   H13       1.0  0.75738  0.042780000000000006  0.85338  1.0000
  H   H14       1.0  0.9574100000000002  0.7148500000000002  0.8534  1.0000
  H   H15       1.0  0.2853  0.24257000000000004  0.8533199999999997  1.0000
  H   H16       1.0  0.2427300000000001  0.9572600000000002  0.85341  1.0000
  H   H17       1.0  0.04263999999999998  0.28517  0.85339  1.0000
  H   H18       1.0  0.71475  0.75742  0.85337  1.0000
  H   H19       1.0  0.04304999999999997  0.75712  0.6463799999999997  1.0000
  H   H20       1.0  0.71428  0.9571200000000001  0.64632  1.0000
  H   H21       1.0  0.24287000000000003  0.28581  0.64641  1.0000
  H   H22       1.0  0.95698  0.2429  0.64636  1.0000
  H   H23       1.0  0.28567  0.04286  0.64633  1.0000
  H   H24       1.0  0.7572000000000002  0.71417  0.6465199999999999  1.0000
  H   H25       1.0  0.09385000000000009  0.9059300000000002  0.25029  1.0000
  H   H26       1.0  0.09400000000000001  0.18789000000000003  0.25018  1.0000
  H   H27       1.0  0.8121600000000004  0.9062300000000002  0.25032  1.0000
  H   H28       1.0  0.90614  0.09406000000000003  0.25028  1.0000
  H   H29       1.0  0.9060700000000005  0.8121900000000002  0.25018  1.0000
  H   H30       1.0  0.18781  0.09376  0.25034  1.0000
  H   H31       1.0  0.9062  0.09403  0.74973  1.0000
  H   H32       1.0  0.9061200000000001  0.8122800000000001  0.74981  1.0000
  H   H33       1.0  0.18777000000000005  0.09376  0.7496699999999997  1.0000
  H   H34       1.0  0.09389000000000011  0.9059800000000002  0.74976  1.0000
  H   H35       1.0  0.094  0.18783  0.74977  1.0000
  H   H36       1.0  0.81211  0.9061900000000003  0.7496699999999997  1.0000
  C   C1        1.0  0.35808  0.86538  0.13807  1.0000
  C   C2        1.0  0.2673900000000002  0.8401100000000002  0.19520999999999994  1.0000
  C   C3        1.0  0.21644000000000016  0.8940900000000003  0.19252  1.0000
  C   C4        1.0  0.13469  0.49273  0.13806  1.0000
  C   C5        1.0  0.15984  0.42724  0.19519  1.0000
  C   C6        1.0  0.10579999999999999  0.32226  0.19243  1.0000
  C   C7        1.0  0.5072300000000002  0.6419700000000003  0.13807999999999995  1.0000
  C   C8        1.0  0.5727500000000001  0.73268  0.19520999999999994  1.0000
  C   C9        1.0  0.6777200000000001  0.7836100000000003  0.19252999999999995  1.0000
  C   C10       1.0  0.64195  0.13470000000000001  0.13804999999999995  1.0000
  C   C11       1.0  0.73262  0.1599  0.19519  1.0000
  C   C12       1.0  0.78357  0.10592  0.19252999999999995  1.0000
  C   C13       1.0  0.8654000000000001  0.5072900000000001  0.13801  1.0000
  C   C14       1.0  0.84022  0.57278  0.19514999999999993  1.0000
  C   C15       1.0  0.8942200000000002  0.67777  0.19241  1.0000
  C   C16       1.0  0.4928300000000001  0.35802  0.13807999999999995  1.0000
  C   C17       1.0  0.42727  0.26731  0.19520999999999994  1.0000
  C   C18       1.0  0.32228  0.21636000000000005  0.19254  1.0000
  C   C19       1.0  0.8650100000000001  0.35806  0.36191  1.0000
  C   C20       1.0  0.83994  0.2674  0.30481  1.0000
  C   C21       1.0  0.8939700000000002  0.21654000000000007  0.30765  1.0000
  C   C22       1.0  0.49305999999999994  0.13495  0.3618899999999999  1.0000
  C   C23       1.0  0.42738  0.15994000000000005  0.30483  1.0000
  C   C24       1.0  0.32244  0.10595000000000002  0.3077  1.0000
  C   C25       1.0  0.64201  0.50689  0.36188  1.0000
  C   C26       1.0  0.73264  0.57257  0.30472  1.0000
  C   C27       1.0  0.78357  0.67749  0.30753  1.0000
  C   C28       1.0  0.13502  0.64196  0.36193  1.0000
  C   C29       1.0  0.16007000000000005  0.7325900000000002  0.3048  1.0000
  C   C30       1.0  0.10605  0.78346  0.30764  1.0000
  C   C31       1.0  0.50698  0.86501  0.36188  1.0000
  C   C32       1.0  0.57264  0.84004  0.30481999999999987  1.0000
  C   C33       1.0  0.67757  0.8940500000000002  0.30768  1.0000
  C   C34       1.0  0.35804  0.4930900000000001  0.36186  1.0000
  C   C35       1.0  0.26733000000000007  0.42742000000000013  0.30481  1.0000
  C   C36       1.0  0.21646  0.3225  0.3075999999999999  1.0000
  C   C37       1.0  0.64194  0.13473000000000002  0.86195  1.0000
  C   C38       1.0  0.73261  0.15991  0.80479  1.0000
  C   C39       1.0  0.78359  0.10592  0.8074899999999998  1.0000
  C   C40       1.0  0.86543  0.50732  0.86194  1.0000
  C   C41       1.0  0.84024  0.57282  0.8048299999999998  1.0000
  C   C42       1.0  0.89423  0.67783  0.80754  1.0000
  C   C43       1.0  0.49281  0.358  0.8619199999999998  1.0000
  C   C44       1.0  0.42726  0.26731  0.80479  1.0000
  C   C45       1.0  0.32226  0.21636000000000005  0.80746  1.0000
  C   C46       1.0  0.35807  0.86529  0.86198  1.0000
  C   C47       1.0  0.2674  0.84005  0.80482  1.0000
  C   C48       1.0  0.21648000000000012  0.8940700000000003  0.80753  1.0000
  C   C49       1.0  0.13462000000000005  0.49264000000000013  0.8619199999999998  1.0000
  C   C50       1.0  0.15979000000000004  0.4271600000000001  0.80481  1.0000
  C   C51       1.0  0.10582000000000004  0.3222  0.80751  1.0000
  C   C52       1.0  0.5072600000000003  0.6419500000000002  0.8619199999999998  1.0000
  C   C53       1.0  0.57276  0.73265  0.8048  1.0000
  C   C54       1.0  0.6777400000000001  0.7835800000000003  0.8074899999999998  1.0000
  C   C55       1.0  0.13501000000000005  0.64194  0.63812  1.0000
  C   C56       1.0  0.16003000000000012  0.7325800000000002  0.6952399999999997  1.0000
  C   C57       1.0  0.10607  0.7835  0.69241  1.0000
  C   C58       1.0  0.50699  0.86499  0.6380699999999999  1.0000
  C   C59       1.0  0.5726100000000001  0.84004  0.69521  1.0000
  C   C60       1.0  0.6775300000000001  0.8940500000000002  0.6923299999999998  1.0000
  C   C61       1.0  0.35801  0.49306  0.63813  1.0000
  C   C62       1.0  0.26731  0.42738  0.69519  1.0000
  C   C63       1.0  0.21646000000000004  0.3224700000000001  0.69237  1.0000
  C   C64       1.0  0.86498  0.3580700000000001  0.63815  1.0000
  C   C65       1.0  0.83995  0.26739  0.69521  1.0000
  C   C66       1.0  0.8939400000000002  0.21649  0.69236  1.0000
  C   C67       1.0  0.49303  0.13494  0.6381  1.0000
  C   C68       1.0  0.42737  0.15992  0.6952  1.0000
  C   C69       1.0  0.3224200000000001  0.10593  0.6923299999999998  1.0000
  C   C70       1.0  0.64202  0.50687  0.63809  1.0000
  C   C71       1.0  0.7326300000000001  0.57255  0.69529  1.0000
  C   C72       1.0  0.78358  0.6775  0.6924599999999997  1.0000
  C   C73       1.0  0.13481999999999997  0.86508  0.25012  1.0000
  C   C74       1.0  0.13484  0.26972  0.25003  1.0000
  C   C75       1.0  0.73033  0.8652000000000002  0.25017  1.0000
  C   C76       1.0  0.86518  0.13492000000000004  0.25014  1.0000
  C   C77       1.0  0.8652100000000005  0.7303400000000002  0.25001  1.0000
  C   C78       1.0  0.26966  0.13477000000000003  0.25017  1.0000
  C   C79       1.0  0.86518  0.13486  0.74988  1.0000
  C   C80       1.0  0.86522  0.73041  0.74996  1.0000
  C   C81       1.0  0.26963  0.13476  0.74984  1.0000
  C   C82       1.0  0.13490000000000013  0.8651500000000002  0.7499199999999998  1.0000
  C   C83       1.0  0.13487  0.26966  0.7499299999999999  1.0000
  C   C84       1.0  0.73028  0.8651900000000002  0.74985  1.0000
  N   N1        1.0  0.23876000000000006  0.7612300000000001  0.24987  1.0000
  N   N2        1.0  0.2387  0.47748  0.24991999999999998  1.0000
  N   N3        1.0  0.52255  0.76131  0.24990999999999994  1.0000
  N   N4        1.0  0.76125  0.23876000000000006  0.24989  1.0000
  N   N5        1.0  0.76132  0.52252  0.24986  1.0000
  N   N6        1.0  0.47747  0.23864000000000002  0.24989  1.0000
  N   N7        1.0  0.76124  0.23875  0.75009  1.0000
  N   N8        1.0  0.76132  0.52252  0.7501599999999998  1.0000
  N   N9        1.0  0.47747  0.23864000000000002  0.75012  1.0000
  N   N10       1.0  0.2387500000000001  0.7611900000000001  0.75012  1.0000
  N   N11       1.0  0.23867000000000005  0.4774100000000001  0.75009  1.0000
  N   N12       1.0  0.52253  0.7613  0.75013  1.0000
  O   O1        1.0  0.3944300000000001  0.8076700000000002  0.14218  1.0000
  O   O2        1.0  0.38959  0.94434  0.08999999999999997  1.0000
  O   O3        1.0  0.1925  0.58683  0.1422  1.0000
  O   O4        1.0  0.05572000000000006  0.4453000000000001  0.08996  1.0000
  O   O5        1.0  0.41314  0.60569  0.14225  1.0000
  O   O6        1.0  0.55462  0.61042  0.09001  1.0000
  O   O7        1.0  0.60569  0.19249  0.14219  1.0000
  O   O8        1.0  0.61032  0.05574000000000001  0.08995  1.0000
  O   O9        1.0  0.80759  0.41321  0.14221  1.0000
  O   O10       1.0  0.94439  0.5546700000000001  0.08991  1.0000
  O   O11       1.0  0.58691  0.39427  0.14221999999999999  1.0000
  O   O12       1.0  0.4455  0.38964  0.08999  1.0000
  O   O13       1.0  0.80712  0.39414  0.3575399999999999  1.0000
  O   O14       1.0  0.9443200000000003  0.3900700000000001  0.40973  1.0000
  O   O15       1.0  0.58706  0.19296000000000002  0.35749  1.0000
  O   O16       1.0  0.4458  0.05561  0.40973  1.0000
  O   O17       1.0  0.60608  0.41292  0.35755  1.0000
  O   O18       1.0  0.60989  0.55408  0.4097  1.0000
  O   O19       1.0  0.19294000000000003  0.6059  0.35759999999999986  1.0000
  O   O20       1.0  0.05567000000000012  0.6099300000000002  0.40971  1.0000
  O   O21       1.0  0.4129700000000001  0.8070000000000003  0.3574699999999999  1.0000
  O   O22       1.0  0.5542  0.9443  0.40976  1.0000
  O   O23       1.0  0.3940100000000001  0.5870800000000002  0.35745  1.0000
  O   O24       1.0  0.39014000000000004  0.4458900000000001  0.40966999999999987  1.0000
  O   O25       1.0  0.60561  0.19246000000000005  0.85783  1.0000
  O   O26       1.0  0.61037  0.05578000000000002  0.91004  1.0000
  O   O27       1.0  0.80756  0.41322000000000003  0.8578  1.0000
  O   O28       1.0  0.9443700000000002  0.5546800000000001  0.91008  1.0000
  O   O29       1.0  0.58689  0.39427  0.85778  1.0000
  O   O30       1.0  0.44547  0.38960000000000006  0.9100199999999998  1.0000
  O   O31       1.0  0.39448  0.80763  0.8578899999999999  1.0000
  O   O32       1.0  0.38952  0.9443  0.90999  1.0000
  O   O33       1.0  0.19249000000000008  0.5867500000000001  0.8577599999999999  1.0000
  O   O34       1.0  0.05567000000000003  0.4453000000000001  0.9100299999999999  1.0000
  O   O35       1.0  0.41318000000000005  0.6056700000000003  0.8577599999999999  1.0000
  O   O36       1.0  0.55462  0.61038  0.9100099999999998  1.0000
  O   O37       1.0  0.19294000000000003  0.60591  0.6424599999999998  1.0000
  O   O38       1.0  0.05572000000000017  0.6099200000000002  0.59028  1.0000
  O   O39       1.0  0.41298  0.80693  0.64239  1.0000
  O   O40       1.0  0.5542700000000002  0.94437  0.59029  1.0000
  O   O41       1.0  0.39400999999999997  0.58705  0.64264  1.0000
  O   O42       1.0  0.3901000000000002  0.44590000000000013  0.59026  1.0000
  O   O43       1.0  0.80709  0.39415  0.6425  1.0000
  O   O44       1.0  0.94428  0.3900600000000001  0.59031  1.0000
  O   O45       1.0  0.58703  0.19296000000000002  0.6425  1.0000
  O   O46       1.0  0.44578  0.05562000000000002  0.59025  1.0000
  O   O47       1.0  0.60603  0.4128800000000001  0.6424  1.0000
  O   O48       1.0  0.60992  0.55411  0.5903199999999997  1.0000
