data_image0
_chemical_formula_structural       Ni6H52C60N24O28
_chemical_formula_sum              "Ni6 H52 C60 N24 O28"
_cell_length_a       13.83945
_cell_length_b       13.686759999999998
_cell_length_c       17.639319999999998
_cell_angle_alpha    110.85246
_cell_angle_beta     89.99864
_cell_angle_gamma    89.99907

_space_group_name_H-M_alt    "P 1"
_space_group_IT_number       1

loop_
  _space_group_symop_operation_xyz
  'x, y, z'

loop_
  _atom_site_type_symbol
  _atom_site_label
  _atom_site_symmetry_multiplicity
  _atom_site_fract_x
  _atom_site_fract_y
  _atom_site_fract_z
  _atom_site_occupancy
  Ni  Ni1       1.0  0.016329999999999997  0.73617  0.92257  1.0000
  Ni  Ni2       1.0  0.5162899999999999  0.26399999999999996  0.5775299999999999  1.0000
  Ni  Ni3       1.0  0.9837599999999997  0.26418  0.07759  1.0000
  Ni  Ni4       1.0  0.4836899999999999  0.73597  0.42251  1.0000
  Ni  Ni5       1.0  0.00107  0.00153  0.0013  1.0000
  Ni  Ni6       1.0  0.5001299999999999  0.99942  0.49969  1.0000
  H   H1        1.0  0.13933999999999996  0.86186  0.01033  1.0000
  H   H2        1.0  0.13507  0.8652599999999999  0.9109899999999997  1.0000
  H   H3        1.0  0.8864999999999997  0.6857499999999999  0.06618999999999997  1.0000
  H   H4        1.0  0.8563999999999998  0.01795  0.16465  1.0000
  H   H5        1.0  0.8267299999999999  0.90439  0.2643  1.0000
  H   H6        1.0  0.8156599999999999  0.76717  0.21576999999999993  1.0000
  H   H7        1.0  0.6629799999999999  0.7917  0.14684  1.0000
  H   H8        1.0  0.6777899999999999  0.92929  0.18804  1.0000
  H   H9        1.0  0.6406599999999998  0.027339999999999937  0.3471499999999999  1.0000
  H   H10       1.0  0.6026899999999997  0.69649  0.24742999999999998  1.0000
  H   H11       1.0  0.10187999999999998  0.53551  0.04724  1.0000
  H   H12       1.0  0.28257999999999994  0.52542  0.24296999999999996  1.0000
  H   H13       1.0  0.26358  0.80712  0.18759  1.0000
  H   H14       1.0  0.6391  0.1382599999999999  0.48977999999999994  1.0000
  H   H15       1.0  0.6350599999999997  0.13504  0.58917  1.0000
  H   H16       1.0  0.3866799999999999  0.31463  0.43361  1.0000
  H   H17       1.0  0.35642  0.98241  0.33601  1.0000
  H   H18       1.0  0.3268  0.09547999999999998  0.23592999999999995  1.0000
  H   H19       1.0  0.31585999999999986  0.23275999999999997  0.2842  1.0000
  H   H20       1.0  0.16349  0.20851999999999993  0.35381999999999997  1.0000
  H   H21       1.0  0.17802  0.07088999999999997  0.31229999999999997  1.0000
  H   H22       1.0  0.14087  0.9733099999999999  0.1533  1.0000
  H   H23       1.0  0.10298999999999998  0.3041799999999999  0.25342  1.0000
  H   H24       1.0  0.60181  0.46455  0.45281  1.0000
  H   H25       1.0  0.7825399999999998  0.47468999999999995  0.2570999999999999  1.0000
  H   H26       1.0  0.7635599999999999  0.19297  0.31247  1.0000
  H   H27       1.0  0.86113  0.13844000000000004  0.98979  1.0000
  H   H28       1.0  0.8649  0.13541  0.08937  1.0000
  H   H29       1.0  0.11344999999999997  0.31495  0.93324  1.0000
  H   H30       1.0  0.14381  0.9826699999999997  0.8366799999999999  1.0000
  H   H31       1.0  0.17294  0.0952299999999998  0.7359599999999997  1.0000
  H   H32       1.0  0.18417999999999998  0.23254  0.78401  1.0000
  H   H33       1.0  0.33686  0.20824  0.85312  1.0000
  H   H34       1.0  0.32215999999999995  0.07063999999999997  0.81194  1.0000
  H   H35       1.0  0.35923  0.9725999999999998  0.6527799999999998  1.0000
  H   H36       1.0  0.3972599999999999  0.3034199999999999  0.7525799999999998  1.0000
  H   H37       1.0  0.8981599999999997  0.46453999999999984  0.9527799999999997  1.0000
  H   H38       1.0  0.7174699999999999  0.4746099999999999  0.75703  1.0000
  H   H39       1.0  0.73642  0.19294  0.81246  1.0000
  H   H40       1.0  0.3608499999999999  0.8616699999999998  0.51029  1.0000
  H   H41       1.0  0.3648699999999999  0.86487  0.41077  1.0000
  H   H42       1.0  0.61362  0.68543  0.56657  1.0000
  H   H43       1.0  0.6438099999999998  0.017689999999999997  0.66397  1.0000
  H   H44       1.0  0.6729999999999998  0.90464  0.76425  1.0000
  H   H45       1.0  0.6843799999999998  0.76739  0.71595  1.0000
  H   H46       1.0  0.8373499999999998  0.7919599999999996  0.6474899999999998  1.0000
  H   H47       1.0  0.8223599999999998  0.92952  0.6883599999999997  1.0000
  H   H48       1.0  0.8593699999999997  0.028010000000000004  0.84761  1.0000
  H   H49       1.0  0.89756  0.6972099999999998  0.7482199999999998  1.0000
  H   H50       1.0  0.3980999999999999  0.53552  0.54727  1.0000
  H   H51       1.0  0.21742999999999996  0.52551  0.74305  1.0000
  H   H52       1.0  0.23641  0.80716  0.6876099999999999  1.0000
  C   C1        1.0  0.8905  0.7680699999999999  0.07475999999999997  1.0000
  C   C2        1.0  0.87626  0.9387  0.12604  1.0000
  C   C3        1.0  0.80024  0.84256  0.20945  1.0000
  C   C4        1.0  0.69126  0.85639  0.19896999999999995  1.0000
  C   C5        1.0  0.6180899999999998  0.94758  0.3380299999999999  1.0000
  C   C6        1.0  0.59838  0.77745  0.28702  1.0000
  C   C7        1.0  0.18412  0.67487  0.10869999999999998  1.0000
  C   C8        1.0  0.15332999999999997  0.57254  0.09551  1.0000
  C   C9        1.0  0.18764999999999996  0.5188  0.14429  1.0000
  C   C10       1.0  0.25349  0.56796  0.20646999999999993  1.0000
  C   C11       1.0  0.27844  0.67307  0.22412999999999994  1.0000
  C   C12       1.0  0.24383999999999995  0.72605  0.17491  1.0000
  C   C13       1.0  0.15067  0.72975  0.05385  1.0000
  C   C14       1.0  0.15107999999999994  0.41041999999999984  0.13336999999999993  1.0000
  C   C15       1.0  0.3379899999999999  0.7300299999999998  0.29727  1.0000
  C   C16       1.0  0.39056999999999986  0.23239999999999994  0.42538  1.0000
  C   C17       1.0  0.3761699999999999  0.06173999999999999  0.37451  1.0000
  C   C18       1.0  0.30044  0.15748999999999994  0.2907299999999999  1.0000
  C   C19       1.0  0.19151999999999994  0.14389  0.30152  1.0000
  C   C20       1.0  0.11834999999999997  0.05312999999999999  0.16255  1.0000
  C   C21       1.0  0.09857999999999997  0.22326  0.21373  1.0000
  C   C22       1.0  0.68409  0.32522  0.39136  1.0000
  C   C23       1.0  0.6532799999999997  0.42756  0.40455  1.0000
  C   C24       1.0  0.6876199999999998  0.48131  0.35578  1.0000
  C   C25       1.0  0.75345  0.43214  0.2936  1.0000
  C   C26       1.0  0.7784  0.32702  0.2759099999999999  1.0000
  C   C27       1.0  0.74381  0.2740399999999999  0.3251399999999999  1.0000
  C   C28       1.0  0.6506399999999999  0.2703499999999999  0.4462099999999999  1.0000
  C   C29       1.0  0.65107  0.58969  0.36669  1.0000
  C   C30       1.0  0.8379399999999998  0.27011  0.20275  1.0000
  C   C31       1.0  0.10971999999999997  0.23282  0.92536  1.0000
  C   C32       1.0  0.12426999999999998  0.06214000000000001  0.87504  1.0000
  C   C33       1.0  0.19959999999999994  0.1572999999999999  0.7905899999999998  1.0000
  C   C34       1.0  0.30862  0.14351999999999995  0.80099  1.0000
  C   C35       1.0  0.38179999999999986  0.05234999999999993  0.6618999999999999  1.0000
  C   C36       1.0  0.4015299999999999  0.22245999999999988  0.7129399999999998  1.0000
  C   C37       1.0  0.8159299999999998  0.32520999999999983  0.8913199999999998  1.0000
  C   C38       1.0  0.8467299999999998  0.4275399999999999  0.9044999999999997  1.0000
  C   C39       1.0  0.8123899999999997  0.48129  0.85572  1.0000
  C   C40       1.0  0.7465799999999998  0.43207  0.79353  1.0000
  C   C41       1.0  0.7216199999999998  0.32695  0.77587  1.0000
  C   C42       1.0  0.7562  0.274  0.82511  1.0000
  C   C43       1.0  0.8493699999999997  0.2704099999999999  0.9462199999999997  1.0000
  C   C44       1.0  0.84883  0.5897399999999999  0.86669  1.0000
  C   C45       1.0  0.66203  0.27  0.7027399999999998  1.0000
  C   C46       1.0  0.6097799999999999  0.76764  0.57478  1.0000
  C   C47       1.0  0.6241399999999998  0.9383  0.6255099999999999  1.0000
  C   C48       1.0  0.6998  0.84275  0.70957  1.0000
  C   C49       1.0  0.8088499999999997  0.85674  0.69945  1.0000
  C   C50       1.0  0.8819999999999998  0.94831  0.8386399999999998  1.0000
  C   C51       1.0  0.9017099999999999  0.77821  0.78775  1.0000
  C   C52       1.0  0.3159  0.6748899999999999  0.6087299999999998  1.0000
  C   C53       1.0  0.34668  0.5725499999999998  0.5955499999999998  1.0000
  C   C54       1.0  0.3123499999999999  0.51882  0.64435  1.0000
  C   C55       1.0  0.24653999999999998  0.5680399999999999  0.7065399999999997  1.0000
  C   C56       1.0  0.22156999999999996  0.67315  0.72418  1.0000
  C   C57       1.0  0.2561699999999999  0.7261  0.67494  1.0000
  C   C58       1.0  0.34935  0.7296899999999996  0.5538399999999998  1.0000
  C   C59       1.0  0.3488399999999999  0.41038  0.63336  1.0000
  C   C60       1.0  0.16196999999999995  0.7301499999999997  0.7973  1.0000
  N   N1        1.0  0.9331499999999998  0.8068899999999998  0.024849999999999994  1.0000
  N   N2        1.0  0.9245699999999998  0.91386  0.05706  1.0000
  N   N3        1.0  0.85389  0.84875  0.13974  1.0000
  N   N4        1.0  0.6373399999999998  0.86031  0.27115  1.0000
  N   N5        1.0  0.56864  0.9187  0.39068  1.0000
  N   N6        1.0  0.5565199999999999  0.81213  0.35864  1.0000
  N   N7        1.0  0.43286  0.19380999999999995  0.4755899999999999  1.0000
  N   N8        1.0  0.4241499999999999  0.08684999999999997  0.4436499999999999  1.0000
  N   N9        1.0  0.35413  0.15152999999999997  0.3604599999999999  1.0000
  N   N10       1.0  0.13743999999999998  0.14029  0.22952  1.0000
  N   N11       1.0  0.06901999999999997  0.08216999999999997  0.10994999999999998  1.0000
  N   N12       1.0  0.0568  0.18871  0.14206  1.0000
  N   N13       1.0  0.06760999999999999  0.19458999999999999  0.9758699999999999  1.0000
  N   N14       1.0  0.07645999999999997  0.08767000000000004  0.94429  1.0000
  N   N15       1.0  0.14616999999999994  0.15170999999999996  0.8606  1.0000
  N   N16       1.0  0.3625099999999999  0.13960999999999998  0.72879  1.0000
  N   N17       1.0  0.43131999999999987  0.08115999999999987  0.6092499999999997  1.0000
  N   N18       1.0  0.44344999999999996  0.18776  0.64133  1.0000
  N   N19       1.0  0.5673  0.80611  0.52458  1.0000
  N   N20       1.0  0.576  0.91305  0.55642  1.0000
  N   N21       1.0  0.6463899999999998  0.8485699999999999  0.6395999999999997  1.0000
  N   N22       1.0  0.8625899999999999  0.8609499999999999  0.7718199999999998  1.0000
  N   N23       1.0  0.9316299999999997  0.91968  0.89134  1.0000
  N   N24       1.0  0.9436799999999997  0.81305  0.8593199999999998  1.0000
  O   O1        1.0  0.09921999999999997  0.88107  0.96629  1.0000
  O   O2        1.0  0.09995999999999997  0.6768399999999998  0.9929699999999999  1.0000
  O   O3        1.0  0.17524999999999996  0.82646  0.0721  1.0000
  O   O4        1.0  0.06331  0.3949  0.10579  1.0000
  O   O5        1.0  0.20459  0.34875  0.15214  1.0000
  O   O6        1.0  0.39072  0.67539  0.32601  1.0000
  O   O7        1.0  0.32992  0.8304099999999998  0.32681  1.0000
  O   O8        1.0  0.59903  0.11921999999999995  0.53391  1.0000
  O   O9        1.0  0.59992  0.3232499999999999  0.50708  1.0000
  O   O10       1.0  0.6752199999999998  0.17364999999999994  0.4279699999999999  1.0000
  O   O11       1.0  0.5633199999999999  0.6052699999999998  0.3943  1.0000
  O   O12       1.0  0.70458  0.65132  0.3478499999999999  1.0000
  O   O13       1.0  0.8906599999999998  0.3247499999999999  0.17402999999999993  1.0000
  O   O14       1.0  0.82988  0.16972  0.17318  1.0000
  O   O15       1.0  0.9011699999999998  0.11974  0.034149999999999986  1.0000
  O   O16       1.0  0.9000999999999998  0.32332  0.00708  1.0000
  O   O17       1.0  0.8248199999999999  0.17371000000000006  0.92805  1.0000
  O   O18       1.0  0.9365399999999998  0.60545  0.8943999999999998  1.0000
  O   O19       1.0  0.7953099999999997  0.65132  0.84784  1.0000
  O   O20       1.0  0.60929  0.32462999999999986  0.6740099999999998  1.0000
  O   O21       1.0  0.67009  0.16961999999999997  0.67321  1.0000
  O   O22       1.0  0.4009099999999999  0.8806  0.46604  1.0000
  O   O23       1.0  0.40005999999999997  0.67677  0.49296999999999996  1.0000
  O   O24       1.0  0.32478  0.8264  0.57203  1.0000
  O   O25       1.0  0.43657  0.3947399999999998  0.6057099999999997  1.0000
  O   O26       1.0  0.29531  0.34873  0.65214  1.0000
  O   O27       1.0  0.10923  0.67551  0.82603  1.0000
  O   O28       1.0  0.17002999999999996  0.8305199999999999  0.8267899999999998  1.0000
