data_image0
_chemical_formula_structural       Cd6H72C96N18O12F2
_chemical_formula_sum              "Cd6 H72 C96 N18 O12 F2"
_cell_length_a       12.89527
_cell_length_b       12.9453
_cell_length_c       22.99889
_cell_angle_alpha    100.81929
_cell_angle_beta     89.99631
_cell_angle_gamma    119.81587999999999

_symmetry_space_group_name_H-M    'P 1'
_symmetry_Int_Tables_number       1

loop_
  _symmetry_equiv_pos_as_xyz
  'x,y,z'

loop_
  _atom_site_type_symbol
  _atom_site_label
  _atom_site_symmetry_multiplicity
  _atom_site_fract_x
  _atom_site_fract_y
  _atom_site_fract_z
  _atom_site_occupancy
  Cd  Cd1       1.0  0.2295300000000001  0.81277  0.73026  1.0000
  Cd  Cd2       1.0  0.41698999999999997  0.18725999999999993  0.7700399999999997  1.0000
  Cd  Cd3       1.0  0.77038  0.18724000000000002  0.26978  1.0000
  Cd  Cd4       1.0  0.5829899999999999  0.8128  0.22992  1.0000
  Cd  Cd5       1.0  0.5862  0.99975  0.7498  1.0000
  Cd  Cd6       1.0  0.41366  0.0001699999999999963  0.25021  1.0000
  H   H1        1.0  0.5777100000000001  0.6793700000000001  0.80452  1.0000
  H   H2        1.0  0.57163  0.48551000000000005  0.81643  1.0000
  H   H3        1.0  0.24778  0.26959  0.71071  1.0000
  H   H4        1.0  0.23690000000000003  0.45388000000000006  0.69713  1.0000
  H   H5        1.0  0.88443  0.80766  0.71571  1.0000
  H   H6        1.0  0.6911900000000001  0.81331  0.71863  1.0000
  H   H7        1.0  0.50396  0.7713  0.64023  1.0000
  H   H8        1.0  0.50709  0.7217499999999999  0.5312899999999999  1.0000
  H   H9        1.0  0.6438200000000001  0.10395999999999997  0.53336  1.0000
  H   H10       1.0  0.63017  0.13504  0.64171  1.0000
  H   H11       1.0  0.44821999999999995  0.69112  0.4383399999999999  1.0000
  H   H12       1.0  0.46101  0.66206  0.32978999999999997  1.0000
  H   H13       1.0  0.72874  0.023390000000000015  0.34569  1.0000
  H   H14       1.0  0.7255600000000001  0.07047000000000002  0.45386999999999994  1.0000
  H   H15       1.0  0.30503  0.68889  0.6130299999999999  1.0000
  H   H16       1.0  0.19759000000000004  0.53225  0.523  1.0000
  H   H17       1.0  0.9096  0.61456  0.54432  1.0000
  H   H18       1.0  0.032610000000000076  0.7705400000000001  0.6327999999999999  1.0000
  H   H19       1.0  0.8977300000000001  0.32052  0.69529  1.0000
  H   H20       1.0  0.08572999999999999  0.51434  0.68369  1.0000
  H   H21       1.0  0.97735  0.73027  0.78934  1.0000
  H   H22       1.0  0.78212  0.54594  0.8027799999999999  1.0000
  H   H23       1.0  0.07568000000000001  0.19514000000000004  0.78453  1.0000
  H   H24       1.0  0.87533  0.18625999999999998  0.78098  1.0000
  H   H25       1.0  0.73355  0.22910999999999992  0.8596399999999997  1.0000
  H   H26       1.0  0.7862  0.27835  0.9684999999999999  1.0000
  H   H27       1.0  0.5399700000000001  0.8964400000000001  0.9664699999999999  1.0000
  H   H28       1.0  0.49538000000000004  0.8653500000000001  0.85812  1.0000
  H   H29       1.0  0.7573000000000001  0.3092500000000001  0.061449999999999984  1.0000
  H   H30       1.0  0.7996900000000001  0.33857  0.16995999999999997  1.0000
  H   H31       1.0  0.707  0.97742  0.15408  1.0000
  H   H32       1.0  0.65614  0.9301200000000001  0.04597  1.0000
  H   H33       1.0  0.6156  0.3104299999999999  0.8872299999999997  1.0000
  H   H34       1.0  0.66497  0.4679499999999999  0.9770499999999999  1.0000
  H   H35       1.0  0.29491000000000006  0.38606  0.9557199999999999  1.0000
  H   H36       1.0  0.26172999999999996  0.22964999999999994  0.8673499999999997  1.0000
  H   H37       1.0  0.42205  0.32057  0.19549  1.0000
  H   H38       1.0  0.42838  0.51451  0.18350999999999998  1.0000
  H   H39       1.0  0.75213  0.73031  0.28926  1.0000
  H   H40       1.0  0.76293  0.54596  0.30287  1.0000
  H   H41       1.0  0.11552  0.19237  0.2843  1.0000
  H   H42       1.0  0.30872000000000005  0.18668  0.28135999999999994  1.0000
  H   H43       1.0  0.49596  0.22858  0.35976  1.0000
  H   H44       1.0  0.49288000000000004  0.27823000000000003  0.46869999999999995  1.0000
  H   H45       1.0  0.3560400000000001  0.8960100000000001  0.46667  1.0000
  H   H46       1.0  0.36966  0.8649  0.35831  1.0000
  H   H47       1.0  0.55184  0.30885  0.56164  1.0000
  H   H48       1.0  0.5391200000000002  0.3379400000000001  0.6702  1.0000
  H   H49       1.0  0.27123000000000014  0.9766900000000002  0.65434  1.0000
  H   H50       1.0  0.27447  0.9295100000000001  0.54616  1.0000
  H   H51       1.0  0.69497  0.31115  0.38696  1.0000
  H   H52       1.0  0.80238  0.4678100000000001  0.4769699999999999  1.0000
  H   H53       1.0  0.09036000000000004  0.38553  0.45572  1.0000
  H   H54       1.0  0.9673900000000001  0.22952000000000003  0.36725  1.0000
  H   H55       1.0  0.10250999999999995  0.67965  0.3047  1.0000
  H   H56       1.0  0.9144400000000003  0.48588  0.31632999999999994  1.0000
  H   H57       1.0  0.02263  0.2698  0.21065  1.0000
  H   H58       1.0  0.21797000000000002  0.45418000000000003  0.19723  1.0000
  H   H59       1.0  0.92429  0.80478  0.2155  1.0000
  H   H60       1.0  0.12468999999999998  0.81379  0.21902  1.0000
  H   H61       1.0  0.26639  0.77092  0.14041  1.0000
  H   H62       1.0  0.21372999999999995  0.72171  0.03153  1.0000
  H   H63       1.0  0.46011  0.10362000000000003  0.03352999999999999  1.0000
  H   H64       1.0  0.50471  0.13478  0.14189999999999997  1.0000
  H   H65       1.0  0.24266000000000004  0.6907  0.93857  1.0000
  H   H66       1.0  0.20011000000000007  0.6613200000000001  0.8300499999999998  1.0000
  H   H67       1.0  0.29313000000000006  0.022750000000000062  0.84593  1.0000
  H   H68       1.0  0.34396  0.06995999999999987  0.9540799999999998  1.0000
  H   H69       1.0  0.38435  0.68966  0.11271  1.0000
  H   H70       1.0  0.33498  0.53213  0.022899999999999997  1.0000
  H   H71       1.0  0.7050300000000002  0.6139800000000001  0.0443  1.0000
  H   H72       1.0  0.7381900000000001  0.7704400000000001  0.13260999999999998  1.0000
  C   C1        1.0  0.40719  0.6931200000000001  0.7413499999999998  1.0000
  C   C2        1.0  0.40736  0.58007  0.74976  1.0000
  C   C3        1.0  0.50304  0.58971  0.78374  1.0000
  C   C4        1.0  0.50006  0.48347  0.79023  1.0000
  C   C5        1.0  0.3180299999999999  0.3621799999999999  0.7310399999999998  1.0000
  C   C6        1.0  0.31248999999999993  0.4635899999999999  0.7234699999999998  1.0000
  C   C7        1.0  0.88514  0.89283  0.7309199999999998  1.0000
  C   C8        1.0  0.77862  0.89569  0.7319  1.0000
  C   C9        1.0  0.5324099999999999  0.8415499999999998  0.6144199999999999  1.0000
  C   C10       1.0  0.53419  0.81478  0.55342  1.0000
  C   C11       1.0  0.5769  0.90863  0.52097  1.0000
  C   C12       1.0  0.6132099999999999  0.027119999999999932  0.5547999999999998  1.0000
  C   C13       1.0  0.60517  0.04541999999999998  0.61542  1.0000
  C   C14       1.0  0.5841400000000001  0.8853100000000002  0.4572699999999999  1.0000
  C   C15       1.0  0.51247  0.7675300000000003  0.42004999999999987  1.0000
  C   C16       1.0  0.5183  0.75057  0.35928999999999994  1.0000
  C   C17       1.0  0.6667800000000002  0.9529599999999999  0.36784999999999995  1.0000
  C   C18       1.0  0.66444  0.9783900000000001  0.4287099999999999  1.0000
  C   C19       1.0  0.21711  0.66936  0.59618  1.0000
  C   C20       1.0  0.15451  0.57988  0.54571  1.0000
  C   C21       1.0  0.03642000000000005  0.54969  0.5248099999999999  1.0000
  C   C22       1.0  0.9962299999999998  0.62589  0.55745  1.0000
  C   C23       1.0  0.06485000000000014  0.7146800000000002  0.60708  1.0000
  C   C24       1.0  0.71263  0.30667999999999995  0.75757  1.0000
  C   C25       1.0  0.82642  0.41989  0.74994  1.0000
  C   C26       1.0  0.91265  0.41018  0.7161  1.0000
  C   C27       1.0  0.016029999999999996  0.51633  0.7097999999999999  1.0000
  C   C28       1.0  0.9550600000000001  0.63768  0.7689399999999998  1.0000
  C   C29       1.0  0.8481  0.53636  0.7764299999999998  1.0000
  C   C30       1.0  0.99202  0.10935000000000002  0.76911  1.0000
  C   C31       1.0  0.8817199999999998  0.10455999999999996  0.7679199999999999  1.0000
  C   C32       1.0  0.69164  0.15872  0.88537  1.0000
  C   C33       1.0  0.7201200000000002  0.18542000000000003  0.94636  1.0000
  C   C34       1.0  0.66871  0.09158999999999998  0.97882  1.0000
  C   C35       1.0  0.58635  0.9731699999999999  0.9449899999999999  1.0000
  C   C36       1.0  0.5602400000000001  0.9549399999999999  0.8843499999999997  1.0000
  C   C37       1.0  0.6992800000000002  0.11506  0.04252  1.0000
  C   C38       1.0  0.74549  0.23291  0.07971999999999999  1.0000
  C   C39       1.0  0.76871  0.25009  0.14046  1.0000
  C   C40       1.0  0.7154  0.04784  0.13193  1.0000
  C   C41       1.0  0.6870600000000001  0.02221  0.07111  1.0000
  C   C42       1.0  0.54718  0.33002999999999993  0.90404  1.0000
  C   C43       1.0  0.57425  0.41977999999999993  0.9543999999999999  1.0000
  C   C44       1.0  0.4865500000000001  0.45026  0.9752199999999999  1.0000
  C   C45       1.0  0.37008  0.37430000000000013  0.94273  1.0000
  C   C46       1.0  0.3496999999999999  0.28515999999999997  0.89318  1.0000
  C   C47       1.0  0.5928900000000001  0.30689000000000005  0.25862999999999997  1.0000
  C   C48       1.0  0.59242  0.41984  0.25032  1.0000
  C   C49       1.0  0.49679  0.4102  0.21627  1.0000
  C   C50       1.0  0.49988000000000005  0.51648  0.20973999999999995  1.0000
  C   C51       1.0  0.6819  0.63773  0.26893  1.0000
  C   C52       1.0  0.68736  0.5363  0.27654  1.0000
  C   C53       1.0  0.11475999999999999  0.10715999999999999  0.26908999999999994  1.0000
  C   C54       1.0  0.22129000000000001  0.10431  0.26809  1.0000
  C   C55       1.0  0.46757  0.1584  0.38561  1.0000
  C   C56       1.0  0.46575  0.18517000000000003  0.4466  1.0000
  C   C57       1.0  0.42301  0.09128999999999997  0.4790399999999999  1.0000
  C   C58       1.0  0.38671  0.97281  0.4452  1.0000
  C   C59       1.0  0.39477999999999996  0.9545399999999999  0.38458  1.0000
  C   C60       1.0  0.41589  0.11461999999999996  0.54274  1.0000
  C   C61       1.0  0.48754  0.23244999999999993  0.5799299999999998  1.0000
  C   C62       1.0  0.48172  0.24947999999999995  0.6406799999999999  1.0000
  C   C63       1.0  0.33315999999999996  0.047109999999999944  0.6321699999999999  1.0000
  C   C64       1.0  0.33554  0.021609999999999942  0.5713199999999999  1.0000
  C   C65       1.0  0.78286  0.3306  0.4038  1.0000
  C   C66       1.0  0.8454  0.4201  0.45427  1.0000
  C   C67       1.0  0.96353  0.4504500000000001  0.47518  1.0000
  C   C68       1.0  0.0037199999999999313  0.3741799999999999  0.4425999999999999  1.0000
  C   C69       1.0  0.93515  0.28535  0.39297999999999994  1.0000
  C   C70       1.0  0.28740000000000004  0.6933800000000001  0.24228999999999995  1.0000
  C   C71       1.0  0.17371  0.58021  0.25003999999999993  1.0000
  C   C72       1.0  0.08748999999999998  0.58995  0.28387999999999997  1.0000
  C   C73       1.0  0.98409  0.48384000000000005  0.2902  1.0000
  C   C74       1.0  0.044970000000000024  0.36240000000000006  0.23105999999999993  1.0000
  C   C75       1.0  0.15195000000000006  0.46370000000000006  0.22355999999999998  1.0000
  C   C76       1.0  0.007910000000000006  0.89063  0.23088999999999998  1.0000
  C   C77       1.0  0.11822000000000019  0.8954400000000002  0.2321  1.0000
  C   C78       1.0  0.30838  0.84132  0.11466999999999998  1.0000
  C   C79       1.0  0.2798999999999999  0.81462  0.05367999999999999  1.0000
  C   C80       1.0  0.33126000000000017  0.9084700000000001  0.021219999999999996  1.0000
  C   C81       1.0  0.41373  0.02689  0.05503  1.0000
  C   C82       1.0  0.43987  0.045149999999999996  0.11568  1.0000
  C   C83       1.0  0.30073  0.88497  0.9575  1.0000
  C   C84       1.0  0.2545200000000002  0.7670800000000001  0.9202999999999998  1.0000
  C   C85       1.0  0.23118000000000002  0.74986  0.85957  1.0000
  C   C86       1.0  0.2846700000000001  0.9522700000000001  0.8680899999999999  1.0000
  C   C87       1.0  0.31303  0.9778800000000001  0.92891  1.0000
  C   C88       1.0  0.45272  0.67  0.09589999999999997  1.0000
  C   C89       1.0  0.42569  0.58018  0.04558  1.0000
  C   C90       1.0  0.51346  0.54981  0.024769999999999993  1.0000
  C   C91       1.0  0.62988  0.62575  0.0573  1.0000
  C   C92       1.0  0.65019  0.7148900000000001  0.10682999999999998  1.0000
  C   C93       1.0  0.11273  0.002270000000000003  0.74986  1.0000
  C   C94       1.0  0.99489  0.0015599999999999033  0.7499899999999998  1.0000
  C   C95       1.0  0.8872100000000002  0.9977300000000001  0.25015  1.0000
  C   C96       1.0  0.005030000000000019  0.99843  0.2500299999999999  1.0000
  N   N1        1.0  0.4098800000000001  0.37159  0.76396  1.0000
  N   N2        1.0  0.5658000000000002  0.9550300000000002  0.64611  1.0000
  N   N3        1.0  0.59333  0.84136  0.33234  1.0000
  N   N4        1.0  0.1744400000000001  0.73687  0.6286599999999999  1.0000
  N   N5        1.0  0.03762000000000001  0.6282399999999999  0.7361099999999999  1.0000
  N   N6        1.0  0.61152  0.045319999999999916  0.85364  1.0000
  N   N7        1.0  0.75354  0.15949000000000002  0.16743  1.0000
  N   N8        1.0  0.4370100000000001  0.26267  0.8716799999999999  1.0000
  N   N9        1.0  0.5900500000000001  0.6283500000000001  0.23603999999999994  1.0000
  N   N10       1.0  0.43409999999999993  0.04491999999999999  0.3538899999999999  1.0000
  N   N11       1.0  0.40674  0.1587099999999999  0.6676499999999999  1.0000
  N   N12       1.0  0.82563  0.26321  0.37132  1.0000
  N   N13       1.0  0.96244  0.37189  0.26391  1.0000
  N   N14       1.0  0.38842  0.95478  0.14639  1.0000
  N   N15       1.0  0.24642  0.84054  0.83262  1.0000
  N   N16       1.0  0.5628900000000001  0.7374500000000002  0.12827  1.0000
  N   N17       1.0  0.7759800000000002  0.99973  0.7498499999999998  1.0000
  N   N18       1.0  0.22394000000000003  0.0002800000000000009  0.25015  1.0000
  O   O1        1.0  0.508  0.79178  0.7535599999999999  1.0000
  O   O2        1.0  0.30701  0.67795  0.72269  1.0000
  O   O3        1.0  0.10577000000000002  0.90085  0.72852  1.0000
  O   O4        1.0  0.71355  0.20748  0.74351  1.0000
  O   O5        1.0  0.62847  0.32217  0.77735  1.0000
  O   O6        1.0  0.20655  0.10416000000000002  0.77116  1.0000
  O   O7        1.0  0.49218  0.20815  0.24626999999999996  1.0000
  O   O8        1.0  0.69311  0.32216  0.27728  1.0000
  O   O9        1.0  0.89414  0.09913  0.2715  1.0000
  O   O10       1.0  0.28657  0.79263  0.25647  1.0000
  O   O11       1.0  0.37142000000000003  0.6779  0.22228  1.0000
  O   O12       1.0  0.79343  0.8958300000000001  0.22882  1.0000
  F   F1        1.0  0.40720000000000006  0.99987  0.75138  1.0000
  F   F2        1.0  0.5929  0.00016999999999997654  0.24861999999999995  1.0000
