data_image0
_chemical_formula_structural       Cd6H56C96N12O24F16
_chemical_formula_sum              "Cd6 H56 C96 N12 O24 F16"
_cell_length_a       10.8591
_cell_length_b       14.831140000000001
_cell_length_c       18.58433
_cell_angle_alpha    90.13886999999998
_cell_angle_beta     90.04442
_cell_angle_gamma    107.01527

_symmetry_space_group_name_H-M    'P 1'
_symmetry_Int_Tables_number       1

loop_
  _symmetry_equiv_pos_as_xyz
  'x,y,z'

loop_
  _atom_site_type_symbol
  _atom_site_label
  _atom_site_symmetry_multiplicity
  _atom_site_fract_x
  _atom_site_fract_y
  _atom_site_fract_z
  _atom_site_occupancy
  Cd  Cd1       1.0  0.32969  0.33073  0.98979  1.0000
  Cd  Cd2       1.0  0.67029  0.16952  0.48992  1.0000
  Cd  Cd3       1.0  0.67031  0.66928  0.010209999999999997  1.0000
  Cd  Cd4       1.0  0.32971  0.83049  0.5100799999999999  1.0000
  Cd  Cd5       1.0  0.0  0.0  0.0  1.0000
  Cd  Cd6       1.0  0.0  0.5  0.4999999999999999  1.0000
  H   H1        1.0  0.27469  0.04189  0.17687  1.0000
  H   H2        1.0  0.8736999999999999  0.12527  0.8719899999999999  1.0000
  H   H3        1.0  0.46226  0.21501  0.10495999999999997  1.0000
  H   H4        1.0  0.09851000000000001  0.26266  0.79066  1.0000
  H   H5        1.0  0.39319  0.10302  0.68069  1.0000
  H   H6        1.0  0.9016999999999998  0.91335  0.83999  1.0000
  H   H7        1.0  0.1697200000000001  0.93387  0.6297899999999997  1.0000
  H   H8        1.0  0.3610199999999999  0.0594  0.7917499999999997  1.0000
  H   H9        1.0  0.73899  0.18291  0.7809699999999998  1.0000
  H   H10       1.0  0.2655  0.06417  0.9129099999999999  1.0000
  H   H11       1.0  0.61964  0.1618  0.66306  1.0000
  H   H12       1.0  0.38849  0.05432  0.42163  1.0000
  H   H13       1.0  0.70495  0.25188  0.32983  1.0000
  H   H14       1.0  0.95615  0.19312  0.54775  1.0000
  H   H15       1.0  0.72656  0.45993  0.6784699999999998  1.0000
  H   H16       1.0  0.12565  0.37459  0.37185  1.0000
  H   H17       1.0  0.53921  0.28690000000000004  0.60544  1.0000
  H   H18       1.0  0.8994900000000001  0.23929  0.28928  1.0000
  H   H19       1.0  0.60698  0.39925  0.17971  1.0000
  H   H20       1.0  0.09647000000000001  0.58584  0.34174  1.0000
  H   H21       1.0  0.83284  0.56684  0.12992999999999996  1.0000
  H   H22       1.0  0.63781  0.44058  0.29038999999999987  1.0000
  H   H23       1.0  0.2584  0.31563  0.28094  1.0000
  H   H24       1.0  0.7315800000000001  0.43526000000000004  0.41206999999999994  1.0000
  H   H25       1.0  0.37939  0.33702  0.16374999999999998  1.0000
  H   H26       1.0  0.61077  0.44446  0.92294  1.0000
  H   H27       1.0  0.29309  0.25049  0.82785  1.0000
  H   H28       1.0  0.045579999999999996  0.31139  0.04685  1.0000
  H   H29       1.0  0.72531  0.95811  0.82313  1.0000
  H   H30       1.0  0.12629000000000004  0.87473  0.12800999999999998  1.0000
  H   H31       1.0  0.53774  0.78499  0.89504  1.0000
  H   H32       1.0  0.90149  0.73734  0.20934  1.0000
  H   H33       1.0  0.60681  0.89699  0.31931  1.0000
  H   H34       1.0  0.0983  0.08665  0.16001  1.0000
  H   H35       1.0  0.83028  0.06613  0.37021  1.0000
  H   H36       1.0  0.63898  0.9406  0.20825  1.0000
  H   H37       1.0  0.26101  0.8170899999999999  0.21904  1.0000
  H   H38       1.0  0.7345  0.93583  0.0871  1.0000
  H   H39       1.0  0.38035  0.83821  0.3369399999999999  1.0000
  H   H40       1.0  0.61151  0.94568  0.57837  1.0000
  H   H41       1.0  0.29505  0.7481200000000001  0.67017  1.0000
  H   H42       1.0  0.04384999999999998  0.80688  0.45224999999999993  1.0000
  H   H43       1.0  0.27344  0.54007  0.3215299999999999  1.0000
  H   H44       1.0  0.8743499999999998  0.62542  0.62815  1.0000
  H   H45       1.0  0.46079  0.7131  0.3945599999999999  1.0000
  H   H46       1.0  0.10051000000000003  0.76071  0.7107199999999998  1.0000
  H   H47       1.0  0.39302  0.60075  0.8202899999999999  1.0000
  H   H48       1.0  0.9035299999999998  0.4141599999999999  0.6582599999999997  1.0000
  H   H49       1.0  0.16715999999999998  0.43316  0.8700699999999999  1.0000
  H   H50       1.0  0.36218  0.55942  0.70961  1.0000
  H   H51       1.0  0.7416  0.68437  0.7190599999999999  1.0000
  H   H52       1.0  0.26842  0.56475  0.58793  1.0000
  H   H53       1.0  0.62061  0.66298  0.8362499999999998  1.0000
  H   H54       1.0  0.38922  0.55554  0.07705999999999998  1.0000
  H   H55       1.0  0.7069  0.74951  0.17215  1.0000
  H   H56       1.0  0.95442  0.68861  0.95315  1.0000
  C   C1        1.0  0.29628  0.11854  0.04916  1.0000
  C   C2        1.0  0.92334  0.19695  0.731  1.0000
  C   C3        1.0  0.39056  0.05405  0.57029  1.0000
  C   C4        1.0  0.42731  0.12603  0.24388  1.0000
  C   C5        1.0  0.05205000000000001  0.20796000000000003  0.9258399999999998  1.0000
  C   C6        1.0  0.35857  0.10398000000000002  0.17589999999999995  1.0000
  C   C7        1.0  0.04914  0.9451  0.75805  1.0000
  C   C8        1.0  0.9654900000000001  0.17834  0.8619  1.0000
  C   C9        1.0  0.38325  0.15096  0.11287999999999998  1.0000
  C   C10       1.0  0.001760000000000001  0.21432  0.7962  1.0000
  C   C11       1.0  0.33764  0.04813  0.64474  1.0000
  C   C12       1.0  0.002860000000000004  0.94584  0.8276999999999999  1.0000
  C   C13       1.0  0.22733  0.98602  0.6672799999999999  1.0000
  C   C14       1.0  0.37218  0.07941  0.30716  1.0000
  C   C15       1.0  0.25802  0.028059999999999998  0.7994999999999998  1.0000
  C   C16       1.0  0.1793500000000001  0.98642  0.74077  1.0000
  C   C17       1.0  0.78952  0.18324999999999997  0.73037  1.0000
  C   C18       1.0  0.5495  0.19019  0.2556399999999999  1.0000
  C   C19       1.0  0.20664  0.02872  0.86778  1.0000
  C   C20       1.0  0.72302  0.17276  0.66554  1.0000
  C   C21       1.0  0.43321  0.09307999999999998  0.37366  1.0000
  C   C22       1.0  0.60917  0.20308000000000004  0.32249  1.0000
  C   C23       1.0  0.98031  0.19964  0.66304  1.0000
  C   C24       1.0  0.9093700000000001  0.18881  0.59982  1.0000
  C   C25       1.0  0.70555  0.38298  0.5504299999999999  1.0000
  C   C26       1.0  0.07530000000000003  0.30452000000000007  0.23024  1.0000
  C   C27       1.0  0.6101199999999999  0.44649  0.06906  1.0000
  C   C28       1.0  0.57308  0.37576  0.7443499999999997  1.0000
  C   C29       1.0  0.94724  0.29244  0.42549999999999993  1.0000
  C   C30       1.0  0.64257  0.3979599999999999  0.67683  1.0000
  C   C31       1.0  0.95007  0.55494  0.25901  1.0000
  C   C32       1.0  0.03337999999999999  0.32212  0.3614399999999999  1.0000
  C   C33       1.0  0.61827  0.3509  0.61369  1.0000
  C   C34       1.0  0.9966  0.28703  0.29531  1.0000
  C   C35       1.0  0.66315  0.45334  0.14365  1.0000
  C   C36       1.0  0.99543  0.55362  0.3288  1.0000
  C   C37       1.0  0.7737299999999999  0.51491  0.16683  1.0000
  C   C38       1.0  0.62827  0.42119  0.8082  1.0000
  C   C39       1.0  0.7406700000000002  0.47194  0.29882  1.0000
  C   C40       1.0  0.8202  0.5139  0.2407  1.0000
  C   C41       1.0  0.20885  0.3167  0.23017  1.0000
  C   C42       1.0  0.45002  0.31241  0.75488  1.0000
  C   C43       1.0  0.79105  0.47081999999999996  0.36737  1.0000
  C   C44       1.0  0.27619  0.32719  0.16569999999999996  1.0000
  C   C45       1.0  0.5663  0.40677  0.87432  1.0000
  C   C46       1.0  0.38953  0.29866  0.82139  1.0000
  C   C47       1.0  0.019329999999999996  0.30332  0.16202  1.0000
  C   C48       1.0  0.09120000000000003  0.31412000000000007  0.09919999999999997  1.0000
  C   C49       1.0  0.70371  0.88146  0.95084  1.0000
  C   C50       1.0  0.07666000000000003  0.80305  0.269  1.0000
  C   C51       1.0  0.60944  0.94596  0.42970999999999987  1.0000
  C   C52       1.0  0.57269  0.87397  0.7561199999999998  1.0000
  C   C53       1.0  0.94795  0.79204  0.07416  1.0000
  C   C54       1.0  0.64143  0.89602  0.8241  1.0000
  C   C55       1.0  0.9508600000000001  0.05491  0.24195  1.0000
  C   C56       1.0  0.03451000000000005  0.8216700000000001  0.1381  1.0000
  C   C57       1.0  0.61675  0.84904  0.88712  1.0000
  C   C58       1.0  0.99824  0.78568  0.2038  1.0000
  C   C59       1.0  0.66236  0.95187  0.35526  1.0000
  C   C60       1.0  0.99714  0.05417  0.17229999999999995  1.0000
  C   C61       1.0  0.77267  0.013979999999999998  0.3327199999999999  1.0000
  C   C62       1.0  0.62781  0.92059  0.69284  1.0000
  C   C63       1.0  0.74198  0.97195  0.2005  1.0000
  C   C64       1.0  0.82065  0.01358  0.25924  1.0000
  C   C65       1.0  0.21048  0.81676  0.26963  1.0000
  C   C66       1.0  0.45049000000000006  0.80981  0.7443599999999998  1.0000
  C   C67       1.0  0.7933599999999998  0.97128  0.13222  1.0000
  C   C68       1.0  0.27698  0.82724  0.33446  1.0000
  C   C69       1.0  0.56679  0.90692  0.62634  1.0000
  C   C70       1.0  0.39083000000000007  0.79692  0.67751  1.0000
  C   C71       1.0  0.01969000000000001  0.80036  0.33696  1.0000
  C   C72       1.0  0.09063000000000003  0.81119  0.40017999999999987  1.0000
  C   C73       1.0  0.29445000000000005  0.61702  0.44957  1.0000
  C   C74       1.0  0.9247  0.69548  0.76976  1.0000
  C   C75       1.0  0.38988000000000006  0.55351  0.9309399999999999  1.0000
  C   C76       1.0  0.42692  0.62424  0.25565  1.0000
  C   C77       1.0  0.05276000000000001  0.70756  0.5745  1.0000
  C   C78       1.0  0.3574300000000001  0.60204  0.32316999999999996  1.0000
  C   C79       1.0  0.049929999999999995  0.44507  0.74099  1.0000
  C   C80       1.0  0.96662  0.67788  0.63856  1.0000
  C   C81       1.0  0.38171999999999995  0.6491  0.38631  1.0000
  C   C82       1.0  0.003400000000000032  0.71297  0.70469  1.0000
  C   C83       1.0  0.33685  0.54666  0.85635  1.0000
  C   C84       1.0  0.00456  0.44638  0.6712  1.0000
  C   C85       1.0  0.22626000000000002  0.48509  0.83317  1.0000
  C   C86       1.0  0.37173  0.57881  0.19179999999999994  1.0000
  C   C87       1.0  0.25932000000000005  0.52806  0.70118  1.0000
  C   C88       1.0  0.17979  0.4861  0.7593  1.0000
  C   C89       1.0  0.7911500000000001  0.68331  0.76983  1.0000
  C   C90       1.0  0.54998  0.68759  0.24511999999999995  1.0000
  C   C91       1.0  0.20895  0.52918  0.63263  1.0000
  C   C92       1.0  0.7238100000000001  0.67281  0.8342999999999999  1.0000
  C   C93       1.0  0.43370000000000003  0.5932299999999999  0.12568  1.0000
  C   C94       1.0  0.61047  0.70134  0.17861  1.0000
  C   C95       1.0  0.98066  0.69668  0.83798  1.0000
  C   C96       1.0  0.9088  0.68588  0.9007999999999999  1.0000
  N   N1        1.0  0.08055999999999991  0.98818  0.88197  1.0000
  N   N2        1.0  0.55151  0.15461  0.38043  1.0000
  N   N3        1.0  0.78151  0.17566  0.60112  1.0000
  N   N4        1.0  0.91697  0.51107  0.38243  1.0000
  N   N5        1.0  0.44737  0.34587  0.8800199999999999  1.0000
  N   N6        1.0  0.21867  0.32566  0.10109  1.0000
  N   N7        1.0  0.91944  0.01182  0.11803  1.0000
  N   N8        1.0  0.44849  0.84539  0.61957  1.0000
  N   N9        1.0  0.21848999999999996  0.82435  0.39888  1.0000
  N   N10       1.0  0.08303  0.48894  0.6175699999999997  1.0000
  N   N11       1.0  0.55263  0.65414  0.11998  1.0000
  N   N12       1.0  0.78133  0.6743400000000002  0.8989099999999999  1.0000
  O   O1        1.0  0.32036  0.17059  0.9932899999999999  1.0000
  O   O2        1.0  0.34024999999999994  0.99141  0.5235099999999999  1.0000
  O   O3        1.0  0.024529999999999986  0.15948999999999997  0.98291  1.0000
  O   O4        1.0  0.14646  0.28322  0.91933  1.0000
  O   O5        1.0  0.20584  0.04128  0.05467  1.0000
  O   O6        1.0  0.48571  0.12785  0.55983  1.0000
  O   O7        1.0  0.68086  0.33098  0.49442  1.0000
  O   O8        1.0  0.6599200000000001  0.50859  0.02205  1.0000
  O   O9        1.0  0.97552  0.34016  0.48323  1.0000
  O   O10       1.0  0.85228  0.21763000000000002  0.41822  1.0000
  O   O11       1.0  0.7968800000000001  0.45974  0.55648  1.0000
  O   O12       1.0  0.51522  0.37244  0.05843999999999999  1.0000
  O   O13       1.0  0.67964  0.82941  0.00671  1.0000
  O   O14       1.0  0.65975  0.0086  0.47648999999999997  1.0000
  O   O15       1.0  0.97547  0.84051  0.01709  1.0000
  O   O16       1.0  0.85354  0.7167799999999999  0.08066999999999999  1.0000
  O   O17       1.0  0.79415  0.95872  0.9453299999999999  1.0000
  O   O18       1.0  0.51429  0.87215  0.44017  1.0000
  O   O19       1.0  0.31914  0.66903  0.50558  1.0000
  O   O20       1.0  0.3400799999999999  0.49141  0.97795  1.0000
  O   O21       1.0  0.024480000000000026  0.65985  0.51677  1.0000
  O   O22       1.0  0.14772  0.78237  0.58178  1.0000
  O   O23       1.0  0.20312  0.54026  0.44351999999999997  1.0000
  O   O24       1.0  0.48477  0.62756  0.9415599999999998  1.0000
  F   F1        1.0  0.9636799999999999  0.90464  0.70541  1.0000
  F   F2        1.0  0.61279  0.24117  0.19957999999999998  1.0000
  F   F3        1.0  0.10929000000000003  0.21362000000000003  0.6582199999999999  1.0000
  F   F4        1.0  0.25281  0.01789  0.30208  1.0000
  F   F5        1.0  0.03640999999999993  0.5956  0.20713999999999996  1.0000
  F   F6        1.0  0.38703  0.26331  0.69774  1.0000
  F   F7        1.0  0.8907399999999999  0.2909  0.15643  1.0000
  F   F8        1.0  0.7485  0.482  0.80401  1.0000
  F   F9        1.0  0.03632  0.09536  0.29459  1.0000
  F   F10       1.0  0.38720999999999994  0.75883  0.80042  1.0000
  F   F11       1.0  0.8907100000000001  0.78639  0.34178  1.0000
  F   F12       1.0  0.74719  0.98211  0.6979199999999998  1.0000
  F   F13       1.0  0.9635899999999998  0.4044  0.7928599999999999  1.0000
  F   F14       1.0  0.61297  0.73669  0.30226  1.0000
  F   F15       1.0  0.10925999999999995  0.70911  0.84357  1.0000
  F   F16       1.0  0.2515  0.51801  0.19598999999999994  1.0000
