data_image0
_chemical_formula_structural       Zn8H48C64N8O32
_chemical_formula_sum              "Zn8 H48 C64 N8 O32"
_cell_length_a       6.81971
_cell_length_b       13.76468
_cell_length_c       21.82647
_cell_angle_alpha    90.22972
_cell_angle_beta     90.0353
_cell_angle_gamma    89.90980000000002

_space_group_name_H-M_alt    "P 1"
_space_group_IT_number       1

loop_
  _space_group_symop_operation_xyz
  'x, y, z'

loop_
  _atom_site_type_symbol
  _atom_site_label
  _atom_site_symmetry_multiplicity
  _atom_site_fract_x
  _atom_site_fract_y
  _atom_site_fract_z
  _atom_site_occupancy
  Zn  Zn1       1.0  0.25047  0.12152000000000003  0.13139  1.0000
  Zn  Zn2       1.0  0.77912  0.3719300000000001  0.0318  1.0000
  Zn  Zn3       1.0  0.7493800000000002  0.88024  0.6321  1.0000
  Zn  Zn4       1.0  0.22278  0.62867  0.53454  1.0000
  Zn  Zn5       1.0  0.25436  0.6210000000000002  0.13183  1.0000
  Zn  Zn6       1.0  0.7276  0.8714300000000003  0.03204  1.0000
  Zn  Zn7       1.0  0.7448500000000002  0.3793900000000001  0.6319899999999999  1.0000
  Zn  Zn8       1.0  0.27375  0.13057000000000002  0.53418  1.0000
  H   H1        1.0  0.28718  0.20505  0.9448999999999999  1.0000
  H   H2        1.0  0.28714  0.10433000000000003  0.9975699999999998  1.0000
  H   H3        1.0  0.75937  0.45661000000000007  0.2192  1.0000
  H   H4        1.0  0.7683300000000001  0.35514000000000007  0.16671  1.0000
  H   H5        1.0  0.09591  0.10925  0.26016  1.0000
  H   H6        1.0  0.07532  0.2164  0.35348  1.0000
  H   H7        1.0  0.29621  0.44969  0.24008  1.0000
  H   H8        1.0  0.31243  0.3324800000000001  0.15376  1.0000
  H   H9        1.0  0.07680000000000001  0.53439  0.30915  1.0000
  H   H10       1.0  0.09085  0.64128  0.40251999999999993  1.0000
  H   H11       1.0  0.30364  0.41788  0.51014  1.0000
  H   H12       1.0  0.2925000000000001  0.30085  0.42336  1.0000
  H   H13       1.0  0.71692  0.79239  0.44558  1.0000
  H   H14       1.0  0.7159800000000002  0.8947300000000002  0.49752  1.0000
  H   H15       1.0  0.24043000000000006  0.54422  0.7213299999999999  1.0000
  H   H16       1.0  0.23226  0.6454600000000003  0.6692499999999999  1.0000
  H   H17       1.0  0.90691  0.89246  0.76264  1.0000
  H   H18       1.0  0.9282000000000002  0.78431  0.85488  1.0000
  H   H19       1.0  0.7056000000000001  0.5522900000000001  0.73975  1.0000
  H   H20       1.0  0.6886  0.67013  0.65437  1.0000
  H   H21       1.0  0.92688  0.4670700000000001  0.80777  1.0000
  H   H22       1.0  0.91279  0.3591800000000001  0.90018  1.0000
  H   H23       1.0  0.6966700000000002  0.58091  0.00952  1.0000
  H   H24       1.0  0.7074600000000001  0.69901  0.9238399999999999  1.0000
  H   H25       1.0  0.22111000000000006  0.70457  0.94498  1.0000
  H   H26       1.0  0.21795  0.6037300000000002  0.9976399999999999  1.0000
  H   H27       1.0  0.7464200000000001  0.9561000000000001  0.21909  1.0000
  H   H28       1.0  0.73841  0.85507  0.16622  1.0000
  H   H29       1.0  0.40417  0.6090300000000001  0.26191  1.0000
  H   H30       1.0  0.4199600000000001  0.71671  0.355  1.0000
  H   H31       1.0  0.20832000000000006  0.9500900000000002  0.23988  1.0000
  H   H32       1.0  0.1957  0.8326300000000001  0.1537  1.0000
  H   H33       1.0  0.42642000000000013  0.03377  0.30973  1.0000
  H   H34       1.0  0.4129  0.1414  0.40281  1.0000
  H   H35       1.0  0.1884  0.92098  0.51013  1.0000
  H   H36       1.0  0.19881  0.8030900000000001  0.42376  1.0000
  H   H37       1.0  0.7791  0.29594  0.4449  1.0000
  H   H38       1.0  0.7826500000000001  0.39636  0.49827  1.0000
  H   H39       1.0  0.24972  0.04486  0.7206499999999999  1.0000
  H   H40       1.0  0.259  0.14684000000000003  0.6692299999999999  1.0000
  H   H41       1.0  0.59372  0.39182000000000006  0.7627899999999999  1.0000
  H   H42       1.0  0.57836  0.28382000000000007  0.85525  1.0000
  H   H43       1.0  0.7934100000000002  0.05130000000000001  0.73886  1.0000
  H   H44       1.0  0.80493  0.16908000000000006  0.65337  1.0000
  H   H45       1.0  0.57066  0.9676100000000002  0.80816  1.0000
  H   H46       1.0  0.58561  0.8596100000000002  0.9006  1.0000
  H   H47       1.0  0.8179500000000001  0.07894  0.00849  1.0000
  H   H48       1.0  0.8065  0.19702000000000003  0.9227999999999998  1.0000
  C   C1        1.0  0.4541600000000001  0.22804000000000005  0.02823  1.0000
  C   C2        1.0  0.28126  0.18378  0.9930699999999998  1.0000
  C   C3        1.0  0.09502  0.22165000000000007  0.02311  1.0000
  C   C4        1.0  0.58294  0.4722900000000001  0.13685  1.0000
  C   C5        1.0  0.7639500000000002  0.43476  0.17102  1.0000
  C   C6        1.0  0.94221  0.47813  0.13949  1.0000
  C   C7        1.0  0.14215  0.18477  0.25905  1.0000
  C   C8        1.0  0.12973  0.24482000000000007  0.31021  1.0000
  C   C9        1.0  0.18702  0.34235  0.30492  1.0000
  C   C10       1.0  0.25023  0.37521  0.24758999999999998  1.0000
  C   C11       1.0  0.26097  0.31024  0.1988  1.0000
  C   C12       1.0  0.18643000000000004  0.4084000000000001  0.35828  1.0000
  C   C13       1.0  0.12924000000000005  0.506  0.35274  1.0000
  C   C14       1.0  0.13801  0.5658800000000002  0.40406999999999993  1.0000
  C   C15       1.0  0.25461  0.44049000000000005  0.46486999999999995  1.0000
  C   C16       1.0  0.24771  0.3756100000000001  0.4158899999999999  1.0000
  C   C17       1.0  0.54924  0.7727600000000002  0.52915  1.0000
  C   C18       1.0  0.7222600000000002  0.81518  0.4936  1.0000
  C   C19       1.0  0.90816  0.7785400000000001  0.52452  1.0000
  C   C20       1.0  0.4164400000000001  0.52787  0.63883  1.0000
  C   C21       1.0  0.23607  0.56591  0.67324  1.0000
  C   C22       1.0  0.05724  0.52364  0.64124  1.0000
  C   C23       1.0  0.8605000000000002  0.8169800000000002  0.76066  1.0000
  C   C24       1.0  0.87345  0.75644  0.81133  1.0000
  C   C25       1.0  0.81576  0.6590200000000003  0.80527  1.0000
  C   C26       1.0  0.75186  0.6267200000000002  0.74773  1.0000
  C   C27       1.0  0.7406000000000001  0.69215  0.69952  1.0000
  C   C28       1.0  0.8162100000000002  0.59242  0.85799  1.0000
  C   C29       1.0  0.8741200000000002  0.4949800000000001  0.85156  1.0000
  C   C30       1.0  0.8651300000000002  0.43452000000000013  0.90228  1.0000
  C   C31       1.0  0.7464600000000001  0.55913  0.9640699999999999  1.0000
  C   C32       1.0  0.75355  0.6245200000000002  0.91574  1.0000
  C   C33       1.0  0.05446  0.7283200000000002  0.02818  1.0000
  C   C34       1.0  0.22669  0.68312  0.99312  1.0000
  C   C35       1.0  0.41272  0.71945  0.02391  1.0000
  C   C36       1.0  0.92191  0.9725400000000001  0.13668  1.0000
  C   C37       1.0  0.74184  0.9346500000000001  0.17083  1.0000
  C   C38       1.0  0.56271  0.9779800000000002  0.13938  1.0000
  C   C39       1.0  0.35865  0.6847200000000001  0.26021  1.0000
  C   C40       1.0  0.36832  0.74499  0.31134  1.0000
  C   C41       1.0  0.31228  0.8427  0.30557999999999996  1.0000
  C   C42       1.0  0.25292  0.8754600000000002  0.2478  1.0000
  C   C43       1.0  0.24455000000000005  0.8103200000000002  0.19905  1.0000
  C   C44       1.0  0.31148  0.9090900000000001  0.35878999999999994  1.0000
  C   C45       1.0  0.37169  0.006140000000000001  0.35318  1.0000
  C   C46       1.0  0.3631300000000001  0.06646  0.40431  1.0000
  C   C47       1.0  0.24007  0.9425800000000002  0.46496999999999994  1.0000
  C   C48       1.0  0.24681  0.87727  0.4162199999999999  1.0000
  C   C49       1.0  0.9471300000000002  0.27226000000000006  0.5282  1.0000
  C   C50       1.0  0.77477  0.3170500000000001  0.49324  1.0000
  C   C51       1.0  0.58948  0.28048  0.52394  1.0000
  C   C52       1.0  0.07823000000000002  0.02855  0.63748  1.0000
  C   C53       1.0  0.25615  0.06721  0.6727  1.0000
  C   C54       1.0  0.43709  0.02562  0.64134  1.0000
  C   C55       1.0  0.63995  0.3162600000000001  0.76064  1.0000
  C   C56       1.0  0.6304700000000002  0.25583  0.81141  1.0000
  C   C57       1.0  0.68761  0.15829000000000004  0.8050099999999999  1.0000
  C   C58       1.0  0.74787  0.12581  0.74714  1.0000
  C   C59       1.0  0.7558100000000001  0.19113000000000002  0.69882  1.0000
  C   C60       1.0  0.6891200000000002  0.09164  0.8577099999999999  1.0000
  C   C61       1.0  0.62708  0.9948600000000002  0.85167  1.0000
  C   C62       1.0  0.6365400000000002  0.9343800000000002  0.90242  1.0000
  C   C63       1.0  0.7643100000000002  0.05764  0.9633799999999999  1.0000
  C   C64       1.0  0.7567800000000002  0.12306  0.9150599999999999  1.0000
  N   N1        1.0  0.20999000000000007  0.21624000000000002  0.20461  1.0000
  N   N2        1.0  0.20205  0.5344000000000001  0.45906  1.0000
  N   N3        1.0  0.7915900000000002  0.7861600000000002  0.7059899999999999  1.0000
  N   N4        1.0  0.8  0.46546  0.95737  1.0000
  N   N5        1.0  0.29441  0.71613  0.20526999999999998  1.0000
  N   N6        1.0  0.2961  0.03588  0.45907999999999993  1.0000
  N   N7        1.0  0.70493  0.28518  0.70556  1.0000
  N   N8        1.0  0.7062500000000003  0.9646000000000002  0.95714  1.0000
  O   O1        1.0  0.47307000000000005  0.20842000000000005  0.08463  1.0000
  O   O2        1.0  0.56389  0.28487  0.99743  1.0000
  O   O3        1.0  0.04824000000000001  0.19028  0.07586  1.0000
  O   O4        1.0  0.99875  0.28619  0.99414  1.0000
  O   O5        1.0  0.56124  0.44781  0.08119  1.0000
  O   O6        1.0  0.4675800000000001  0.52801  0.16656  1.0000
  O   O7        1.0  0.98176  0.45194000000000006  0.08499  1.0000
  O   O8        1.0  0.037180000000000005  0.54254  0.16958  1.0000
  O   O9        1.0  0.53161  0.79536  0.58529  1.0000
  O   O10       1.0  0.43824  0.7145800000000002  0.49974  1.0000
  O   O11       1.0  0.95264  0.81105  0.57729  1.0000
  O   O12       1.0  0.006240000000000002  0.7136600000000002  0.49623999999999996  1.0000
  O   O13       1.0  0.4385300000000001  0.55214  0.58324  1.0000
  O   O14       1.0  0.53103  0.4717600000000001  0.66823  1.0000
  O   O15       1.0  0.01666  0.55255  0.58753  1.0000
  O   O16       1.0  0.9630800000000002  0.4577700000000001  0.6698599999999999  1.0000
  O   O17       1.0  0.037440000000000015  0.70952  0.08475  1.0000
  O   O18       1.0  0.9430500000000002  0.7845  0.99734  1.0000
  O   O19       1.0  0.4585700000000001  0.6857  0.07612  1.0000
  O   O20       1.0  0.50844  0.7856100000000003  0.99641  1.0000
  O   O21       1.0  0.94397  0.9479000000000002  0.08104  1.0000
  O   O22       1.0  0.03625  0.028830000000000005  0.16627  1.0000
  O   O23       1.0  0.52317  0.9519800000000003  0.08485  1.0000
  O   O24       1.0  0.46708  0.04205  0.16963  1.0000
  O   O25       1.0  0.9630800000000002  0.29090000000000005  0.58492  1.0000
  O   O26       1.0  0.059539999999999996  0.21628  0.49738999999999994  1.0000
  O   O27       1.0  0.54231  0.3147000000000001  0.57615  1.0000
  O   O28       1.0  0.49453  0.21391000000000002  0.49644999999999995  1.0000
  O   O29       1.0  0.057000000000000016  0.052580000000000016  0.58182  1.0000
  O   O30       1.0  0.96459  0.97164  0.66652  1.0000
  O   O31       1.0  0.47741  0.05341000000000001  0.5874  1.0000
  O   O32       1.0  0.53314  0.9611900000000002  0.67066  1.0000
