data_image0
_chemical_formula_structural       Eu2Cu8H48C72I8N6O12
_chemical_formula_sum              "Eu2 Cu8 H48 C72 I8 N6 O12"
_cell_length_a       9.80817
_cell_length_b       16.297
_cell_length_c       21.44631
_cell_angle_alpha    104.32805
_cell_angle_beta     101.27626
_cell_angle_gamma    96.67248

_symmetry_space_group_name_H-M    'P 1'
_symmetry_Int_Tables_number       1

loop_
  _symmetry_equiv_pos_as_xyz
  'x,y,z'

loop_
  _atom_site_type_symbol
  _atom_site_label
  _atom_site_symmetry_multiplicity
  _atom_site_fract_x
  _atom_site_fract_y
  _atom_site_fract_z
  _atom_site_occupancy
  Eu  Eu1       1.0  0.28834000000000015  0.5199200000000003  0.9977300000000001  1.0000
  Eu  Eu2       1.0  0.71167  0.4800800000000001  0.00227  1.0000
  Cu  Cu1       1.0  0.006460000000000007  0.94099  0.53805  1.0000
  Cu  Cu2       1.0  0.7570600000000001  0.8292900000000002  0.50068  1.0000
  Cu  Cu3       1.0  0.82356  0.9483100000000004  0.61607  1.0000
  Cu  Cu4       1.0  0.95914  0.82208  0.59715  1.0000
  Cu  Cu5       1.0  0.99355  0.059019999999999975  0.46195  1.0000
  Cu  Cu6       1.0  0.24293999999999996  0.17071  0.49932  1.0000
  Cu  Cu7       1.0  0.17643999999999999  0.05169000000000001  0.38393  1.0000
  Cu  Cu8       1.0  0.04085999999999998  0.17791999999999997  0.40284999999999993  1.0000
  H   H1        1.0  0.45531  0.84667  0.47563  1.0000
  H   H2        1.0  0.22988  0.76698  0.39875  1.0000
  H   H3        1.0  0.46891  0.5918  0.29956  1.0000
  H   H4        1.0  0.68536  0.6784199999999999  0.38123  1.0000
  H   H5        1.0  0.28283  0.60929  0.20769  1.0000
  H   H6        1.0  0.8476599999999999  0.49512  0.16978  1.0000
  H   H7        1.0  0.8562000000000003  0.5430300000000002  0.29106  1.0000
  H   H8        1.0  0.07835  0.62433  0.37042  1.0000
  H   H9        1.0  0.8787099999999999  0.12067000000000001  0.72011  1.0000
  H   H10       1.0  0.73011  0.22124  0.76799  1.0000
  H   H11       1.0  0.36472  0.03417  0.64987  1.0000
  H   H12       1.0  0.5275400000000001  0.9408099999999999  0.60819  1.0000
  H   H13       1.0  0.5710599999999999  0.25449999999999995  0.8348799999999998  1.0000
  H   H14       1.0  0.16405  0.32796  0.80395  1.0000
  H   H15       1.0  0.10063  0.23111  0.68754  1.0000
  H   H16       1.0  0.27251999999999993  0.14679  0.64578  1.0000
  H   H17       1.0  0.25664000000000003  0.8183200000000004  0.60869  1.0000
  H   H18       1.0  0.44419999999999993  0.75491  0.66654  1.0000
  H   H19       1.0  0.12007000000000001  0.61968  0.73311  1.0000
  H   H20       1.0  0.94695  0.69103  0.67414  1.0000
  H   H21       1.0  0.30398999999999987  0.6452200000000002  0.82266  1.0000
  H   H22       1.0  0.69537  0.55203  0.84464  1.0000
  H   H23       1.0  0.72234  0.57459  0.73593  1.0000
  H   H24       1.0  0.5391  0.63259  0.67058  1.0000
  H   H25       1.0  0.54469  0.15333999999999998  0.52437  1.0000
  H   H26       1.0  0.77012  0.23302  0.60126  1.0000
  H   H27       1.0  0.5311  0.4082000000000001  0.70044  1.0000
  H   H28       1.0  0.3146399999999999  0.32159  0.61877  1.0000
  H   H29       1.0  0.71717  0.39071  0.79231  1.0000
  H   H30       1.0  0.15234000000000003  0.50488  0.83023  1.0000
  H   H31       1.0  0.14379999999999998  0.4569700000000001  0.70895  1.0000
  H   H32       1.0  0.92166  0.37567  0.62958  1.0000
  H   H33       1.0  0.12130000000000005  0.8793300000000002  0.27989  1.0000
  H   H34       1.0  0.2698900000000001  0.7787600000000003  0.23202  1.0000
  H   H35       1.0  0.63529  0.96583  0.35013  1.0000
  H   H36       1.0  0.47246  0.05919  0.39181  1.0000
  H   H37       1.0  0.42895000000000005  0.7455000000000003  0.16512  1.0000
  H   H38       1.0  0.83595  0.67204  0.19605  1.0000
  H   H39       1.0  0.89938  0.7688900000000002  0.31247  1.0000
  H   H40       1.0  0.7274799999999999  0.8532100000000002  0.35422  1.0000
  H   H41       1.0  0.74336  0.18168  0.39132  1.0000
  H   H42       1.0  0.55581  0.24508999999999997  0.33346  1.0000
  H   H43       1.0  0.8799299999999999  0.38032  0.2669  1.0000
  H   H44       1.0  0.05306000000000001  0.30898  0.32587  1.0000
  H   H45       1.0  0.6960100000000001  0.35478  0.17735  1.0000
  H   H46       1.0  0.30463  0.44798  0.15536  1.0000
  H   H47       1.0  0.27766  0.42541  0.26407  1.0000
  H   H48       1.0  0.4609  0.36741  0.32942  1.0000
  C   C1        1.0  0.45393  0.78928  0.43648  1.0000
  C   C2        1.0  0.32806  0.7442  0.39348  1.0000
  C   C3        1.0  0.32896  0.67133  0.34224  1.0000
  C   C4        1.0  0.46082000000000006  0.64787  0.33782  1.0000
  C   C5        1.0  0.58215  0.69563  0.38344  1.0000
  C   C6        1.0  0.19691  0.62256  0.29509  1.0000
  C   C7        1.0  0.19084999999999994  0.59482  0.22702000000000003  1.0000
  C   C8        1.0  0.06509  0.54989  0.182  1.0000
  C   C9        1.0  0.94467  0.53039  0.20531  1.0000
  C   C10       1.0  0.9500299999999999  0.55749  0.27304  1.0000
  C   C11       1.0  0.07457000000000003  0.6038600000000002  0.31769  1.0000
  C   C12       1.0  0.05970000000000001  0.52391  0.10856000000000002  1.0000
  C   C13       1.0  0.76401  0.10386  0.70631  1.0000
  C   C14       1.0  0.67982  0.15953  0.73297  1.0000
  C   C15       1.0  0.53177  0.13707000000000003  0.71273  1.0000
  C   C16       1.0  0.47768999999999995  0.056469999999999985  0.66662  1.0000
  C   C17       1.0  0.56793  0.003960000000000007  0.64304  1.0000
  C   C18       1.0  0.43401999999999996  0.19232000000000005  0.73726  1.0000
  C   C19       1.0  0.46928  0.2487  0.80144  1.0000
  C   C20       1.0  0.37181  0.2971  0.82509  1.0000
  C   C21       1.0  0.23798999999999998  0.2899  0.78434  1.0000
  C   C22       1.0  0.20317999999999997  0.23574  0.71998  1.0000
  C   C23       1.0  0.3  0.18725999999999998  0.69657  1.0000
  C   C24       1.0  0.41078999999999993  0.35836000000000007  0.8937700000000001  1.0000
  C   C25       1.0  0.23124  0.77348  0.63649  1.0000
  C   C26       1.0  0.33496  0.73719  0.66842  1.0000
  C   C27       1.0  0.2991800000000001  0.6807400000000002  0.70505  1.0000
  C   C28       1.0  0.15596000000000002  0.6637300000000003  0.70657  1.0000
  C   C29       1.0  0.05813000000000002  0.70273  0.67339  1.0000
  C   C30       1.0  0.40763  0.64353  0.74164  1.0000
  C   C31       1.0  0.39363  0.62919  0.80211  1.0000
  C   C32       1.0  0.49701999999999996  0.5968100000000002  0.83905  1.0000
  C   C33       1.0  0.6164  0.57772  0.81537  1.0000
  C   C34       1.0  0.63066  0.59071  0.75475  1.0000
  C   C35       1.0  0.52757  0.6235100000000002  0.71803  1.0000
  C   C36       1.0  0.4758  0.58049  0.90296  1.0000
  C   C37       1.0  0.54607  0.21072  0.56352  1.0000
  C   C38       1.0  0.67194  0.2558  0.60653  1.0000
  C   C39       1.0  0.67105  0.32867  0.65776  1.0000
  C   C40       1.0  0.5391799999999999  0.3521400000000001  0.66219  1.0000
  C   C41       1.0  0.41785  0.3043700000000001  0.61656  1.0000
  C   C42       1.0  0.80309  0.37744  0.70491  1.0000
  C   C43       1.0  0.80916  0.40518000000000004  0.77298  1.0000
  C   C44       1.0  0.93491  0.45011  0.8180100000000001  1.0000
  C   C45       1.0  0.05533000000000007  0.4696100000000001  0.7946900000000001  1.0000
  C   C46       1.0  0.04997000000000005  0.4425200000000002  0.72697  1.0000
  C   C47       1.0  0.9254299999999999  0.3961400000000001  0.68232  1.0000
  C   C48       1.0  0.9403  0.47609  0.8914499999999999  1.0000
  C   C49       1.0  0.23599999999999996  0.89614  0.29369  1.0000
  C   C50       1.0  0.32019  0.84047  0.26703  1.0000
  C   C51       1.0  0.4682299999999999  0.8629400000000003  0.28727  1.0000
  C   C52       1.0  0.52231  0.94353  0.33338  1.0000
  C   C53       1.0  0.43207  0.9960400000000001  0.35697  1.0000
  C   C54       1.0  0.56599  0.80768  0.26274  1.0000
  C   C55       1.0  0.53073  0.7513000000000002  0.19856999999999997  1.0000
  C   C56       1.0  0.62819  0.7029  0.17491  1.0000
  C   C57       1.0  0.76201  0.7101  0.21566999999999997  1.0000
  C   C58       1.0  0.79683  0.7642599999999999  0.28003  1.0000
  C   C59       1.0  0.7000000000000001  0.8127500000000002  0.30344  1.0000
  C   C60       1.0  0.58922  0.64164  0.10624  1.0000
  C   C61       1.0  0.76876  0.2265200000000001  0.36351  1.0000
  C   C62       1.0  0.66504  0.26281  0.33159  1.0000
  C   C63       1.0  0.70082  0.31926  0.29495  1.0000
  C   C64       1.0  0.84405  0.3362700000000001  0.29344  1.0000
  C   C65       1.0  0.9418800000000002  0.29727  0.32662  1.0000
  C   C66       1.0  0.5923800000000001  0.35648000000000013  0.25836  1.0000
  C   C67       1.0  0.6063800000000001  0.37081000000000014  0.1979  1.0000
  C   C68       1.0  0.50298  0.4032  0.16095  1.0000
  C   C69       1.0  0.3836  0.42228  0.18464  1.0000
  C   C70       1.0  0.36934999999999996  0.40929  0.24526  1.0000
  C   C71       1.0  0.47242999999999996  0.3764900000000001  0.28197  1.0000
  C   C72       1.0  0.52421  0.41952  0.09705  1.0000
  I   I1        1.0  0.7641600000000001  0.9985000000000002  0.49801  1.0000
  I   I2        1.0  0.98468  0.7737  0.46779  1.0000
  I   I3        1.0  0.09169000000000006  0.9851800000000002  0.67249  1.0000
  I   I4        1.0  0.69554  0.7856200000000002  0.60889  1.0000
  I   I5        1.0  0.23585  0.0014999999999999966  0.50199  1.0000
  I   I6        1.0  0.015320000000000014  0.22631  0.53221  1.0000
  I   I7        1.0  0.9083099999999998  0.014820000000000009  0.32752  1.0000
  I   I8        1.0  0.30447  0.21438000000000004  0.39111  1.0000
  N   N1        1.0  0.5806  0.7659200000000003  0.43236  1.0000
  N   N2        1.0  0.7099899999999999  0.026589999999999978  0.66166  1.0000
  N   N3        1.0  0.09405000000000008  0.75735  0.63869  1.0000
  N   N4        1.0  0.41939999999999994  0.23408000000000007  0.56764  1.0000
  N   N5        1.0  0.29001999999999994  0.97341  0.33834  1.0000
  N   N6        1.0  0.90596  0.24265999999999996  0.36131  1.0000
  O   O1        1.0  0.17392  0.54315  0.09179  1.0000
  O   O2        1.0  0.9428099999999999  0.48466  0.06954  1.0000
  O   O3        1.0  0.5354400000000001  0.36482000000000014  0.9274200000000001  1.0000
  O   O4        1.0  0.31580999999999987  0.39952999999999994  0.9115799999999998  1.0000
  O   O5        1.0  0.35803  0.59092  0.91727  1.0000
  O   O6        1.0  0.57493  0.55534  0.93712  1.0000
  O   O7        1.0  0.8260899999999999  0.45686  0.90822  1.0000
  O   O8        1.0  0.05720000000000004  0.51535  0.93047  1.0000
  O   O9        1.0  0.4645599999999999  0.63519  0.07258  1.0000
  O   O10       1.0  0.68419  0.60047  0.08843  1.0000
  O   O11       1.0  0.64198  0.40908  0.08273  1.0000
  O   O12       1.0  0.42507999999999996  0.44466  0.06288  1.0000
