data_image0
_chemical_formula_structural       Zn4H64C80N8O16
_chemical_formula_sum              "Zn4 H64 C80 N8 O16"
_cell_length_a       9.83547
_cell_length_b       11.31451
_cell_length_c       22.46172
_cell_angle_alpha    103.14432
_cell_angle_beta     90.00408
_cell_angle_gamma    115.72265

_symmetry_space_group_name_H-M    'P 1'
_symmetry_Int_Tables_number       1

loop_
  _symmetry_equiv_pos_as_xyz
  'x,y,z'

loop_
  _atom_site_type_symbol
  _atom_site_label
  _atom_site_symmetry_multiplicity
  _atom_site_fract_x
  _atom_site_fract_y
  _atom_site_fract_z
  _atom_site_occupancy
  Zn  Zn1       1.0  0.06751000000000008  0.66059  0.61811  1.0000
  Zn  Zn2       1.0  0.40728  0.33945999999999993  0.8818799999999999  1.0000
  Zn  Zn3       1.0  0.93248  0.33942  0.38189  1.0000
  Zn  Zn4       1.0  0.5927200000000001  0.66054  0.11812  1.0000
  H   H1        1.0  0.9413200000000002  0.38634  0.54215  1.0000
  H   H2        1.0  0.0009000000000000265  0.19053000000000006  0.51299  1.0000
  H   H3        1.0  0.4026900000000001  0.41890000000000005  0.64375  1.0000
  H   H4        1.0  0.33137  0.61005  0.6654  1.0000
  H   H5        1.0  0.20476  0.11420000000000001  0.51377  1.0000
  H   H6        1.0  0.35973  0.19628999999999996  0.57207  1.0000
  H   H7        1.0  0.16073  0.96736  0.58312  1.0000
  H   H8        1.0  0.026280000000000015  0.03183000000000002  0.59371  1.0000
  H   H9        1.0  0.1353600000000001  0.27838000000000007  0.80403  1.0000
  H   H10       1.0  0.02403  0.17253  0.69393  1.0000
  H   H11       1.0  0.39965000000000006  0.0739  0.66246  1.0000
  H   H12       1.0  0.49417000000000005  0.18237999999999996  0.77394  1.0000
  H   H13       1.0  0.59766  0.74019  0.55979  1.0000
  H   H14       1.0  0.65247  0.37589  0.5066  1.0000
  H   H15       1.0  0.6143600000000001  0.022790000000000008  0.60333  1.0000
  H   H16       1.0  0.23599999999999993  0.82529  0.46292999999999995  1.0000
  H   H17       1.0  0.5553900000000002  0.6135100000000001  0.9580099999999999  1.0000
  H   H18       1.0  0.8103800000000002  0.80925  0.98706  1.0000
  H   H19       1.0  0.9836  0.5812400000000001  0.8557600000000001  1.0000
  H   H20       1.0  0.7216  0.3901100000000001  0.83428  1.0000
  H   H21       1.0  0.09021999999999997  0.8855300000000002  0.98617  1.0000
  H   H22       1.0  0.16328000000000004  0.80353  0.92788  1.0000
  H   H23       1.0  0.19273999999999997  0.032659999999999925  0.91688  1.0000
  H   H24       1.0  0.99385  0.96776  0.90613  1.0000
  H   H25       1.0  0.85723  0.7208100000000001  0.69596  1.0000
  H   H26       1.0  0.8515100000000002  0.8269300000000002  0.80604  1.0000
  H   H27       1.0  0.3255600000000002  0.9256800000000001  0.8376799999999999  1.0000
  H   H28       1.0  0.31196  0.81708  0.72623  1.0000
  H   H29       1.0  0.8580100000000003  0.25991  0.93995  1.0000
  H   H30       1.0  0.27628000000000014  0.6244900000000001  0.9934799999999999  1.0000
  H   H31       1.0  0.5920000000000001  0.9767100000000002  0.8967400000000001  1.0000
  H   H32       1.0  0.41158  0.17558999999999997  0.0369  1.0000
  H   H33       1.0  0.058670000000000014  0.61367  0.4578499999999999  1.0000
  H   H34       1.0  0.99909  0.80947  0.487  1.0000
  H   H35       1.0  0.5973000000000002  0.5811  0.35624  1.0000
  H   H36       1.0  0.66862  0.38995  0.3346  1.0000
  H   H37       1.0  0.7952299999999999  0.8858  0.48622999999999994  1.0000
  H   H38       1.0  0.64027  0.80372  0.42793  1.0000
  H   H39       1.0  0.8392600000000002  0.03264000000000005  0.41687  1.0000
  H   H40       1.0  0.97371  0.96818  0.40629  1.0000
  H   H41       1.0  0.8646300000000001  0.72163  0.19596999999999998  1.0000
  H   H42       1.0  0.9759700000000001  0.8274700000000001  0.30607  1.0000
  H   H43       1.0  0.6003400000000002  0.9261000000000001  0.33753  1.0000
  H   H44       1.0  0.50582  0.81762  0.22606  1.0000
  H   H45       1.0  0.4023300000000002  0.25981  0.44021  1.0000
  H   H46       1.0  0.34752000000000005  0.6241100000000002  0.49339  1.0000
  H   H47       1.0  0.38563000000000003  0.9772100000000001  0.39665999999999996  1.0000
  H   H48       1.0  0.764  0.17471  0.53707  1.0000
  H   H49       1.0  0.4446  0.38649  0.04199  1.0000
  H   H50       1.0  0.18961  0.19075  0.01293  1.0000
  H   H51       1.0  0.01638999999999999  0.41876  0.14424  1.0000
  H   H52       1.0  0.27839  0.6099  0.16572  1.0000
  H   H53       1.0  0.90978  0.11447  0.01382  1.0000
  H   H54       1.0  0.8367200000000001  0.19647  0.07211  1.0000
  H   H55       1.0  0.8072600000000001  0.96735  0.08312  1.0000
  H   H56       1.0  0.006140000000000008  0.03224000000000001  0.09386  1.0000
  H   H57       1.0  0.14276  0.27919  0.30403  1.0000
  H   H58       1.0  0.14848000000000003  0.17307000000000003  0.19396000000000002  1.0000
  H   H59       1.0  0.67442  0.07432  0.16232  1.0000
  H   H60       1.0  0.6880300000000001  0.18292000000000003  0.27377  1.0000
  H   H61       1.0  0.14199000000000003  0.7401  0.06005  1.0000
  H   H62       1.0  0.72371  0.37551000000000007  0.00652  1.0000
  H   H63       1.0  0.4079900000000001  0.023289999999999998  0.10326  1.0000
  H   H64       1.0  0.58841  0.82441  0.96309  1.0000
  C   C1        1.0  0.040960000000000045  0.38864000000000004  0.56444  1.0000
  C   C2        1.0  0.07450000000000002  0.27905  0.549  1.0000
  C   C3        1.0  0.20486000000000007  0.28548000000000007  0.57772  1.0000
  C   C4        1.0  0.29803  0.40655  0.62094  1.0000
  C   C5        1.0  0.2586  0.51322  0.63378  1.0000
  C   C6        1.0  0.2376  0.16453  0.56307  1.0000
  C   C7        1.0  0.14809  0.060480000000000006  0.60061  1.0000
  C   C8        1.0  0.19121000000000007  0.23449000000000012  0.7705199999999999  1.0000
  C   C9        1.0  0.12992000000000004  0.17431  0.70939  1.0000
  C   C10       1.0  0.20444  0.11687  0.66796  1.0000
  C   C11       1.0  0.33855000000000013  0.12034000000000003  0.69167  1.0000
  C   C12       1.0  0.39334  0.18133  0.75336  1.0000
  C   C13       1.0  0.5543500000000001  0.63535  0.53328  1.0000
  C   C14       1.0  0.63991  0.56464  0.53698  1.0000
  C   C15       1.0  0.58434  0.42887  0.50355  1.0000
  C   C16       1.0  0.79202  0.63632  0.57472  1.0000
  C   C17       1.0  0.56581  0.01414  0.55807  1.0000
  C   C18       1.0  0.41631  0.91574  0.53725  1.0000
  C   C19       1.0  0.35152  0.90212  0.47886999999999996  1.0000
  C   C20       1.0  0.32528000000000007  0.83084  0.57862  1.0000
  C   C21       1.0  0.65258  0.6112  0.9356  1.0000
  C   C22       1.0  0.79556  0.72078  0.9510100000000001  1.0000
  C   C23       1.0  0.91938  0.7144100000000001  0.92218  1.0000
  C   C24       1.0  0.89149  0.5934900000000001  0.8787999999999999  1.0000
  C   C25       1.0  0.74553  0.48682  0.86601  1.0000
  C   C26       1.0  0.07289999999999999  0.8353300000000001  0.93687  1.0000
  C   C27       1.0  0.08727000000000011  0.9393800000000001  0.89934  1.0000
  C   C28       1.0  0.9569000000000001  0.7649100000000001  0.72949  1.0000
  C   C29       1.0  0.9556500000000002  0.8252300000000001  0.79059  1.0000
  C   C30       1.0  0.08752000000000004  0.8828700000000002  0.83202  1.0000
  C   C31       1.0  0.2181800000000001  0.8792800000000001  0.80841  1.0000
  C   C32       1.0  0.21215000000000003  0.8182000000000001  0.74674  1.0000
  C   C33       1.0  0.9194600000000003  0.36469  0.96655  1.0000
  C   C34       1.0  0.07564000000000005  0.4356700000000001  0.96294  1.0000
  C   C35       1.0  0.15526  0.57138  0.99651  1.0000
  C   C36       1.0  0.15689  0.36451  0.92531  1.0000
  C   C37       1.0  0.55195  0.9855699999999998  0.9419599999999999  1.0000
  C   C38       1.0  0.50125  0.08437000000000001  0.96273  1.0000
  C   C39       1.0  0.44991000000000003  0.09839  0.02106  1.0000
  C   C40       1.0  0.49519  0.16912999999999995  0.9212799999999999  1.0000
  C   C41       1.0  0.9590400000000002  0.61137  0.43556  1.0000
  C   C42       1.0  0.9255000000000004  0.72095  0.45099000000000006  1.0000
  C   C43       1.0  0.7951400000000001  0.71452  0.42227999999999993  1.0000
  C   C44       1.0  0.7019600000000001  0.5934600000000001  0.37905000000000005  1.0000
  C   C45       1.0  0.7414  0.48678000000000005  0.36622  1.0000
  C   C46       1.0  0.7624  0.8354800000000001  0.43693  1.0000
  C   C47       1.0  0.8519000000000002  0.9395200000000002  0.39939  1.0000
  C   C48       1.0  0.80878  0.7655099999999999  0.22946999999999998  1.0000
  C   C49       1.0  0.8700800000000005  0.8256900000000003  0.29061  1.0000
  C   C50       1.0  0.79556  0.8831300000000001  0.33203  1.0000
  C   C51       1.0  0.6614400000000001  0.87967  0.30833  1.0000
  C   C52       1.0  0.60665  0.81867  0.24664  1.0000
  C   C53       1.0  0.44565  0.36465  0.46672  1.0000
  C   C54       1.0  0.36009000000000013  0.43537000000000003  0.46302  1.0000
  C   C55       1.0  0.4156600000000001  0.57114  0.49645000000000006  1.0000
  C   C56       1.0  0.20798  0.36369  0.42527  1.0000
  C   C57       1.0  0.43418000000000007  0.98587  0.44192000000000004  1.0000
  C   C58       1.0  0.5836900000000003  0.08427  0.46275  1.0000
  C   C59       1.0  0.6484700000000001  0.09787999999999995  0.52113  1.0000
  C   C60       1.0  0.67471  0.16916  0.42138  1.0000
  C   C61       1.0  0.34741  0.3888  0.0644  1.0000
  C   C62       1.0  0.20444  0.27922  0.04899  1.0000
  C   C63       1.0  0.08060999999999999  0.28559  0.07781  1.0000
  C   C64       1.0  0.10850000000000005  0.40651000000000004  0.12119  1.0000
  C   C65       1.0  0.25446  0.51318  0.13398  1.0000
  C   C66       1.0  0.9270900000000001  0.16467  0.06313  1.0000
  C   C67       1.0  0.91272  0.06062000000000001  0.10065999999999999  1.0000
  C   C68       1.0  0.043100000000000006  0.23509  0.27051  1.0000
  C   C69       1.0  0.044350000000000014  0.17478000000000002  0.2094  1.0000
  C   C70       1.0  0.9124800000000002  0.11712000000000002  0.16797  1.0000
  C   C71       1.0  0.78181  0.12072000000000001  0.19158  1.0000
  C   C72       1.0  0.7878399999999999  0.1818  0.25326  1.0000
  C   C73       1.0  0.08054000000000007  0.63532  0.03345  1.0000
  C   C74       1.0  0.9243500000000001  0.56433  0.03706  1.0000
  C   C75       1.0  0.8447400000000003  0.42862  0.00348  1.0000
  C   C76       1.0  0.8431000000000001  0.63549  0.07469  1.0000
  C   C77       1.0  0.44804  0.014430000000000002  0.05802999999999999  1.0000
  C   C78       1.0  0.4987500000000002  0.9156300000000002  0.03727  1.0000
  C   C79       1.0  0.5500900000000001  0.90162  0.97893  1.0000
  C   C80       1.0  0.50482  0.83087  0.07871  1.0000
  N   N1        1.0  0.13057000000000005  0.50451  0.60683  1.0000
  N   N2        1.0  0.32234000000000007  0.23975999999999992  0.79241  1.0000
  N   N3        1.0  0.6263300000000002  0.49542  0.89311  1.0000
  N   N4        1.0  0.08284000000000004  0.7597700000000001  0.70765  1.0000
  N   N5        1.0  0.8694300000000003  0.49549000000000004  0.39317  1.0000
  N   N6        1.0  0.6776600000000002  0.76024  0.20758  1.0000
  N   N7        1.0  0.37367  0.50459  0.10689  1.0000
  N   N8        1.0  0.91716  0.24023  0.29235  1.0000
  O   O1        1.0  0.85286  0.55806  0.58324  1.0000
  O   O2        1.0  0.85322  0.76228  0.59545  1.0000
  O   O3        1.0  0.18073  0.76223  0.55965  1.0000
  O   O4        1.0  0.38686000000000004  0.8327000000000001  0.62782  1.0000
  O   O5        1.0  0.29564  0.44325  0.91673  1.0000
  O   O6        1.0  0.09309000000000006  0.23845000000000008  0.90474  1.0000
  O   O7        1.0  0.42018000000000005  0.23858  0.94043  1.0000
  O   O8        1.0  0.5538600000000001  0.16644  0.87188  1.0000
  O   O9        1.0  0.14714000000000005  0.44195  0.4167600000000001  1.0000
  O   O10       1.0  0.14677000000000004  0.23771000000000006  0.4045500000000001  1.0000
  O   O11       1.0  0.81926  0.23777000000000004  0.44034  1.0000
  O   O12       1.0  0.61313  0.16728999999999997  0.37216999999999995  1.0000
  O   O13       1.0  0.7043500000000003  0.55675  0.08327  1.0000
  O   O14       1.0  0.90692  0.7615600000000001  0.09525999999999998  1.0000
  O   O15       1.0  0.57981  0.76143  0.059559999999999995  1.0000
  O   O16       1.0  0.44612000000000007  0.83356  0.12812  1.0000
