data_image0
_chemical_formula_structural       Co4H64C76N12O8
_chemical_formula_sum              "Co4 H64 C76 N12 O8"
_cell_length_a       10.91035
_cell_length_b       10.91148
_cell_length_c       20.36043
_cell_angle_alpha    92.65547999999998
_cell_angle_beta     92.68055
_cell_angle_gamma    126.09283999999998

_space_group_name_H-M_alt    "P 1"
_space_group_IT_number       1

loop_
  _space_group_symop_operation_xyz
  'x, y, z'

loop_
  _atom_site_type_symbol
  _atom_site_label
  _atom_site_symmetry_multiplicity
  _atom_site_fract_x
  _atom_site_fract_y
  _atom_site_fract_z
  _atom_site_occupancy
  Co  Co1       1.0  0.44059000000000004  0.40740000000000004  0.53362  1.0000
  Co  Co2       1.0  0.59209  0.55979  0.96619  1.0000
  Co  Co3       1.0  0.56047  0.59292  0.46664000000000005  1.0000
  Co  Co4       1.0  0.40796  0.44018  0.033960000000000004  1.0000
  H   H1        1.0  0.59637  0.69809  0.14439  1.0000
  H   H2        1.0  0.49726  0.26979  0.11099  1.0000
  H   H3        1.0  0.52626  0.20007  0.4846  1.0000
  H   H4        1.0  0.94038  0.80303  0.31035000000000007  1.0000
  H   H5        1.0  0.41872000000000015  0.97408  0.40573000000000004  1.0000
  H   H6        1.0  0.98963  0.91508  0.40239  1.0000
  H   H7        1.0  0.70774  0.33461  0.19023000000000004  1.0000
  H   H8        1.0  0.1189  0.14892  0.4774900000000001  1.0000
  H   H9        1.0  0.9497899999999999  0.44729  0.21584000000000003  1.0000
  H   H10       1.0  0.28281  0.73524  0.36545  1.0000
  H   H11       1.0  0.8145  0.78382  0.22408  1.0000
  H   H12       1.0  0.90789  0.50279  0.58348  1.0000
  H   H13       1.0  0.80446  0.35867  0.44089  1.0000
  H   H14       1.0  0.74517  0.26175999999999994  0.51296  1.0000
  H   H15       1.0  0.05698999999999993  0.75337  0.53356  1.0000
  H   H16       1.0  0.99584  0.65655  0.45433  1.0000
  H   H17       1.0  0.3017699999999999  0.4035  0.35579  1.0000
  H   H18       1.0  0.72816  0.49873  0.39083  1.0000
  H   H19       1.0  0.79831  0.47388  0.0155  1.0000
  H   H20       1.0  0.19503  0.05761  0.1903  1.0000
  H   H21       1.0  0.02470999999999999  0.58119  0.09417  1.0000
  H   H22       1.0  0.08586  0.011120000000000003  0.09683  1.0000
  H   H23       1.0  0.66269  0.2875  0.31209  1.0000
  H   H24       1.0  0.85117  0.88193  0.0221  1.0000
  H   H25       1.0  0.54844  0.04535  0.2858  1.0000
  H   H26       1.0  0.26366  0.71618  0.13455  1.0000
  H   H27       1.0  0.21577  0.18584  0.27604  1.0000
  H   H28       1.0  0.49673000000000006  0.09213000000000006  0.9167900000000002  1.0000
  H   H29       1.0  0.6423599999999998  0.19668999999999998  0.05925  1.0000
  H   H30       1.0  0.7377100000000001  0.25486  0.98663  1.0000
  H   H31       1.0  0.24645999999999998  0.94201  0.96595  1.0000
  H   H32       1.0  0.34131  0.0036  0.04555  1.0000
  H   H33       1.0  0.40564  0.3041  0.85537  1.0000
  H   H34       1.0  0.50249  0.73132  0.88949  1.0000
  H   H35       1.0  0.47479999999999994  0.80012  0.51634  1.0000
  H   H36       1.0  0.061239999999999996  0.1985  0.68967  1.0000
  H   H37       1.0  0.58283  0.026210000000000004  0.59532  1.0000
  H   H38       1.0  0.012349999999999993  0.08657999999999999  0.59728  1.0000
  H   H39       1.0  0.2914299999999999  0.66592  0.8105100000000001  1.0000
  H   H40       1.0  0.88301  0.85289  0.52222  1.0000
  H   H41       1.0  0.049439999999999984  0.5522  0.78485  1.0000
  H   H42       1.0  0.71848  0.26565999999999995  0.63439  1.0000
  H   H43       1.0  0.18730000000000005  0.21800000000000003  0.7756700000000001  1.0000
  H   H44       1.0  0.09414  0.49839  0.41688000000000003  1.0000
  H   H45       1.0  0.19778999999999988  0.64349  0.55944  1.0000
  H   H46       1.0  0.25586  0.73876  0.48684  1.0000
  H   H47       1.0  0.9442399999999999  0.2479  0.46583  1.0000
  H   H48       1.0  0.004799999999999957  0.34234999999999993  0.54544  1.0000
  H   H49       1.0  0.69934  0.5982  0.64327  1.0000
  H   H50       1.0  0.27208000000000004  0.50165  0.60942  1.0000
  H   H51       1.0  0.19976999999999998  0.52607  0.98517  1.0000
  H   H52       1.0  0.8044  0.94128  0.81006  1.0000
  H   H53       1.0  0.97356  0.41814  0.90623  1.0000
  H   H54       1.0  0.9161399999999998  0.98982  0.9025500000000001  1.0000
  H   H55       1.0  0.3376699999999999  0.71244  0.68849  1.0000
  H   H56       1.0  0.14997  0.11939000000000002  0.97775  1.0000
  H   H57       1.0  0.45229  0.95458  0.7140100000000001  1.0000
  H   H58       1.0  0.73606  0.28304  0.86566  1.0000
  H   H59       1.0  0.78559  0.81591  0.72321  1.0000
  H   H60       1.0  0.50324  0.90681  0.08371  1.0000
  H   H61       1.0  0.35741  0.80266  0.94122  1.0000
  H   H62       1.0  0.26193  0.74448  0.01373  1.0000
  H   H63       1.0  0.75311  0.0569  0.03407000000000001  1.0000
  H   H64       1.0  0.6576700000000001  0.9955700000000001  0.9545900000000002  1.0000
  C   C1        1.0  0.62663  0.62199  0.15528  1.0000
  C   C2        1.0  0.57171  0.38327  0.13645  1.0000
  C   C3        1.0  0.7883499999999999  0.5694599999999999  0.21379000000000004  1.0000
  C   C4        1.0  0.74799  0.51254  0.52545  1.0000
  C   C5        1.0  0.40823  0.1342  0.46438  1.0000
  C   C6        1.0  0.1927900000000001  0.9231300000000001  0.39370000000000005  1.0000
  C   C7        1.0  0.9230499999999999  0.61761  0.25721000000000005  1.0000
  C   C8        1.0  0.99109  0.74261  0.30475  1.0000
  C   C9        1.0  0.34576  0.005829999999999989  0.4206  1.0000
  C   C10       1.0  0.12291000000000003  0.79146  0.34468000000000004  1.0000
  C   C11       1.0  0.11041000000000002  0.97601  0.41728000000000004  1.0000
  C   C12       1.0  0.69163  0.42173999999999995  0.18081  1.0000
  C   C13       1.0  0.18091  0.10581999999999998  0.46055  1.0000
  C   C14       1.0  0.9948  0.54372  0.25246  1.0000
  C   C15       1.0  0.18304000000000004  0.70716  0.33507  1.0000
  C   C16       1.0  0.7479  0.66802  0.2006  1.0000
  C   C17       1.0  0.88454  0.50897  0.53103  1.0000
  C   C18       1.0  0.8419999999999999  0.36161  0.49241  1.0000
  C   C19       1.0  0.02494999999999996  0.64854  0.50549  1.0000
  C   C20       1.0  0.37741  0.37244  0.34534  1.0000
  C   C21       1.0  0.61491  0.42497  0.3651  1.0000
  C   C22       1.0  0.42877  0.20927999999999997  0.28726  1.0000
  C   C23       1.0  0.48749000000000003  0.25226000000000004  0.9749600000000002  1.0000
  C   C24       1.0  0.86414  0.59178  0.03589  1.0000
  C   C25       1.0  0.0759  0.80706  0.10636  1.0000
  C   C26       1.0  0.38026000000000004  0.07461  0.24372  1.0000
  C   C27       1.0  0.25585  0.007309999999999995  0.19583  1.0000
  C   C28       1.0  0.9926699999999999  0.65403  0.07952  1.0000
  C   C29       1.0  0.20731999999999992  0.87605  0.15553  1.0000
  C   C30       1.0  0.023719999999999967  0.88991  0.08254000000000002  1.0000
  C   C31       1.0  0.57603  0.30467  0.32088  1.0000
  C   C32       1.0  0.8935899999999999  0.8195599999999998  0.03944000000000001  1.0000
  C   C33       1.0  0.45325999999999994  0.0019599999999999986  0.24864  1.0000
  C   C34       1.0  0.29118  0.81542  0.16518  1.0000
  C   C35       1.0  0.3311  0.25113  0.29998  1.0000
  C   C36       1.0  0.4908100000000001  0.11548999999999998  0.96927  1.0000
  C   C37       1.0  0.6385899999999999  0.15846  0.00772  1.0000
  C   C38       1.0  0.35104  0.9748499999999999  0.99465  1.0000
  C   C39       1.0  0.37493000000000004  0.37988  0.8445600000000001  1.0000
  C   C40       1.0  0.42859  0.61799  0.86386  1.0000
  C   C41       1.0  0.2125  0.43181  0.78633  1.0000
  C   C42       1.0  0.25319  0.48791  0.47497000000000006  1.0000
  C   C43       1.0  0.59303  0.86618  0.53627  1.0000
  C   C44       1.0  0.80882  0.07778999999999998  0.60654  1.0000
  C   C45       1.0  0.07776000000000012  0.38337000000000004  0.7429500000000001  1.0000
  C   C46       1.0  0.010279999999999985  0.25868  0.6953  1.0000
  C   C47       1.0  0.65558  0.9945199999999998  0.58006  1.0000
  C   C48       1.0  0.8784  0.20960000000000004  0.6554200000000001  1.0000
  C   C49       1.0  0.8913600000000003  0.0253  0.5827400000000001  1.0000
  C   C50       1.0  0.30845  0.57925  0.81959  1.0000
  C   C51       1.0  0.8207500000000001  0.89547  0.53945  1.0000
  C   C52       1.0  0.005409999999999961  0.45661  0.74788  1.0000
  C   C53       1.0  0.8178999999999998  0.29356  0.66501  1.0000
  C   C54       1.0  0.2536  0.33366  0.79926  1.0000
  C   C55       1.0  0.11702000000000008  0.49202000000000007  0.46936000000000005  1.0000
  C   C56       1.0  0.15954  0.6394499999999999  0.50787  1.0000
  C   C57       1.0  0.9762800000000001  0.35211  0.49451  1.0000
  C   C58       1.0  0.62342  0.62859  0.6542500000000001  1.0000
  C   C59       1.0  0.38537  0.57523  0.6351  1.0000
  C   C60       1.0  0.5716799999999997  0.7907499999999998  0.71287  1.0000
  C   C61       1.0  0.51279  0.74751  0.02527  1.0000
  C   C62       1.0  0.13458  0.40826  0.9646700000000001  1.0000
  C   C63       1.0  0.9240600000000001  0.19298  0.89375  1.0000
  C   C64       1.0  0.62009  0.92525  0.7564100000000001  1.0000
  C   C65       1.0  0.74422  0.99222  0.80438  1.0000
  C   C66       1.0  0.006260000000000013  0.34576  0.92086  1.0000
  C   C67       1.0  0.79279  0.12365000000000001  0.84454  1.0000
  C   C68       1.0  0.9770800000000002  0.11069000000000002  0.9173100000000001  1.0000
  C   C69       1.0  0.4242600000000001  0.69527  0.67948  1.0000
  C   C70       1.0  0.10682000000000004  0.18126000000000003  0.9606400000000002  1.0000
  C   C71       1.0  0.5471300000000001  0.99788  0.75133  1.0000
  C   C72       1.0  0.70881  0.18411999999999998  0.8348700000000001  1.0000
  C   C73       1.0  0.66982  0.74976  0.69971  1.0000
  C   C74       1.0  0.50901  0.88394  0.03113  1.0000
  C   C75       1.0  0.3611699999999999  0.84094  0.99273  1.0000
  C   C76       1.0  0.64849  0.024449999999999996  0.00559  1.0000
  N   N1        1.0  0.53997  0.48215  0.12064  1.0000
  N   N2        1.0  0.33032  0.1888  0.48411  1.0000
  N   N3        1.0  0.11939000000000002  0.58579  0.29066000000000003  1.0000
  N   N4        1.0  0.5169  0.45825  0.3803500000000001  1.0000
  N   N5        1.0  0.80973  0.66987  0.01623  1.0000
  N   N6        1.0  0.41149  0.87792  0.21011000000000002  1.0000
  N   N7        1.0  0.46108999999999994  0.51949  0.87939  1.0000
  N   N8        1.0  0.67113  0.81208  0.51617  1.0000
  N   N9        1.0  0.88097  0.41456000000000004  0.70957  1.0000
  N   N10       1.0  0.48356  0.54231  0.6196  1.0000
  N   N11       1.0  0.18968000000000002  0.33065  0.98422  1.0000
  N   N12       1.0  0.58856  0.1217  0.78993  1.0000
  O   O1        1.0  0.7530499999999999  0.60922  0.4902600000000001  1.0000
  O   O2        1.0  0.63056  0.4138  0.5537  1.0000
  O   O3        1.0  0.39156  0.24754  0.01049  1.0000
  O   O4        1.0  0.58523  0.36928999999999995  0.9463000000000001  1.0000
  O   O5        1.0  0.24776  0.39122  0.51026  1.0000
  O   O6        1.0  0.37048  0.58557  0.4464  1.0000
  O   O7        1.0  0.6084999999999999  0.7523599999999999  0.98959  1.0000
  O   O8        1.0  0.41541000000000006  0.63051  0.05403000000000001  1.0000
