data_image0
_chemical_formula_structural       Cu8H52C84N40
_chemical_formula_sum              "Cu8 H52 C84 N40"
_cell_length_a       10.90014
_cell_length_b       18.11596
_cell_length_c       18.11278
_cell_angle_alpha    62.51618
_cell_angle_beta     87.55459
_cell_angle_gamma    87.55593

_symmetry_space_group_name_H-M    'P 1'
_symmetry_Int_Tables_number       1

loop_
  _symmetry_equiv_pos_as_xyz
  'x,y,z'

loop_
  _atom_site_type_symbol
  _atom_site_label
  _atom_site_symmetry_multiplicity
  _atom_site_fract_x
  _atom_site_fract_y
  _atom_site_fract_z
  _atom_site_occupancy
  Cu  Cu1       1.0  0.53893  0.6036400000000001  0.50389  1.0000
  Cu  Cu2       1.0  0.96115  0.49617000000000006  0.39639  1.0000
  Cu  Cu3       1.0  0.46108  0.39636000000000005  0.49611  1.0000
  Cu  Cu4       1.0  0.038849999999999996  0.50383  0.60361  1.0000
  Cu  Cu5       1.0  0.25009  0.54438  0.45561  1.0000
  Cu  Cu6       1.0  0.74992  0.4556200000000001  0.54439  1.0000
  Cu  Cu7       1.0  0.75021  0.64516  0.35485  1.0000
  Cu  Cu8       1.0  0.2498  0.3548399999999999  0.6451400000000003  1.0000
  H   H1        1.0  0.10042  0.54358  0.76698  1.0000
  H   H2        1.0  0.54188  0.62302  0.67271  1.0000
  H   H3        1.0  0.44916  0.7819300000000002  0.86815  1.0000
  H   H4        1.0  0.5749899999999999  0.7598000000000004  0.81458  1.0000
  H   H5        1.0  0.59938  0.7652400000000001  0.90932  1.0000
  H   H6        1.0  0.7068199999999999  0.6244400000000003  0.96477  1.0000
  H   H7        1.0  0.6301499999999999  0.5374899999999999  0.9706600000000002  1.0000
  H   H8        1.0  0.6755  0.6171800000000003  0.87163  1.0000
  H   H9        1.0  0.23403  0.57619  0.26418  1.0000
  H   H10       1.0  0.6781000000000003  0.65115  0.17256  1.0000
  H   H11       1.0  0.06498999999999999  0.6136000000000001  0.9570900000000002  1.0000
  H   H12       1.0  0.11377  0.51356  0.02979  1.0000
  H   H13       1.0  0.10063  0.5927300000000001  0.06179  1.0000
  H   H14       1.0  0.39924000000000004  0.23301999999999995  0.4565  1.0000
  H   H15       1.0  0.9578800000000001  0.32737  0.37692  1.0000
  H   H16       1.0  0.05078  0.13185  0.21801  1.0000
  H   H17       1.0  0.9249  0.18530999999999997  0.24021  1.0000
  H   H18       1.0  0.9006600000000001  0.09056000000000002  0.23479  1.0000
  H   H19       1.0  0.7932799999999999  0.035030000000000006  0.37549  1.0000
  H   H20       1.0  0.86977  0.02920999999999995  0.4624900000000001  1.0000
  H   H21       1.0  0.82442  0.12818000000000002  0.38275  1.0000
  H   H22       1.0  0.26654  0.73587  0.42368  1.0000
  H   H23       1.0  0.82241  0.8274600000000003  0.34893  1.0000
  H   H24       1.0  0.43507  0.043219999999999995  0.38645  1.0000
  H   H25       1.0  0.38642  0.9704600000000001  0.4864900000000001  1.0000
  H   H26       1.0  0.3996700000000001  0.9385000000000001  0.40729  1.0000
  H   H27       1.0  0.89958  0.45642  0.23302000000000006  1.0000
  H   H28       1.0  0.45812  0.3769799999999999  0.32729  1.0000
  H   H29       1.0  0.55085  0.21807  0.13185  1.0000
  H   H30       1.0  0.42502000000000006  0.24020000000000002  0.18542  1.0000
  H   H31       1.0  0.40063  0.23476  0.09068  1.0000
  H   H32       1.0  0.29319  0.37556  0.03523  1.0000
  H   H33       1.0  0.36985000000000007  0.46251  0.02934000000000001  1.0000
  H   H34       1.0  0.3245  0.38282000000000005  0.12837  1.0000
  H   H35       1.0  0.7659800000000001  0.42381  0.73582  1.0000
  H   H36       1.0  0.32191  0.3488499999999999  0.8274400000000002  1.0000
  H   H37       1.0  0.93502  0.3864000000000001  0.04291  1.0000
  H   H38       1.0  0.8862300000000001  0.48644  0.9702  1.0000
  H   H39       1.0  0.89937  0.40727  0.93821  1.0000
  H   H40       1.0  0.60077  0.7669800000000001  0.5435  1.0000
  H   H41       1.0  0.04213000000000001  0.6726299999999998  0.6230800000000002  1.0000
  H   H42       1.0  0.94923  0.8681499999999999  0.78199  1.0000
  H   H43       1.0  0.07511000000000001  0.81469  0.7597900000000002  1.0000
  H   H44       1.0  0.09935000000000001  0.9094400000000001  0.76521  1.0000
  H   H45       1.0  0.20672999999999994  0.9649700000000001  0.62451  1.0000
  H   H46       1.0  0.13024  0.9707900000000002  0.5375100000000003  1.0000
  H   H47       1.0  0.17558000000000004  0.8718200000000002  0.61724  1.0000
  H   H48       1.0  0.73346  0.26413  0.57632  1.0000
  H   H49       1.0  0.17759  0.17253999999999997  0.65107  1.0000
  H   H50       1.0  0.56494  0.95678  0.61355  1.0000
  H   H51       1.0  0.61359  0.02954000000000003  0.51351  1.0000
  H   H52       1.0  0.60034  0.0615  0.59271  1.0000
  C   C1        1.0  0.36923  0.58357  0.64694  1.0000
  C   C2        1.0  0.24551000000000006  0.5601599999999999  0.6741300000000002  1.0000
  C   C3        1.0  0.19471999999999998  0.56046  0.74571  1.0000
  C   C4        1.0  0.27153  0.58428  0.79187  1.0000
  C   C5        1.0  0.39869  0.6058199999999999  0.76461  1.0000
  C   C6        1.0  0.44719000000000003  0.606  0.6918800000000003  1.0000
  C   C7        1.0  0.42907  0.6263700000000001  0.8789600000000002  1.0000
  C   C8        1.0  0.30236  0.60597  0.90612  1.0000
  C   C9        1.0  0.25682000000000005  0.6022099999999998  0.9827800000000002  1.0000
  C   C10       1.0  0.33843999999999996  0.6120400000000003  0.03711  1.0000
  C   C11       1.0  0.46612  0.63259  0.01268  1.0000
  C   C12       1.0  0.51642  0.65088  0.92664  1.0000
  C   C13       1.0  0.5358  0.7462299999999998  0.87623  1.0000
  C   C14       1.0  0.64101  0.60468  0.93383  1.0000
  C   C15       1.0  0.50159  0.6259100000000001  0.14041000000000006  1.0000
  C   C16       1.0  0.3735800000000001  0.60501  0.16562  1.0000
  C   C17       1.0  0.32942  0.59176  0.24522000000000005  1.0000
  C   C18       1.0  0.4123799999999999  0.6009100000000003  0.29636  1.0000
  C   C19       1.0  0.53703  0.62269  0.27065  1.0000
  C   C20       1.0  0.58342  0.63483  0.19302000000000005  1.0000
  C   C21       1.0  0.12639  0.58036  0.00946  1.0000
  C   C22       1.0  0.13057000000000002  0.35313  0.41635  1.0000
  C   C23       1.0  0.25425999999999993  0.32592000000000004  0.43981  1.0000
  C   C24       1.0  0.30497  0.2543099999999999  0.43961  1.0000
  C   C25       1.0  0.22811  0.20814  0.41584  1.0000
  C   C26       1.0  0.10096000000000002  0.23538  0.39427  1.0000
  C   C27       1.0  0.05254000000000001  0.30816  0.39399  1.0000
  C   C28       1.0  0.07075999999999998  0.12103000000000001  0.3737  1.0000
  C   C29       1.0  0.19747  0.09391  0.39412  1.0000
  C   C30       1.0  0.24329  0.017320000000000002  0.39784  1.0000
  C   C31       1.0  0.16191999999999998  0.96293  0.38793  1.0000
  C   C32       1.0  0.03421999999999998  0.9873200000000001  0.36735  1.0000
  C   C33       1.0  0.9836500000000001  0.07329999999999999  0.34912  1.0000
  C   C34       1.0  0.96419  0.1237  0.25377  1.0000
  C   C35       1.0  0.85899  0.06599  0.39528  1.0000
  C   C36       1.0  0.9989900000000002  0.8596200000000003  0.37399  1.0000
  C   C37       1.0  0.12702  0.8344400000000001  0.39489  1.0000
  C   C38       1.0  0.17114  0.7548400000000001  0.40814  1.0000
  C   C39       1.0  0.08813  0.7036799999999999  0.39904  1.0000
  C   C40       1.0  0.9634400000000001  0.72935  0.3773600000000001  1.0000
  C   C41       1.0  0.9171  0.80698  0.36518  1.0000
  C   C42       1.0  0.37377  0.9908  0.4196800000000001  1.0000
  C   C43       1.0  0.63077  0.41643  0.3530600000000001  1.0000
  C   C44       1.0  0.7545000000000001  0.43984  0.32586  1.0000
  C   C45       1.0  0.80528  0.43954000000000015  0.25429  1.0000
  C   C46       1.0  0.72848  0.41572000000000014  0.20812  1.0000
  C   C47       1.0  0.60132  0.3941800000000001  0.23539  1.0000
  C   C48       1.0  0.55282  0.3940000000000002  0.30812  1.0000
  C   C49       1.0  0.57094  0.37363  0.12104  1.0000
  C   C50       1.0  0.69764  0.39403  0.09388000000000003  1.0000
  C   C51       1.0  0.74319  0.39779  0.01721  1.0000
  C   C52       1.0  0.6615699999999999  0.38795999999999997  0.9628800000000002  1.0000
  C   C53       1.0  0.53388  0.36741  0.98732  1.0000
  C   C54       1.0  0.48359  0.34912  0.07336  1.0000
  C   C55       1.0  0.46421  0.25377  0.12377  1.0000
  C   C56       1.0  0.35900000000000004  0.39532  0.06616  1.0000
  C   C57       1.0  0.4984099999999999  0.37409000000000014  0.85959  1.0000
  C   C58       1.0  0.62643  0.3949900000000001  0.83438  1.0000
  C   C59       1.0  0.67059  0.40823999999999994  0.75478  1.0000
  C   C60       1.0  0.58763  0.39908999999999994  0.70364  1.0000
  C   C61       1.0  0.46297  0.37731000000000003  0.72935  1.0000
  C   C62       1.0  0.41659  0.36517  0.80698  1.0000
  C   C63       1.0  0.87361  0.41964000000000007  0.99054  1.0000
  C   C64       1.0  0.8694400000000001  0.6468700000000001  0.58365  1.0000
  C   C65       1.0  0.74574  0.67408  0.56018  1.0000
  C   C66       1.0  0.6950400000000001  0.74569  0.56039  1.0000
  C   C67       1.0  0.7719  0.79186  0.5841600000000002  1.0000
  C   C68       1.0  0.8990500000000001  0.76462  0.60573  1.0000
  C   C69       1.0  0.94746  0.6918399999999999  0.6060100000000003  1.0000
  C   C70       1.0  0.9292499999999998  0.87897  0.6263  1.0000
  C   C71       1.0  0.80254  0.9060899999999997  0.6058800000000002  1.0000
  C   C72       1.0  0.7567100000000001  0.9826800000000001  0.60215  1.0000
  C   C73       1.0  0.83809  0.037070000000000006  0.61207  1.0000
  C   C74       1.0  0.9657900000000001  0.012680000000000007  0.63265  1.0000
  C   C75       1.0  0.016359999999999993  0.9267000000000001  0.65088  1.0000
  C   C76       1.0  0.03582000000000001  0.8763  0.74623  1.0000
  C   C77       1.0  0.14102  0.9340100000000001  0.60472  1.0000
  C   C78       1.0  0.0010199999999999944  0.14038000000000006  0.62601  1.0000
  C   C79       1.0  0.87298  0.16556000000000004  0.60511  1.0000
  C   C80       1.0  0.8288699999999998  0.24515999999999993  0.59186  1.0000
  C   C81       1.0  0.9118800000000001  0.2963199999999999  0.60095  1.0000
  C   C82       1.0  0.036570000000000005  0.27065000000000006  0.62264  1.0000
  C   C83       1.0  0.08291000000000001  0.19301999999999997  0.63482  1.0000
  C   C84       1.0  0.6262400000000001  0.009199999999999998  0.58031  1.0000
  N   N1        1.0  0.3892  0.5788500000000001  0.57424  1.0000
  N   N2        1.0  0.28467  0.55266  0.55777  1.0000
  N   N3        1.0  0.19674  0.5407200000000001  0.61648  1.0000
  N   N4        1.0  0.47408  0.62679  0.81045  1.0000
  N   N5        1.0  0.22560999999999995  0.58607  0.8617600000000002  1.0000
  N   N6        1.0  0.29478  0.59898  0.11286000000000003  1.0000
  N   N7        1.0  0.54375  0.63884  0.06287  1.0000
  N   N8        1.0  0.3968  0.59352  0.37519  1.0000
  N   N9        1.0  0.50386  0.6104400000000002  0.39626  1.0000
  N   N10       1.0  0.59037  0.62851  0.33469  1.0000
  N   N11       1.0  0.11069999999999999  0.42586999999999997  0.4209700000000001  1.0000
  N   N12       1.0  0.21526  0.44234999999999997  0.4471500000000001  1.0000
  N   N13       1.0  0.30313  0.3836000000000001  0.45916  1.0000
  N   N14       1.0  0.025559999999999996  0.18947  0.37335  1.0000
  N   N15       1.0  0.27404  0.13825000000000004  0.41413  1.0000
  N   N16       1.0  0.20578  0.8872400000000001  0.40091  1.0000
  N   N17       1.0  0.95675  0.93713  0.361  1.0000
  N   N18       1.0  0.10365  0.62486  0.4064300000000001  1.0000
  N   N19       1.0  0.99652  0.60376  0.38962  1.0000
  N   N20       1.0  0.91003  0.6653200000000001  0.37158  1.0000
  N   N21       1.0  0.6108  0.42115  0.42576  1.0000
  N   N22       1.0  0.7153400000000002  0.44734000000000007  0.44223  1.0000
  N   N23       1.0  0.8032700000000002  0.45928  0.38352  1.0000
  N   N24       1.0  0.52592  0.37321  0.18955  1.0000
  N   N25       1.0  0.7744  0.4139300000000002  0.13824  1.0000
  N   N26       1.0  0.70523  0.40102  0.88714  1.0000
  N   N27       1.0  0.45626  0.36116  0.93713  1.0000
  N   N28       1.0  0.60321  0.4064799999999999  0.6248100000000002  1.0000
  N   N29       1.0  0.49614  0.38956  0.60374  1.0000
  N   N30       1.0  0.40964  0.3714900000000001  0.66531  1.0000
  N   N31       1.0  0.8893099999999998  0.57413  0.57902  1.0000
  N   N32       1.0  0.78474  0.5576499999999999  0.5528500000000002  1.0000
  N   N33       1.0  0.6968799999999999  0.6164000000000002  0.54084  1.0000
  N   N34       1.0  0.9744500000000001  0.81053  0.62665  1.0000
  N   N35       1.0  0.72597  0.8617500000000001  0.58587  1.0000
  N   N36       1.0  0.79423  0.11276  0.59909  1.0000
  N   N37       1.0  0.04325999999999999  0.06287000000000002  0.63899  1.0000
  N   N38       1.0  0.89636  0.37514  0.59357  1.0000
  N   N39       1.0  0.0034899999999999905  0.39624000000000004  0.61038  1.0000
  N   N40       1.0  0.08997  0.33468000000000003  0.62842  1.0000
