data_image0
_chemical_formula_structural       Na2Ag14H40C60N50
_chemical_formula_sum              "Na2 Ag14 H40 C60 N50"
_cell_length_a       10.28152
_cell_length_b       14.27845
_cell_length_c       19.00355
_cell_angle_alpha    65.97167
_cell_angle_beta     120.93169
_cell_angle_gamma    115.76977000000001

_symmetry_space_group_name_H-M    'P 1'
_symmetry_Int_Tables_number       1

loop_
  _symmetry_equiv_pos_as_xyz
  'x,y,z'

loop_
  _atom_site_type_symbol
  _atom_site_label
  _atom_site_symmetry_multiplicity
  _atom_site_fract_x
  _atom_site_fract_y
  _atom_site_fract_z
  _atom_site_occupancy
  Na  Na1       1.0  0.7025999999999999  0.28269999999999995  0.16983999999999994  1.0000
  Na  Na2       1.0  0.29197000000000006  0.70355  0.83333  1.0000
  Ag  Ag1       1.0  0.5690199999999999  0.42601000000000006  0.17564999999999995  1.0000
  Ag  Ag2       1.0  0.8886300000000001  0.4749600000000001  0.24326  1.0000
  Ag  Ag3       1.0  0.12186999999999994  0.63944  0.37885999999999986  1.0000
  Ag  Ag4       1.0  0.5762099999999998  0.67308  0.22324999999999995  1.0000
  Ag  Ag5       1.0  0.15912999999999994  0.8794  0.59289  1.0000
  Ag  Ag6       1.0  0.28873999999999966  0.3790800000000001  0.9147099999999998  1.0000
  Ag  Ag7       1.0  0.15307999999999997  0.11001  0.04738  1.0000
  Ag  Ag8       1.0  0.4380099999999998  0.5652299999999998  0.82908  1.0000
  Ag  Ag9       1.0  0.11840999999999989  0.5148200000000002  0.7600599999999997  1.0000
  Ag  Ag10      1.0  0.8794599999999999  0.35692  0.62013  1.0000
  Ag  Ag11      1.0  0.42766999999999994  0.32210000000000016  0.7777299999999998  1.0000
  Ag  Ag12      1.0  0.8414  0.11932000000000005  0.4041599999999999  1.0000
  Ag  Ag13      1.0  0.7190000000000001  0.6112400000000001  0.09010999999999997  1.0000
  Ag  Ag14      1.0  0.8454099999999999  0.8781200000000001  0.9510599999999998  1.0000
  H   H1        1.0  0.30333  0.83275  0.32281  1.0000
  H   H2        1.0  0.48957  0.98174  0.39104  1.0000
  H   H3        1.0  0.87631  0.88249  0.46550999999999987  1.0000
  H   H4        1.0  0.70599  0.72684  0.40254  1.0000
  H   H5        1.0  0.6935100000000001  0.53495  0.52793  1.0000
  H   H6        1.0  0.45037999999999984  0.3839  0.4814599999999999  1.0000
  H   H7        1.0  0.82656  0.51471  0.35346  1.0000
  H   H8        1.0  0.58864  0.36344  0.31995  1.0000
  H   H9        1.0  0.1701599999999999  0.99117  0.3454699999999999  1.0000
  H   H10       1.0  0.1266199999999999  0.12427000000000005  0.3775399999999999  1.0000
  H   H11       1.0  0.6637799999999998  0.8787599999999998  0.21013  1.0000
  H   H12       1.0  0.63707  0.013640000000000001  0.24668  1.0000
  H   H13       1.0  0.83683  0.38261  0.8831099999999997  1.0000
  H   H14       1.0  0.9764999999999997  0.2591600000000001  0.9078899999999998  1.0000
  H   H15       1.0  0.12601  0.19073  0.16818  1.0000
  H   H16       1.0  0.9928899999999999  0.31102  0.15336  1.0000
  H   H17       1.0  0.5804200000000002  0.17810000000000006  0.84359  1.0000
  H   H18       1.0  0.69386  0.06689  0.8313  1.0000
  H   H19       1.0  0.7370499999999999  0.03034  0.11036  1.0000
  H   H20       1.0  0.8489299999999999  0.92636  0.08859999999999997  1.0000
  H   H21       1.0  0.69686  0.16564  0.67233  1.0000
  H   H22       1.0  0.5077999999999999  0.019180000000000093  0.6014899999999997  1.0000
  H   H23       1.0  0.12413000000000002  0.11661999999999999  0.53467  1.0000
  H   H24       1.0  0.2971999999999999  0.27024000000000004  0.5999599999999998  1.0000
  H   H25       1.0  0.30841999999999986  0.46234  0.4716799999999999  1.0000
  H   H26       1.0  0.5517299999999998  0.6128000000000001  0.5195699999999998  1.0000
  H   H27       1.0  0.1727700000000001  0.4797500000000001  0.64612  1.0000
  H   H28       1.0  0.4112899999999997  0.63007  0.68152  1.0000
  H   H29       1.0  0.83333  0.012279999999999975  0.64957  1.0000
  H   H30       1.0  0.8745699999999998  0.8790400000000002  0.6163299999999998  1.0000
  H   H31       1.0  0.33859999999999996  0.11509000000000004  0.79191  1.0000
  H   H32       1.0  0.3632499999999999  0.9808800000000001  0.7531799999999997  1.0000
  H   H33       1.0  0.16890000000000002  0.60941  0.1205  1.0000
  H   H34       1.0  0.027070000000000035  0.73304  0.09316  1.0000
  H   H35       1.0  0.8695899999999998  0.79055  0.83301  1.0000
  H   H36       1.0  0.004440000000000038  0.67001  0.85059  1.0000
  H   H37       1.0  0.42265  0.81338  0.15503999999999996  1.0000
  H   H38       1.0  0.30945000000000006  0.92483  0.16678999999999994  1.0000
  H   H39       1.0  0.25872999999999974  0.95537  0.8873699999999998  1.0000
  H   H40       1.0  0.14803000000000005  0.06081000000000001  0.90856  1.0000
  C   C1        1.0  0.37975000000000003  0.6733800000000001  0.31914  1.0000
  C   C2        1.0  0.4872900000000001  0.7643700000000001  0.35621  1.0000
  C   C3        1.0  0.42896000000000006  0.83863  0.3551  1.0000
  C   C4        1.0  0.53345  0.9235500000000001  0.39256  1.0000
  C   C5        1.0  0.74807  0.86801  0.43412  1.0000
  C   C6        1.0  0.65257  0.78147  0.39750999999999986  1.0000
  C   C7        1.0  0.9242599999999997  0.62626  0.4729799999999999  1.0000
  C   C8        1.0  0.78258  0.53831  0.44540999999999986  1.0000
  C   C9        1.0  0.6718799999999999  0.49953999999999993  0.4805899999999999  1.0000
  C   C10       1.0  0.5369899999999999  0.41514  0.4547099999999999  1.0000
  C   C11       1.0  0.7487299999999999  0.48937  0.3849499999999999  1.0000
  C   C12       1.0  0.61218  0.4036  0.36539  1.0000
  C   C13       1.0  0.9380399999999998  0.8500799999999998  0.24598999999999993  1.0000
  C   C14       1.0  0.92026  0.92302  0.27387  1.0000
  C   C15       1.0  0.050680000000000155  0.9946  0.32213  1.0000
  C   C16       1.0  0.026369999999999998  0.06882  0.34038  1.0000
  C   C17       1.0  0.7693099999999997  0.9303699999999999  0.24851999999999994  1.0000
  C   C18       1.0  0.75428  0.007430000000000029  0.2680499999999999  1.0000
  C   C19       1.0  0.8081800000000002  0.42126000000000013  0.99974  1.0000
  C   C20       1.0  0.89571  0.35283  0.015489999999999997  1.0000
  C   C21       1.0  0.8980399999999998  0.33996999999999994  0.94675  1.0000
  C   C22       1.0  0.97797  0.2733600000000001  0.9604999999999998  1.0000
  C   C23       1.0  0.05924999999999998  0.23371000000000006  0.10614999999999997  1.0000
  C   C24       1.0  0.982  0.29935  0.09718999999999997  1.0000
  C   C25       1.0  0.5734999999999998  0.16838000000000006  0.99049  1.0000
  C   C26       1.0  0.6418899999999998  0.10977000000000012  0.9782499999999997  1.0000
  C   C27       1.0  0.6329299999999999  0.12002000000000002  0.899  1.0000
  C   C28       1.0  0.69739  0.05898  0.89159  1.0000
  C   C29       1.0  0.7237399999999999  0.03928  0.04773  1.0000
  C   C30       1.0  0.7855599999999999  0.98117  0.03592999999999998  1.0000
  C   C31       1.0  0.6237599999999998  0.32297000000000003  0.6811799999999998  1.0000
  C   C32       1.0  0.5146599999999998  0.23323999999999995  0.64274  1.0000
  C   C33       1.0  0.5712999999999998  0.16002  0.64113  1.0000
  C   C34       1.0  0.46523  0.07628999999999998  0.60245  1.0000
  C   C35       1.0  0.25229999999999986  0.13093000000000005  0.5649499999999997  1.0000
  C   C36       1.0  0.34942000000000006  0.21641000000000005  0.60275  1.0000
  C   C37       1.0  0.07645999999999982  0.37024999999999997  0.52598  1.0000
  C   C38       1.0  0.2181299999999998  0.45787000000000005  0.5540699999999997  1.0000
  C   C39       1.0  0.32948999999999984  0.4971300000000001  0.5192499999999998  1.0000
  C   C40       1.0  0.46453  0.5810399999999999  0.54601  1.0000
  C   C41       1.0  0.2513799999999999  0.50579  0.61496  1.0000
  C   C42       1.0  0.38818999999999987  0.59101  0.63554  1.0000
  C   C43       1.0  0.0659999999999998  0.14831000000000003  0.7529899999999998  1.0000
  C   C44       1.0  0.08305  0.07578  0.7244  1.0000
  C   C45       1.0  0.9520399999999999  0.00680999999999999  0.67403  1.0000
  C   C46       1.0  0.97509  0.9325499999999999  0.65517  1.0000
  C   C47       1.0  0.23316999999999982  0.06592000000000008  0.7513599999999998  1.0000
  C   C48       1.0  0.2468299999999998  0.9891199999999999  0.7308  1.0000
  C   C49       1.0  0.19527999999999998  0.56614  0.00476  1.0000
  C   C50       1.0  0.10667999999999979  0.6342500000000001  0.9882999999999997  1.0000
  C   C51       1.0  0.10567000000000006  0.64986  0.05634  1.0000
  C   C52       1.0  0.024650000000000068  0.71662  0.04120999999999998  1.0000
  C   C53       1.0  0.9391199999999998  0.7505  0.89568  1.0000
  C   C54       1.0  0.01743999999999991  0.68471  0.9060499999999998  1.0000
  C   C55       1.0  0.42718999999999996  0.81974  0.00896  1.0000
  C   C56       1.0  0.35772  0.87878  0.02002  1.0000
  C   C57       1.0  0.36848  0.8704  0.09923  1.0000
  C   C58       1.0  0.3040699999999999  0.9316999999999999  0.10627999999999997  1.0000
  C   C59       1.0  0.27391999999999994  0.9479499999999998  0.95008  1.0000
  C   C60       1.0  0.21255999999999978  0.006770000000000068  0.9615299999999998  1.0000
  N   N1        1.0  0.40314999999999995  0.62334  0.28071  1.0000
  N   N2        1.0  0.26881  0.54226  0.25687  1.0000
  N   N3        1.0  0.16791999999999993  0.54264  0.2796199999999999  1.0000
  N   N4        1.0  0.6935600000000001  0.9408800000000002  0.4319  1.0000
  N   N5        1.0  0.043169999999999924  0.67422  0.44631  1.0000
  N   N6        1.0  0.1443599999999999  0.7547199999999998  0.48519  1.0000
  N   N7        1.0  0.08649000000000001  0.75351  0.5341  1.0000
  N   N8        1.0  0.95041  0.67484  0.52843  1.0000
  N   N9        1.0  0.5059400000000001  0.36551000000000006  0.39864  1.0000
  N   N10       1.0  0.06034000000000002  0.87318  0.22663  1.0000
  N   N11       1.0  0.02301999999999989  0.79406  0.19239999999999993  1.0000
  N   N12       1.0  0.88483  0.72473  0.19181999999999994  1.0000
  N   N13       1.0  0.8279699999999999  0.7575499999999998  0.22546  1.0000
  N   N14       1.0  0.87933  0.07778000000000002  0.31337  1.0000
  N   N15       1.0  0.8006299999999998  0.44315000000000004  0.060209999999999986  1.0000
  N   N16       1.0  0.71417  0.51233  0.018199999999999994  1.0000
  N   N17       1.0  0.6695599999999998  0.5302600000000001  0.9347799999999998  1.0000
  N   N18       1.0  0.72563  0.47342  0.92156  1.0000
  N   N19       1.0  0.05780999999999996  0.21973999999999994  0.03915  1.0000
  N   N20       1.0  0.58448  0.16084  0.06687  1.0000
  N   N21       1.0  0.4994799999999999  0.22259  0.05044999999999999  1.0000
  N   N22       1.0  0.4413999999999998  0.2670700000000001  0.9680899999999998  1.0000
  N   N23       1.0  0.4850499999999996  0.23412000000000005  0.9285999999999998  1.0000
  N   N24       1.0  0.7726799999999998  0.9893800000000003  0.9586899999999998  1.0000
  N   N25       1.0  0.23334999999999986  0.6232099999999999  0.3185199999999999  1.0000
  N   N26       1.0  0.6023599999999999  0.3719199999999999  0.72126  1.0000
  N   N27       1.0  0.7381199999999997  0.45164  0.7462799999999998  1.0000
  N   N28       1.0  0.8379099999999997  0.45153000000000004  0.7225999999999998  1.0000
  N   N29       1.0  0.3051799999999999  0.058900000000000084  0.5647299999999997  1.0000
  N   N30       1.0  0.9575099999999999  0.32185  0.5526399999999999  1.0000
  N   N31       1.0  0.8562699999999999  0.24173  0.51334  1.0000
  N   N32       1.0  0.9141999999999999  0.24368000000000006  0.4641899999999999  1.0000
  N   N33       1.0  0.05032999999999996  0.3223500000000001  0.4701399999999999  1.0000
  N   N34       1.0  0.4951799999999998  0.62954  0.6027099999999997  1.0000
  N   N35       1.0  0.9430099999999999  0.1252000000000001  0.7717599999999998  1.0000
  N   N36       1.0  0.9808599999999998  0.20328  0.80713  1.0000
  N   N37       1.0  0.12004999999999981  0.2720300000000001  0.8088999999999997  1.0000
  N   N38       1.0  0.1769199999999998  0.23984000000000008  0.7748899999999997  1.0000
  N   N39       1.0  0.12109000000000002  0.9213299999999999  0.68336  1.0000
  N   N40       1.0  0.20360000000000014  0.5442100000000001  0.9445499999999998  1.0000
  N   N41       1.0  0.2910999999999998  0.47567  0.9868999999999998  1.0000
  N   N42       1.0  0.3354  0.45805  0.07027  1.0000
  N   N43       1.0  0.27824  0.51458  0.08307999999999997  1.0000
  N   N44       1.0  0.9423299999999997  0.76763  0.9618999999999998  1.0000
  N   N45       1.0  0.4175499999999999  0.82644  0.93311  1.0000
  N   N46       1.0  0.5044700000000001  0.7652500000000001  0.95071  1.0000
  N   N47       1.0  0.56234  0.72194  0.03325  1.0000
  N   N48       1.0  0.5167300000000001  0.7550300000000001  0.07173  1.0000
  N   N49       1.0  0.22717  0.00022000000000000432  0.03879999999999999  1.0000
  N   N50       1.0  0.7702299999999999  0.37255999999999995  0.68187  1.0000
