data_image0
_chemical_formula_structural       La4H48C72N36O24
_chemical_formula_sum              "La4 H48 C72 N36 O24"
_cell_length_a       8.55157
_cell_length_b       12.1696
_cell_length_c       25.52394
_cell_angle_alpha    90.08821000000002
_cell_angle_beta     90.04490000000001
_cell_angle_gamma    93.02713999999999

_symmetry_space_group_name_H-M    'P 1'
_symmetry_Int_Tables_number       1

loop_
  _symmetry_equiv_pos_as_xyz
  'x,y,z'

loop_
  _atom_site_type_symbol
  _atom_site_label
  _atom_site_symmetry_multiplicity
  _atom_site_fract_x
  _atom_site_fract_y
  _atom_site_fract_z
  _atom_site_occupancy
  La  La1       1.0  0.24535  0.98431  0.97798  1.0000
  La  La2       1.0  0.25332  0.01546  0.47742  1.0000
  La  La3       1.0  0.75465  0.01569  0.02202  1.0000
  La  La4       1.0  0.74668  0.9845399999999999  0.52257  1.0000
  H   H1        1.0  0.44173  0.8379699999999999  0.82118  1.0000
  H   H2        1.0  0.35505  0.95271  0.7934400000000001  1.0000
  H   H3        1.0  0.13809  0.70035  0.8568100000000002  1.0000
  H   H4        1.0  0.91073  0.5674099999999999  0.69218  1.0000
  H   H5        1.0  0.50719  0.26697  0.69984  1.0000
  H   H6        1.0  0.59177  0.3566699999999999  0.7820200000000003  1.0000
  H   H7        1.0  0.89099  0.5984799999999999  0.86035  1.0000
  H   H8        1.0  0.48862  0.30204999999999993  0.8718200000000002  1.0000
  H   H9        1.0  0.33616  0.29099  0.9646900000000002  1.0000
  H   H10       1.0  0.43632  0.35862  0.0176  1.0000
  H   H11       1.0  0.39713999999999994  0.29441  0.55718  1.0000
  H   H12       1.0  0.35119  0.213  0.6128100000000001  1.0000
  H   H13       1.0  0.05767  0.16227  0.32084  1.0000
  H   H14       1.0  0.14365  0.04773  0.29245  1.0000
  H   H15       1.0  0.36206  0.29992  0.35691  1.0000
  H   H16       1.0  0.58805  0.43242  0.19207000000000002  1.0000
  H   H17       1.0  0.99152  0.73348  0.20010000000000006  1.0000
  H   H18       1.0  0.90845  0.6432099999999998  0.28182  1.0000
  H   H19       1.0  0.60964  0.4019499999999999  0.36022000000000004  1.0000
  H   H20       1.0  0.012130000000000005  0.69856  0.37199000000000004  1.0000
  H   H21       1.0  0.16441  0.7103499999999999  0.46492  1.0000
  H   H22       1.0  0.06573  0.64165  0.51762  1.0000
  H   H23       1.0  0.10180999999999998  0.7051399999999998  0.057390000000000004  1.0000
  H   H24       1.0  0.14826999999999999  0.7870399999999999  0.11301  1.0000
  H   H25       1.0  0.55826  0.16201999999999997  0.17881000000000005  1.0000
  H   H26       1.0  0.64495  0.04728999999999999  0.20655  1.0000
  H   H27       1.0  0.86191  0.29964999999999997  0.14318  1.0000
  H   H28       1.0  0.08927  0.43259  0.30782000000000004  1.0000
  H   H29       1.0  0.49281  0.73303  0.30016  1.0000
  H   H30       1.0  0.40823  0.64333  0.21798000000000003  1.0000
  H   H31       1.0  0.10899999999999999  0.40152  0.13965000000000002  1.0000
  H   H32       1.0  0.51137  0.69795  0.12817  1.0000
  H   H33       1.0  0.66383  0.70901  0.0353  1.0000
  H   H34       1.0  0.56368  0.6413799999999998  0.9823900000000001  1.0000
  H   H35       1.0  0.60285  0.70559  0.44282  1.0000
  H   H36       1.0  0.6488  0.7869999999999999  0.38719000000000003  1.0000
  H   H37       1.0  0.94233  0.83773  0.6791600000000002  1.0000
  H   H38       1.0  0.85634  0.95227  0.70755  1.0000
  H   H39       1.0  0.63794  0.70008  0.64309  1.0000
  H   H40       1.0  0.41194000000000003  0.56758  0.80792  1.0000
  H   H41       1.0  0.008470000000000004  0.26652  0.79989  1.0000
  H   H42       1.0  0.09154  0.35679  0.7181700000000002  1.0000
  H   H43       1.0  0.39035  0.59805  0.63978  1.0000
  H   H44       1.0  0.98787  0.30143999999999993  0.62801  1.0000
  H   H45       1.0  0.83558  0.28965  0.53508  1.0000
  H   H46       1.0  0.93427  0.35835  0.48237  1.0000
  H   H47       1.0  0.89819  0.29485999999999996  0.94261  1.0000
  H   H48       1.0  0.85172  0.21296  0.88698  1.0000
  C   C1        1.0  0.29448  0.9224499999999998  0.8738  1.0000
  C   C2        1.0  0.33244  0.8820599999999997  0.8195700000000001  1.0000
  C   C3        1.0  0.03712999999999999  0.6822799999999998  0.77507  1.0000
  C   C4        1.0  0.12704  0.72494  0.8163600000000001  1.0000
  C   C5        1.0  0.91828  0.59163  0.77603  1.0000
  C   C6        1.0  0.86391  0.54013  0.7298100000000002  1.0000
  C   C7        1.0  0.74604  0.45538  0.73165  1.0000
  C   C8        1.0  0.68024  0.41001999999999994  0.6827  1.0000
  C   C9        1.0  0.56961  0.3242399999999999  0.67399  1.0000
  C   C10       1.0  0.68569  0.42043  0.78043  1.0000
  C   C11       1.0  0.73868  0.47203  0.8268  1.0000
  C   C12       1.0  0.85444  0.55764  0.8241400000000002  1.0000
  C   C13       1.0  0.67308  0.44281999999999994  0.87809  1.0000
  C   C14       1.0  0.55987  0.36316999999999994  0.8930700000000001  1.0000
  C   C15       1.0  0.53147  0.20486999999999997  0.9955  1.0000
  C   C16       1.0  0.45185  0.30977  0.9818400000000003  1.0000
  C   C17       1.0  0.54409  0.15782  0.56697  1.0000
  C   C18       1.0  0.44877999999999996  0.24891999999999995  0.5895  1.0000
  C   C19       1.0  0.20337  0.07528  0.37292  1.0000
  C   C20       1.0  0.16657  0.11766  0.31908  1.0000
  C   C21       1.0  0.46278  0.31740999999999997  0.2751700000000001  1.0000
  C   C22       1.0  0.37293  0.27496  0.31645  1.0000
  C   C23       1.0  0.58165  0.40823999999999994  0.27596  1.0000
  C   C24       1.0  0.63541  0.45968  0.22971000000000003  1.0000
  C   C25       1.0  0.7532999999999999  0.54453  0.23154000000000005  1.0000
  C   C26       1.0  0.81868  0.59021  0.18266  1.0000
  C   C27       1.0  0.9293  0.6760799999999999  0.17415000000000003  1.0000
  C   C28       1.0  0.81449  0.57945  0.28031  1.0000
  C   C29       1.0  0.76214  0.52802  0.32669000000000004  1.0000
  C   C30       1.0  0.64616  0.4425  0.32401  1.0000
  C   C31       1.0  0.82812  0.55745  0.37801  1.0000
  C   C32       1.0  0.94108  0.63735  0.39314000000000004  1.0000
  C   C33       1.0  0.96892  0.7953899999999998  0.4963800000000001  1.0000
  C   C34       1.0  0.04906  0.69093  0.48211  1.0000
  C   C35       1.0  0.95505  0.8421399999999999  0.06706  1.0000
  C   C36       1.0  0.05045  0.75107  0.08969  1.0000
  C   C37       1.0  0.70551  0.07755  0.1262  1.0000
  C   C38       1.0  0.66756  0.11794  0.18042000000000005  1.0000
  C   C39       1.0  0.96286  0.31772  0.22492  1.0000
  C   C40       1.0  0.87296  0.27504999999999996  0.18364  1.0000
  C   C41       1.0  0.08171  0.40836999999999996  0.22397000000000003  1.0000
  C   C42       1.0  0.13609  0.45987  0.27019000000000004  1.0000
  C   C43       1.0  0.25395  0.54462  0.26835  1.0000
  C   C44       1.0  0.31975  0.58997  0.3173  1.0000
  C   C45       1.0  0.43039  0.6757599999999998  0.326  1.0000
  C   C46       1.0  0.31431  0.57957  0.21956000000000006  1.0000
  C   C47       1.0  0.26132  0.52797  0.17319  1.0000
  C   C48       1.0  0.14555  0.4423599999999999  0.17586  1.0000
  C   C49       1.0  0.32691  0.55718  0.12191000000000003  1.0000
  C   C50       1.0  0.44013  0.63683  0.10693  1.0000
  C   C51       1.0  0.46851999999999994  0.7951299999999998  0.0045  1.0000
  C   C52       1.0  0.54814  0.6902299999999999  0.01816  1.0000
  C   C53       1.0  0.4559  0.84218  0.4330300000000001  1.0000
  C   C54       1.0  0.55121  0.75107  0.41049  1.0000
  C   C55       1.0  0.79662  0.92472  0.6270700000000001  1.0000
  C   C56       1.0  0.83342  0.88233  0.6809100000000001  1.0000
  C   C57       1.0  0.53721  0.6825899999999999  0.72482  1.0000
  C   C58       1.0  0.62707  0.72504  0.68354  1.0000
  C   C59       1.0  0.41835  0.59176  0.72404  1.0000
  C   C60       1.0  0.36458  0.54032  0.77029  1.0000
  C   C61       1.0  0.24669  0.45546999999999993  0.76845  1.0000
  C   C62       1.0  0.18132  0.40978999999999993  0.81733  1.0000
  C   C63       1.0  0.07069  0.32392  0.8258500000000001  1.0000
  C   C64       1.0  0.1855  0.42053999999999997  0.71968  1.0000
  C   C65       1.0  0.23784999999999998  0.47198  0.6733000000000002  1.0000
  C   C66       1.0  0.35384  0.5575  0.67598  1.0000
  C   C67       1.0  0.17187  0.44253999999999993  0.62199  1.0000
  C   C68       1.0  0.05892  0.36265  0.60686  1.0000
  C   C69       1.0  0.031070000000000004  0.20461  0.50362  1.0000
  C   C70       1.0  0.9509299999999999  0.30906999999999996  0.51789  1.0000
  C   C71       1.0  0.04494  0.15786  0.93293  1.0000
  C   C72       1.0  0.9495399999999999  0.24891999999999995  0.9103100000000001  1.0000
  N   N1        1.0  0.21128  0.8114299999999999  0.79546  1.0000
  N   N2        1.0  0.17911000000000002  0.8226  0.74347  1.0000
  N   N3        1.0  0.07387  0.74356  0.73136  1.0000
  N   N4        1.0  0.71668  0.4569699999999999  0.6348  1.0000
  N   N5        1.0  0.63501  0.40565  0.5977100000000001  1.0000
  N   N6        1.0  0.5438  0.32491  0.6214  1.0000
  N   N7        1.0  0.54553  0.37678  0.94574  1.0000
  N   N8        1.0  0.645  0.45946  0.9634000000000003  1.0000
  N   N9        1.0  0.7210399999999999  0.49982  0.9224700000000001  1.0000
  N   N10       1.0  0.28863  0.18826  0.29551  1.0000
  N   N11       1.0  0.32096  0.17675  0.24354000000000003  1.0000
  N   N12       1.0  0.42613  0.2557  0.23148000000000005  1.0000
  N   N13       1.0  0.78212  0.54341  0.13467  1.0000
  N   N14       1.0  0.86377  0.5947399999999999  0.09770000000000002  1.0000
  N   N15       1.0  0.9551600000000001  0.6753999999999998  0.12155  1.0000
  N   N16       1.0  0.95543  0.6239199999999999  0.44582  1.0000
  N   N17       1.0  0.85618  0.54111  0.46333000000000013  1.0000
  N   N18       1.0  0.78033  0.50051  0.42232  1.0000
  N   N19       1.0  0.78872  0.18856999999999993  0.20454000000000006  1.0000
  N   N20       1.0  0.82088  0.1774  0.25653  1.0000
  N   N21       1.0  0.9261299999999999  0.25644  0.26864  1.0000
  N   N22       1.0  0.28332  0.54303  0.36519  1.0000
  N   N23       1.0  0.36498  0.59434  0.40228  1.0000
  N   N24       1.0  0.45619999999999994  0.67509  0.3785900000000001  1.0000
  N   N25       1.0  0.45446  0.62322  0.05426  1.0000
  N   N26       1.0  0.35499  0.54053  0.0366  1.0000
  N   N27       1.0  0.27896  0.50017  0.07753  1.0000
  N   N28       1.0  0.71136  0.8117399999999999  0.7044900000000001  1.0000
  N   N29       1.0  0.67903  0.8232499999999998  0.75645  1.0000
  N   N30       1.0  0.57386  0.7442999999999997  0.76851  1.0000
  N   N31       1.0  0.21786999999999998  0.4565899999999999  0.86533  1.0000
  N   N32       1.0  0.13622  0.40525999999999995  0.9023000000000002  1.0000
  N   N33       1.0  0.04484  0.32459  0.8784400000000002  1.0000
  N   N34       1.0  0.044559999999999995  0.37607999999999997  0.55418  1.0000
  N   N35       1.0  0.14382  0.45888999999999996  0.53666  1.0000
  N   N36       1.0  0.21965999999999997  0.49949  0.57767  1.0000
  O   O1        1.0  0.4063  0.9727699999999999  0.89898  1.0000
  O   O2        1.0  0.15829  0.90506  0.8942  1.0000
  O   O3        1.0  0.67939  0.20513  0.99721  1.0000
  O   O4        1.0  0.44509  0.11732999999999998  0.00562  1.0000
  O   O5        1.0  0.68769  0.1554  0.57683  1.0000
  O   O6        1.0  0.47463  0.08383  0.53686  1.0000
  O   O7        1.0  0.09281  0.021699999999999994  0.3969600000000001  1.0000
  O   O8        1.0  0.3381  0.09466  0.39423000000000014  1.0000
  O   O9        1.0  0.82096  0.79501  0.49731  1.0000
  O   O10       1.0  0.05483  0.88271  0.50784  1.0000
  O   O11       1.0  0.81166  0.8447  0.07682  1.0000
  O   O12       1.0  0.02472999999999998  0.9159299999999998  0.03695  1.0000
  O   O13       1.0  0.59369  0.02723  0.10101  1.0000
  O   O14       1.0  0.8417  0.09494  0.10579000000000001  1.0000
  O   O15       1.0  0.3206  0.7948699999999997  0.00278  1.0000
  O   O16       1.0  0.5549  0.8826699999999997  0.99438  1.0000
  O   O17       1.0  0.31231000000000003  0.8446  0.42317000000000005  1.0000
  O   O18       1.0  0.52536  0.91616  0.4631300000000001  1.0000
  O   O19       1.0  0.90718  0.9783  0.60303  1.0000
  O   O20       1.0  0.6619  0.9053299999999997  0.60576  1.0000
  O   O21       1.0  0.17904  0.20499  0.50269  1.0000
  O   O22       1.0  0.9451699999999998  0.11729  0.49216  1.0000
  O   O23       1.0  0.18832999999999994  0.1553  0.92318  1.0000
  O   O24       1.0  0.97527  0.08406999999999999  0.9630400000000002  1.0000
