data_image0
_chemical_formula_structural       Cd2H84C60N24
_chemical_formula_sum              "Cd2 H84 C60 N24"
_cell_length_a       13.07503
_cell_length_b       13.41063
_cell_length_c       13.41054
_cell_angle_alpha    119.92786000000001
_cell_angle_beta     90.0291
_cell_angle_gamma    90.03089

_space_group_name_H-M_alt    "P 1"
_space_group_IT_number       1

loop_
  _space_group_symop_operation_xyz
  'x, y, z'

loop_
  _atom_site_type_symbol
  _atom_site_label
  _atom_site_symmetry_multiplicity
  _atom_site_fract_x
  _atom_site_fract_y
  _atom_site_fract_z
  _atom_site_occupancy
  Cd  Cd1       1.0  0.11812999999999997  2e-05  6e-05  1.0000
  Cd  Cd2       1.0  0.61814  0.33338999999999996  0.66667  1.0000
  H   H1        1.0  0.19477999999999998  0.68073  0.17173000000000002  1.0000
  H   H2        1.0  0.32876999999999995  0.6852  0.18947000000000006  1.0000
  H   H3        1.0  0.3490399999999999  0.5353000000000001  0.9813200000000002  1.0000
  H   H4        1.0  0.21509999999999999  0.5263000000000001  0.9643400000000002  1.0000
  H   H5        1.0  0.33202999999999994  0.473  0.13186  1.0000
  H   H6        1.0  0.19944999999999993  0.45273  0.10181  1.0000
  H   H7        1.0  0.28314  0.26788  0.99294  1.0000
  H   H8        1.0  0.23793999999999996  0.31038000000000016  0.8955800000000003  1.0000
  H   H9        1.0  0.1241  0.83301  0.13336  1.0000
  H   H10       1.0  0.36062000000000005  0.8663400000000002  0.9386600000000002  1.0000
  H   H11       1.0  0.42155  0.70486  0.9993800000000002  1.0000
  H   H12       1.0  0.38097999999999993  0.38726  0.80117  1.0000
  H   H13       1.0  0.6211599999999998  0.1933100000000001  0.8291400000000001  1.0000
  H   H14       1.0  0.47065999999999997  0.22179000000000015  0.9890800000000002  1.0000
  H   H15       1.0  0.82936  0.82974  0.47727000000000014  1.0000
  H   H16       1.0  0.69516  0.84298  0.4948000000000001  1.0000
  H   H17       1.0  0.71579  0.8957399999999999  0.7023900000000002  1.0000
  H   H18       1.0  0.8497399999999999  0.8871500000000001  0.6849800000000001  1.0000
  H   H19       1.0  0.6991999999999999  0.68504  0.56474  1.0000
  H   H20       1.0  0.83169  0.6749500000000002  0.5346600000000001  1.0000
  H   H21       1.0  0.7378999999999999  0.74822  0.7709800000000002  1.0000
  H   H22       1.0  0.7830399999999997  0.60867  0.67383  1.0000
  H   H23       1.0  0.6241399999999998  0.03322000000000001  0.53373  1.0000
  H   H24       1.0  0.8603499999999998  0.26107  0.7290700000000001  1.0000
  H   H25       1.0  0.9222199999999999  0.039190000000000016  0.6674100000000001  1.0000
  H   H26       1.0  0.8813099999999998  0.91922  0.86521  1.0000
  H   H27       1.0  0.12127999999999997  0.69739  0.8373300000000002  1.0000
  H   H28       1.0  0.9704599999999998  0.5663800000000001  0.6773400000000002  1.0000
  H   H29       1.0  0.19555999999999996  0.49073  0.31839  1.0000
  H   H30       1.0  0.32973  0.50367  0.31414  1.0000
  H   H31       1.0  0.34944999999999987  0.4463  0.4649400000000001  1.0000
  H   H32       1.0  0.21557  0.43813  0.47364  1.0000
  H   H33       1.0  0.3319899999999999  0.6589500000000001  0.5264300000000001  1.0000
  H   H34       1.0  0.19961999999999996  0.64882  0.54643  1.0000
  H   H35       1.0  0.28324  0.72489  0.73153  1.0000
  H   H36       1.0  0.23793999999999996  0.5851900000000001  0.68921  1.0000
  H   H37       1.0  0.12436  0.30050999999999994  0.16690000000000002  1.0000
  H   H38       1.0  0.36051  0.07265  0.13401000000000002  1.0000
  H   H39       1.0  0.42215  0.29432  0.2949300000000001  1.0000
  H   H40       1.0  0.3810499999999999  0.41441  0.61311  1.0000
  H   H41       1.0  0.62181  0.6358200000000002  0.8063000000000002  1.0000
  H   H42       1.0  0.47065999999999997  0.7674  0.7786400000000001  1.0000
  H   H43       1.0  0.8300299999999998  0.64741  0.17019000000000004  1.0000
  H   H44       1.0  0.69586  0.65155  0.15733000000000003  1.0000
  H   H45       1.0  0.71581  0.80674  0.10452  1.0000
  H   H46       1.0  0.8496799999999998  0.79815  0.11292  1.0000
  H   H47       1.0  0.69962  0.87954  0.31524  1.0000
  H   H48       1.0  0.8319899999999998  0.85955  0.32549  1.0000
  H   H49       1.0  0.73813  0.022440000000000012  0.25174  1.0000
  H   H50       1.0  0.7833799999999997  0.06464999999999997  0.39145  1.0000
  H   H51       1.0  0.6243899999999999  0.5004300000000002  0.9670700000000002  1.0000
  H   H52       1.0  0.8604499999999999  0.46754  0.73912  1.0000
  H   H53       1.0  0.9224099999999998  0.62799  0.9608500000000001  1.0000
  H   H54       1.0  0.8812599999999998  0.94627  0.081  1.0000
  H   H55       1.0  0.1218  0.13972  0.30260000000000004  1.0000
  H   H56       1.0  0.9707599999999998  0.11165  0.43399  1.0000
  H   H57       1.0  0.19485  0.8282499999999999  0.5096  1.0000
  H   H58       1.0  0.32904999999999995  0.81053  0.49627  1.0000
  H   H59       1.0  0.34949999999999987  0.018390000000000063  0.5537800000000002  1.0000
  H   H60       1.0  0.21555  0.03568000000000005  0.5621500000000001  1.0000
  H   H61       1.0  0.33168  0.8680900000000001  0.34148000000000006  1.0000
  H   H62       1.0  0.19918999999999995  0.89806  0.35146  1.0000
  H   H63       1.0  0.28288  0.007280000000000001  0.27523  1.0000
  H   H64       1.0  0.23768999999999996  0.10431000000000001  0.4147700000000001  1.0000
  H   H65       1.0  0.1241  0.8667699999999999  0.69982  1.0000
  H   H66       1.0  0.36041  0.06206000000000009  0.9275600000000003  1.0000
  H   H67       1.0  0.42194  0.0009200000000000633  0.7057300000000001  1.0000
  H   H68       1.0  0.38108999999999993  0.19866  0.58579  1.0000
  H   H69       1.0  0.6213  0.17068000000000003  0.3641400000000001  1.0000
  H   H70       1.0  0.4703499999999999  0.010890000000000009  0.23295  1.0000
  H   H71       1.0  0.8291099999999998  0.5227100000000001  0.35191000000000006  1.0000
  H   H72       1.0  0.6951199999999997  0.5052  0.34756000000000004  1.0000
  H   H73       1.0  0.7153299999999998  0.29764  0.1932  1.0000
  H   H74       1.0  0.8492799999999999  0.31472000000000006  0.20207000000000003  1.0000
  H   H75       1.0  0.69945  0.43511  0.11962000000000003  1.0000
  H   H76       1.0  0.8320399999999998  0.46528  0.13987  1.0000
  H   H77       1.0  0.73812  0.22890000000000016  0.9771300000000003  1.0000
  H   H78       1.0  0.7832799999999998  0.32639000000000007  0.9347500000000001  1.0000
  H   H79       1.0  0.62415  0.46641  0.49945  1.0000
  H   H80       1.0  0.86053  0.27158  0.53278  1.0000
  H   H81       1.0  0.9218299999999998  0.33285  0.37179  1.0000
  H   H82       1.0  0.8811899999999998  0.1346  0.054090000000000006  1.0000
  H   H83       1.0  0.12115999999999998  0.16252000000000008  0.8598900000000002  1.0000
  H   H84       1.0  0.97074  0.32264000000000004  0.8887500000000002  1.0000
  C   C1        1.0  0.2676  0.66679  0.12585  1.0000
  C   C2        1.0  0.2768399999999999  0.54291  0.02653000000000001  1.0000
  C   C3        1.0  0.27448  0.45291  0.06456  1.0000
  C   C4        1.0  0.29407  0.33103  0.96444  1.0000
  C   C5        1.0  0.19638999999999995  0.82205  0.08977  1.0000
  C   C6        1.0  0.32092999999999994  0.8356599999999998  0.9889600000000001  1.0000
  C   C7        1.0  0.35342  0.75729  0.0205  1.0000
  C   C8        1.0  0.42737  0.3416900000000001  0.8324200000000003  1.0000
  C   C9        1.0  0.54864  0.23792000000000016  0.8478800000000002  1.0000
  C   C10       1.0  0.47516  0.2507300000000001  0.9269800000000002  1.0000
  C   C11       1.0  0.76808  0.8746500000000001  0.5406500000000001  1.0000
  C   C12       1.0  0.7772699999999998  0.85002  0.6400500000000001  1.0000
  C   C13       1.0  0.77435  0.72212  0.60203  1.0000
  C   C14       1.0  0.7940199999999998  0.70022  0.7022  1.0000
  C   C15       1.0  0.69662  0.06571  0.5771  1.0000
  C   C16       1.0  0.82088  0.1801  0.67837  1.0000
  C   C17       1.0  0.85384  0.07035000000000001  0.64632  1.0000
  C   C18       1.0  0.9275999999999999  0.8425500000000001  0.8342400000000001  1.0000
  C   C19       1.0  0.04875  0.72332  0.8186900000000001  1.0000
  C   C20       1.0  0.97518  0.65724  0.73949  1.0000
  C   C21       1.0  0.26827  0.45895  0.33284  1.0000
  C   C22       1.0  0.27725999999999995  0.4837  0.45690000000000003  1.0000
  C   C23       1.0  0.27467  0.61159  0.54659  1.0000
  C   C24       1.0  0.29421  0.63337  0.66864  1.0000
  C   C25       1.0  0.19649  0.26791  0.17835  1.0000
  C   C26       1.0  0.32092  0.15354999999999996  0.16473000000000002  1.0000
  C   C27       1.0  0.35371  0.26326  0.24285  1.0000
  C   C28       1.0  0.42761999999999994  0.49106  0.65842  1.0000
  C   C29       1.0  0.5491  0.6100599999999999  0.7619300000000002  1.0000
  C   C30       1.0  0.47538999999999987  0.6764  0.7494  1.0000
  C   C31       1.0  0.76851  0.66604  0.1255  1.0000
  C   C32       1.0  0.77743  0.7900799999999999  0.15021  1.0000
  C   C33       1.0  0.77472  0.87973  0.2781  1.0000
  C   C34       1.0  0.7943299999999998  0.0017699999999999634  0.29992  1.0000
  C   C35       1.0  0.69659  0.5117600000000001  0.9344800000000001  1.0000
  C   C36       1.0  0.82093  0.49817  0.82007  1.0000
  C   C37       1.0  0.85387  0.57606  0.92976  1.0000
  C   C38       1.0  0.92778  0.99163  0.15765  1.0000
  C   C39       1.0  0.04913  0.09529000000000001  0.27679000000000004  1.0000
  C   C40       1.0  0.97549  0.08250000000000002  0.34301000000000004  1.0000
  C   C41       1.0  0.26783  0.8740000000000001  0.5412  1.0000
  C   C42       1.0  0.27708  0.9733799999999999  0.51653  1.0000
  C   C43       1.0  0.2742899999999999  0.93541  0.38863  1.0000
  C   C44       1.0  0.29389  0.035630000000000064  0.3667600000000001  1.0000
  C   C45       1.0  0.19649999999999995  0.9102700000000002  0.7322900000000002  1.0000
  C   C46       1.0  0.32086999999999993  0.011510000000000074  0.8466600000000001  1.0000
  C   C47       1.0  0.3536799999999999  0.9796400000000002  0.7368500000000002  1.0000
  C   C48       1.0  0.42743  0.16763  0.50912  1.0000
  C   C49       1.0  0.5486999999999999  0.15206000000000003  0.39003  1.0000
  C   C50       1.0  0.4750899999999999  0.07302  0.32386  1.0000
  C   C51       1.0  0.7678699999999998  0.45921  0.33358  1.0000
  C   C52       1.0  0.77702  0.35986  0.20972  1.0000
  C   C53       1.0  0.77453  0.39793  0.11975  1.0000
  C   C54       1.0  0.79418  0.29784999999999995  0.99788  1.0000
  C   C55       1.0  0.69652  0.42294000000000004  0.4886200000000001  1.0000
  C   C56       1.0  0.82093  0.32205000000000006  0.5022000000000001  1.0000
  C   C57       1.0  0.8535699999999999  0.35379000000000005  0.42408000000000007  1.0000
  C   C58       1.0  0.92753  0.16582  0.00848  1.0000
  C   C59       1.0  0.04865999999999999  0.18126999999999993  0.90458  1.0000
  C   C60       1.0  0.97525  0.2605  0.91762  1.0000
  N   N1        1.0  0.27296999999999993  0.74857  0.08498  1.0000
  N   N2        1.0  0.22499999999999998  0.87526  0.03202  1.0000
  N   N3        1.0  0.39588  0.3149900000000001  0.9154500000000002  1.0000
  N   N4        1.0  0.51858  0.29280999999999996  0.7890200000000002  1.0000
  N   N5        1.0  0.77351  0.99714  0.58147  1.0000
  N   N6        1.0  0.72482  0.17665000000000008  0.6354600000000001  1.0000
  N   N7        1.0  0.8959199999999998  0.73305  0.7511500000000001  1.0000
  N   N8        1.0  0.018879999999999997  0.83696  0.8776  1.0000
  N   N9        1.0  0.27331  0.33642  0.25156000000000006  1.0000
  N   N10       1.0  0.22486999999999993  0.15706000000000003  0.12527000000000002  1.0000
  N   N11       1.0  0.3959899999999999  0.60068  0.6852900000000001  1.0000
  N   N12       1.0  0.51902  0.49642000000000003  0.7070200000000001  1.0000
  N   N13       1.0  0.7735199999999999  0.58472  0.00296  1.0000
  N   N14       1.0  0.72482  0.45886000000000005  0.8235900000000002  1.0000
  N   N15       1.0  0.8961399999999998  0.018299999999999993  0.26724  1.0000
  N   N16       1.0  0.01914  0.04037000000000001  0.16313000000000002  1.0000
  N   N17       1.0  0.2732899999999999  0.9148700000000001  0.6637000000000001  1.0000
  N   N18       1.0  0.22486999999999993  0.9684399999999999  0.8432  1.0000
  N   N19       1.0  0.3957599999999999  0.08470999999999997  0.3996  1.0000
  N   N20       1.0  0.51876  0.21095999999999998  0.50365  1.0000
  N   N21       1.0  0.77321  0.41838  0.4154000000000001  1.0000
  N   N22       1.0  0.72494  0.36496  0.54165  1.0000
  N   N23       1.0  0.8960199999999998  0.24899000000000007  0.9819600000000003  1.0000
  N   N24       1.0  0.0187  0.1224100000000001  0.9594800000000002  1.0000
