data_image0
_chemical_formula_structural       Cu8H64C96S4N24O16
_chemical_formula_sum              "Cu8 H64 C96 S4 N24 O16"
_cell_length_a       12.51401
_cell_length_b       15.5774
_cell_length_c       19.85786
_cell_angle_alpha    113.16162
_cell_angle_beta     108.34065
_cell_angle_gamma    89.97301999999999

_space_group_name_H-M_alt    "P 1"
_space_group_IT_number       1

loop_
  _space_group_symop_operation_xyz
  'x, y, z'

loop_
  _atom_site_type_symbol
  _atom_site_label
  _atom_site_symmetry_multiplicity
  _atom_site_fract_x
  _atom_site_fract_y
  _atom_site_fract_z
  _atom_site_occupancy
  Cu  Cu1       1.0  0.16946000000000003  0.1568  0.02637  1.0000
  Cu  Cu2       1.0  0.8571400000000002  0.37067  0.025340000000000005  1.0000
  Cu  Cu3       1.0  0.3285300000000001  0.12997  0.97355  1.0000
  Cu  Cu4       1.0  0.64498  0.34532000000000007  0.9738700000000001  1.0000
  Cu  Cu5       1.0  0.25867  0.5078  0.5152  1.0000
  Cu  Cu6       1.0  0.24267  0.99208  0.48434  1.0000
  Cu  Cu7       1.0  0.25492000000000004  0.7493  0.49863  1.0000
  Cu  Cu8       1.0  0.24372  0.25112  0.50106  1.0000
  H   H1        1.0  0.22508  0.5234100000000003  0.66086  1.0000
  H   H2        1.0  0.07524  0.52048  0.63668  1.0000
  H   H3        1.0  0.16627000000000008  0.6021800000000002  0.7297600000000001  1.0000
  H   H4        1.0  0.9387700000000002  0.85265  0.63397  1.0000
  H   H5        1.0  0.9218700000000002  0.01423000000000001  0.62287  1.0000
  H   H6        1.0  0.13814000000000007  0.36488000000000004  0.5976400000000001  1.0000
  H   H7        1.0  0.14394000000000007  0.3690300000000001  0.6902400000000001  1.0000
  H   H8        1.0  0.01046999999999999  0.34745  0.61596  1.0000
  H   H9        1.0  0.91777  0.6466  0.65988  1.0000
  H   H10       1.0  0.8412100000000001  0.72052  0.76866  1.0000
  H   H11       1.0  0.9394900000000005  0.8749800000000001  0.8792400000000002  1.0000
  H   H12       1.0  0.20010000000000006  0.87254  0.78129  1.0000
  H   H13       1.0  0.8759  0.23694  0.63596  1.0000
  H   H14       1.0  0.81987  0.28616000000000014  0.7551600000000003  1.0000
  H   H15       1.0  0.9462100000000002  0.27058  0.87327  1.0000
  H   H16       1.0  0.1884900000000001  0.16524000000000016  0.7585300000000003  1.0000
  H   H17       1.0  0.43620000000000003  0.63872  0.66147  1.0000
  H   H18       1.0  0.5617000000000001  0.61732  0.63689  1.0000
  H   H19       1.0  0.56418  0.62898  0.73008  1.0000
  H   H20       1.0  0.69493  0.28202  0.63426  1.0000
  H   H21       1.0  0.7003400000000001  0.10872999999999994  0.62241  1.0000
  H   H22       1.0  0.4574000000000001  0.7331200000000002  0.59724  1.0000
  H   H23       1.0  0.54533  0.82118  0.6897  1.0000
  H   H24       1.0  0.6034300000000001  0.76774  0.61477  1.0000
  H   H25       1.0  0.74195  0.51319  0.65913  1.0000
  H   H26       1.0  0.9276100000000003  0.54886  0.76736  1.0000
  H   H27       1.0  0.9411700000000002  0.50585  0.87875  1.0000
  H   H28       1.0  0.5828500000000001  0.41025  0.782  1.0000
  H   H29       1.0  0.7592700000000002  0.89926  0.63618  1.0000
  H   H30       1.0  0.9336900000000002  0.96869  0.75543  1.0000
  H   H31       1.0  0.9253300000000004  0.10255000000000013  0.8740100000000002  1.0000
  H   H32       1.0  0.56946  0.09450000000000004  0.75901  1.0000
  H   H33       1.0  0.27427  0.86287  0.3394200000000001  1.0000
  H   H34       1.0  0.42412000000000005  0.88379  0.36362  1.0000
  H   H35       1.0  0.3332300000000001  0.87178  0.27034  1.0000
  H   H36       1.0  0.56116  0.21787000000000006  0.36625000000000013  1.0000
  H   H37       1.0  0.57855  0.39081  0.37731  1.0000
  H   H38       1.0  0.36126000000000014  0.76668  0.40169  1.0000
  H   H39       1.0  0.35656  0.67818  0.30923  1.0000
  H   H40       1.0  0.4895100000000001  0.7311  0.38409  1.0000
  H   H41       1.0  0.5814800000000002  0.98705  0.3395  1.0000
  H   H42       1.0  0.65728  0.95237  0.23037000000000005  1.0000
  H   H43       1.0  0.55767  0.99626  0.12007  1.0000
  H   H44       1.0  0.29845000000000005  0.09198  0.21942  1.0000
  H   H45       1.0  0.62401  0.60069  0.36422  1.0000
  H   H46       1.0  0.6805300000000001  0.531  0.24523  1.0000
  H   H47       1.0  0.55432  0.39751  0.12661  1.0000
  H   H48       1.0  0.31140000000000007  0.40586  0.24037  1.0000
  H   H49       1.0  0.06467999999999997  0.9775500000000003  0.3393  1.0000
  H   H50       1.0  0.93865  0.98144  0.36329  1.0000
  H   H51       1.0  0.9367200000000002  0.89962  0.2701700000000001  1.0000
  H   H52       1.0  0.80469  0.6481  0.36591  1.0000
  H   H53       1.0  0.7996600000000003  0.4863600000000001  0.37708000000000014  1.0000
  H   H54       1.0  0.04265000000000004  0.13636  0.40251  1.0000
  H   H55       1.0  0.9556500000000001  0.13205000000000003  0.30994000000000005  1.0000
  H   H56       1.0  0.89649  0.15362  0.38435  1.0000
  H   H57       1.0  0.7571100000000002  0.854  0.33969  1.0000
  H   H58       1.0  0.5720600000000002  0.78042  0.23096  1.0000
  H   H59       1.0  0.55989  0.62566  0.12013  1.0000
  H   H60       1.0  0.9183300000000004  0.6284000000000002  0.21796  1.0000
  H   H61       1.0  0.7411900000000002  0.26322  0.36333  1.0000
  H   H62       1.0  0.56691  0.21307000000000004  0.24385000000000004  1.0000
  H   H63       1.0  0.5753600000000001  0.22912  0.12571  1.0000
  H   H64       1.0  0.9315200000000002  0.33615  0.24144000000000002  1.0000
  C   C1        1.0  0.15719000000000008  0.56695  0.66782  1.0000
  C   C2        1.0  0.16281000000000007  0.63745  0.63585  1.0000
  C   C3        1.0  0.13857000000000008  0.7662600000000002  0.6141400000000001  1.0000
  C   C4        1.0  0.10196000000000001  0.85303  0.61532  1.0000
  C   C5        1.0  0.0026600000000000035  0.88956  0.62486  1.0000
  C   C6        1.0  0.99318  0.97551  0.61806  1.0000
  C   C7        1.0  0.08467000000000001  0.0053  0.60222  1.0000
  C   C8        1.0  0.10362000000000007  0.08590000000000002  0.5881800000000001  1.0000
  C   C9        1.0  0.1082  0.23225  0.59781  1.0000
  C   C10       1.0  0.09924000000000004  0.33425  0.62686  1.0000
  C   C11       1.0  0.06321000000000013  0.75539  0.7141300000000003  1.0000
  C   C12       1.0  0.9622000000000002  0.71164  0.70998  1.0000
  C   C13       1.0  0.9193300000000002  0.75395  0.77084  1.0000
  C   C14       1.0  0.9746900000000001  0.83941  0.83343  1.0000
  C   C15       1.0  0.07669000000000002  0.88193  0.83744  1.0000
  C   C16       1.0  0.12122000000000006  0.8388  0.77774  1.0000
  C   C17       1.0  0.13797  0.97585  0.90195  1.0000
  C   C18       1.0  0.03591  0.20039  0.69121  1.0000
  C   C19       1.0  0.93157  0.23337000000000002  0.68907  1.0000
  C   C20       1.0  0.90065  0.2603100000000001  0.7555900000000002  1.0000
  C   C21       1.0  0.9716100000000002  0.25197000000000014  0.82219  1.0000
  C   C22       1.0  0.07533999999999995  0.21727999999999995  0.82313  1.0000
  C   C23       1.0  0.10821000000000006  0.19247  0.75749  1.0000
  C   C24       1.0  0.14806  0.19915  0.89153  1.0000
  C   C25       1.0  0.5111000000000002  0.60219  0.6682300000000002  1.0000
  C   C26       1.0  0.4734700000000001  0.49971000000000004  0.63647  1.0000
  C   C27       1.0  0.4757000000000001  0.34908  0.61505  1.0000
  C   C28       1.0  0.51319  0.26319  0.61576  1.0000
  C   C29       1.0  0.62191  0.23584000000000002  0.62502  1.0000
  C   C30       1.0  0.6244  0.14298999999999995  0.61792  1.0000
  C   C31       1.0  0.51702  0.09739999999999994  0.60215  1.0000
  C   C32       1.0  0.4839900000000001  0.0027999999999999935  0.58824  1.0000
  C   C33       1.0  0.48842000000000013  0.8657899999999998  0.59755  1.0000
  C   C34       1.0  0.5260700000000001  0.79254  0.62626  1.0000
  C   C35       1.0  0.6514300000000003  0.4599500000000001  0.7142700000000002  1.0000
  C   C36       1.0  0.7481300000000001  0.49892  0.70955  1.0000
  C   C37       1.0  0.85216  0.51764  0.7700800000000002  1.0000
  C   C38       1.0  0.86008  0.49497000000000013  0.8328400000000002  1.0000
  C   C39       1.0  0.76232  0.45606  0.83689  1.0000
  C   C40       1.0  0.6578400000000002  0.4400000000000001  0.7778200000000002  1.0000
  C   C41       1.0  0.7655400000000001  0.42566  0.90079  1.0000
  C   C42       1.0  0.6541  0.9911100000000002  0.69144  1.0000
  C   C43       1.0  0.75625  0.9558  0.68933  1.0000
  C   C44       1.0  0.8535200000000001  0.9952200000000001  0.7559400000000002  1.0000
  C   C45       1.0  0.84922  0.07022000000000003  0.82264  1.0000
  C   C46       1.0  0.7466100000000002  0.10621000000000001  0.82339  1.0000
  C   C47       1.0  0.6483000000000002  0.06563999999999999  0.75773  1.0000
  C   C48       1.0  0.7420800000000002  0.19276000000000004  0.89168  1.0000
  C   C49       1.0  0.34225000000000005  0.89902  0.33228  1.0000
  C   C50       1.0  0.33661000000000013  0.0015400000000000023  0.36409  1.0000
  C   C51       1.0  0.36129  0.15225  0.38637  1.0000
  C   C52       1.0  0.3985100000000001  0.23788  0.38559  1.0000
  C   C53       1.0  0.4976500000000001  0.26433  0.37559  1.0000
  C   C54       1.0  0.5072600000000003  0.35699000000000003  0.3821700000000001  1.0000
  C   C55       1.0  0.4160000000000001  0.40299  0.39814  1.0000
  C   C56       1.0  0.3968700000000001  0.49752  0.41173  1.0000
  C   C57       1.0  0.39131000000000016  0.63397  0.4016400000000001  1.0000
  C   C58       1.0  0.40055000000000013  0.7068799999999998  0.37268  1.0000
  C   C59       1.0  0.43561000000000005  0.04129000000000001  0.2858  1.0000
  C   C60       1.0  0.5366  0.001770000000000015  0.28944  1.0000
  C   C61       1.0  0.57902  0.9834300000000002  0.22841  1.0000
  C   C62       1.0  0.52302  0.006550000000000004  0.16613  1.0000
  C   C63       1.0  0.4212300000000001  0.04539  0.16289  1.0000
  C   C64       1.0  0.3771700000000001  0.06157000000000002  0.22265  1.0000
  C   C65       1.0  0.3596100000000001  0.07577  0.09917  1.0000
  C   C66       1.0  0.4640500000000001  0.50868  0.30846  1.0000
  C   C67       1.0  0.56843  0.54408  0.3109100000000001  1.0000
  C   C68       1.0  0.59958  0.50469  0.24447000000000002  1.0000
  C   C69       1.0  0.52889  0.42968  0.17772  1.0000
  C   C70       1.0  0.42525  0.39375  0.17657  1.0000
  C   C71       1.0  0.39198000000000005  0.43439  0.24205000000000002  1.0000
  C   C72       1.0  0.3523700000000001  0.30743  0.10803  1.0000
  C   C73       1.0  0.9892699999999999  0.9345400000000003  0.33215  1.0000
  C   C74       1.0  0.02621999999999997  0.86368  0.36382  1.0000
  C   C75       1.0  0.023720000000000047  0.7344200000000001  0.38500000000000006  1.0000
  C   C76       1.0  0.9863300000000005  0.64773  0.38399  1.0000
  C   C77       1.0  0.8777599999999999  0.61109  0.37483  1.0000
  C   C78       1.0  0.8755600000000001  0.52523  0.38170000000000004  1.0000
  C   C79       1.0  0.9830700000000002  0.49551  0.39731  1.0000
  C   C80       1.0  0.016390000000000057  0.41497  0.4112900000000001  1.0000
  C   C81       1.0  0.01186  0.26875  0.40215  1.0000
  C   C82       1.0  0.9742600000000002  0.16677000000000006  0.3733100000000001  1.0000
  C   C83       1.0  0.84855  0.74555  0.28524  1.0000
  C   C84       1.0  0.75157  0.7891300000000002  0.28945  1.0000
  C   C85       1.0  0.64785  0.74678  0.2287  1.0000
  C   C86       1.0  0.6407200000000002  0.66126  0.16611  1.0000
  C   C87       1.0  0.7388500000000001  0.61879  0.16212  1.0000
  C   C88       1.0  0.8429500000000001  0.66202  0.22167  1.0000
  C   C89       1.0  0.7359100000000001  0.52502  0.09752  1.0000
  C   C90       1.0  0.8462900000000001  0.30007  0.30825  1.0000
  C   C91       1.0  0.74417  0.26681  0.31028  1.0000
  C   C92       1.0  0.6470500000000002  0.2395  0.24359  1.0000
  C   C93       1.0  0.65145  0.24823  0.17711  1.0000
  C   C94       1.0  0.75389  0.28401  0.17652  1.0000
  C   C95       1.0  0.8522400000000002  0.30864  0.24217  1.0000
  C   C96       1.0  0.75812  0.30272  0.10833  1.0000
  S   S1        1.0  0.18554000000000004  0.9283899999999999  0.60024  1.0000
  S   S2        1.0  0.4143600000000001  0.17256  0.60027  1.0000
  S   S3        1.0  0.3153900000000001  0.32870000000000005  0.4009600000000001  1.0000
  S   S4        1.0  0.08543  0.5726  0.39909  1.0000
  N   N1        1.0  0.10968  0.71695  0.65255  1.0000
  N   N2        1.0  0.21972000000000003  0.6362400000000001  0.58941  1.0000
  N   N3        1.0  0.20584  0.71762  0.57576  1.0000
  N   N4        1.0  0.07072000000000003  0.17254  0.62405  1.0000
  N   N5        1.0  0.1571  0.09299999999999993  0.54087  1.0000
  N   N6        1.0  0.15937  0.18568  0.54779  1.0000
  N   N7        1.0  0.54313  0.43689  0.65327  1.0000
  N   N8        1.0  0.37019000000000013  0.45449  0.59014  1.0000
  N   N9        1.0  0.3701200000000001  0.35956  0.57682  1.0000
  N   N10       1.0  0.55221  0.9519900000000001  0.6243  1.0000
  N   N11       1.0  0.3834200000000001  0.9481400000000001  0.5405600000000003  1.0000
  N   N12       1.0  0.3876600000000002  0.8622900000000001  0.5472300000000002  1.0000
  N   N13       1.0  0.3898900000000001  0.06438  0.34765  1.0000
  N   N14       1.0  0.27993  0.04684999999999998  0.4107  1.0000
  N   N15       1.0  0.29394000000000003  0.14199  0.42464  1.0000
  N   N16       1.0  0.4290900000000001  0.54803  0.37555  1.0000
  N   N17       1.0  0.34332  0.5520900000000001  0.459  1.0000
  N   N18       1.0  0.3403700000000001  0.63765  0.45179  1.0000
  N   N19       1.0  0.9564800000000002  0.78392  0.34671  1.0000
  N   N20       1.0  0.12938  0.86475  0.4103  1.0000
  N   N21       1.0  0.12927  0.78313  0.42351  1.0000
  N   N22       1.0  0.9480900000000003  0.32812  0.3753900000000001  1.0000
  N   N23       1.0  0.11699  0.40809  0.45898  1.0000
  N   N24       1.0  0.11260000000000006  0.3156  0.45243  1.0000
  O   O1        1.0  0.08248000000000001  0.02552999999999998  0.94342  1.0000
  O   O2        1.0  0.23905  0.99653  0.90619  1.0000
  O   O3        1.0  0.1049600000000001  0.20881  0.94375  1.0000
  O   O4        1.0  0.24366000000000007  0.1725200000000001  0.8889300000000002  1.0000
  O   O5        1.0  0.8629100000000001  0.4195400000000002  0.9429600000000001  1.0000
  O   O6        1.0  0.6686300000000002  0.40670000000000006  0.9039800000000001  1.0000
  O   O7        1.0  0.8375600000000002  0.23516000000000012  0.9437900000000001  1.0000
  O   O8        1.0  0.64408  0.21694000000000005  0.88918  1.0000
  O   O9        1.0  0.41437  0.08218  0.05680000000000002  1.0000
  O   O10       1.0  0.25961000000000006  0.09457000000000002  0.09634000000000002  1.0000
  O   O11       1.0  0.3965400000000001  0.26392  0.05649000000000001  1.0000
  O   O12       1.0  0.25586000000000003  0.28481  0.10996000000000003  1.0000
  O   O13       1.0  0.6386200000000001  0.47604  0.05573  1.0000
  O   O14       1.0  0.8324100000000001  0.50362  0.09316  1.0000
  O   O15       1.0  0.6625  0.2930600000000001  0.05619000000000001  1.0000
  O   O16       1.0  0.8561400000000002  0.32957  0.11101  1.0000
