data_image0
_chemical_formula_structural       Co4H72C72S4N12O16
_chemical_formula_sum              "Co4 H72 C72 S4 N12 O16"
_cell_length_a       13.71665
_cell_length_b       15.00738
_cell_length_c       14.99501
_cell_angle_alpha    84.61565
_cell_angle_beta     74.66782
_cell_angle_gamma    74.6911

_space_group_name_H-M_alt    "P 1"
_space_group_IT_number       1

loop_
  _space_group_symop_operation_xyz
  'x, y, z'

loop_
  _atom_site_type_symbol
  _atom_site_label
  _atom_site_symmetry_multiplicity
  _atom_site_fract_x
  _atom_site_fract_y
  _atom_site_fract_z
  _atom_site_occupancy
  Co  Co1       1.0  0.49977000000000005  0.49998999999999993  0.0  1.0000
  Co  Co2       1.0  0.0007499999999999897  0.99969  0.49976  1.0000
  Co  Co3       1.0  0.75015  0.19876999999999997  0.80118  1.0000
  Co  Co4       1.0  0.24986000000000003  0.8010599999999999  0.19891000000000006  1.0000
  H   H1        1.0  0.8387899999999998  0.20000999999999997  0.6002000000000001  1.0000
  H   H2        1.0  0.7768199999999997  0.23884999999999995  0.45629  1.0000
  H   H3        1.0  0.2948299999999999  0.63693  0.9900100000000002  1.0000
  H   H4        1.0  0.4929699999999999  0.28212  0.29887000000000014  1.0000
  H   H5        1.0  0.36423  0.35136  0.03508  1.0000
  H   H6        1.0  0.5310799999999998  0.58433  0.16151000000000004  1.0000
  H   H7        1.0  0.4700999999999999  0.33164  0.14277  1.0000
  H   H8        1.0  0.47456999999999994  0.41803  0.47271000000000013  1.0000
  H   H9        1.0  0.6069999999999998  0.4145  0.42777000000000004  1.0000
  H   H10       1.0  0.10866999999999999  0.64516  0.00827  1.0000
  H   H11       1.0  0.46266  0.27028  0.62615  1.0000
  H   H12       1.0  0.55565  0.5454  0.3210800000000001  1.0000
  H   H13       1.0  0.5386600000000001  0.23511999999999994  0.76485  1.0000
  H   H14       1.0  0.50582  0.2513  0.45093000000000005  1.0000
  H   H15       1.0  0.6343200000000001  0.24463999999999994  0.3843100000000001  1.0000
  H   H16       1.0  0.17910000000000004  0.34927  0.05511  1.0000
  H   H17       1.0  0.99303  0.44168  0.09024000000000003  1.0000
  H   H18       1.0  0.96396  0.56382  0.08293000000000002  1.0000
  H   H19       1.0  0.66139  0.39936999999999995  0.7998600000000002  1.0000
  H   H20       1.0  0.7232899999999998  0.54325  0.7609  1.0000
  H   H21       1.0  0.20570000000000002  0.00912  0.3626  1.0000
  H   H22       1.0  0.007100000000000037  0.7008199999999998  0.7183100000000001  1.0000
  H   H23       1.0  0.13587999999999997  0.9643499999999998  0.6485700000000001  1.0000
  H   H24       1.0  0.9687100000000001  0.83826  0.4159100000000001  1.0000
  H   H25       1.0  0.029720000000000107  0.8569399999999998  0.66888  1.0000
  H   H26       1.0  0.02567000000000002  0.52735  0.58193  1.0000
  H   H27       1.0  0.89317  0.5721399999999998  0.5854100000000001  1.0000
  H   H28       1.0  0.3915999999999998  0.99152  0.35445  1.0000
  H   H29       1.0  0.03743000000000002  0.37404  0.72963  1.0000
  H   H30       1.0  0.9442399999999996  0.67874  0.45490000000000014  1.0000
  H   H31       1.0  0.9616099999999999  0.23525999999999994  0.7647900000000001  1.0000
  H   H32       1.0  0.9941200000000001  0.54886  0.74895  1.0000
  H   H33       1.0  0.8655699999999997  0.61536  0.7555600000000002  1.0000
  H   H34       1.0  0.32089000000000006  0.94486  0.6507500000000002  1.0000
  H   H35       1.0  0.5069400000000001  0.9099999999999999  0.55831  1.0000
  H   H36       1.0  0.53621  0.9172099999999999  0.4360000000000001  1.0000
  H   H37       1.0  0.16123000000000012  0.7991699999999998  0.39989000000000013  1.0000
  H   H38       1.0  0.22341999999999995  0.76086  0.54373  1.0000
  H   H39       1.0  0.70487  0.36299  0.009900000000000004  1.0000
  H   H40       1.0  0.50721  0.71775  0.7009700000000002  1.0000
  H   H41       1.0  0.6354799999999999  0.6484699999999998  0.9647200000000002  1.0000
  H   H42       1.0  0.46891999999999984  0.41555999999999993  0.8382400000000002  1.0000
  H   H43       1.0  0.5298499999999997  0.66819  0.8571500000000002  1.0000
  H   H44       1.0  0.52531  0.58209  0.52709  1.0000
  H   H45       1.0  0.3929  0.58562  0.57212  1.0000
  H   H46       1.0  0.8909399999999998  0.35482  0.9918200000000003  1.0000
  H   H47       1.0  0.53736  0.72966  0.37384000000000006  1.0000
  H   H48       1.0  0.44440999999999997  0.45456  0.67867  1.0000
  H   H49       1.0  0.46139000000000013  0.7645199999999998  0.23506  1.0000
  H   H50       1.0  0.4940899999999999  0.74886  0.54918  1.0000
  H   H51       1.0  0.36552999999999997  0.75539  0.61564  1.0000
  H   H52       1.0  0.8205200000000005  0.65069  0.94482  1.0000
  H   H53       1.0  0.00660999999999994  0.55833  0.9099000000000003  1.0000
  H   H54       1.0  0.035740000000000036  0.43623  0.91717  1.0000
  H   H55       1.0  0.33884999999999993  0.59942  0.20027  1.0000
  H   H56       1.0  0.27686000000000005  0.45556999999999986  0.23881  1.0000
  H   H57       1.0  0.7952699999999997  0.99008  0.63677  1.0000
  H   H58       1.0  0.9936199999999997  0.29804  0.28149  1.0000
  H   H59       1.0  0.8646999999999999  0.035219999999999994  0.35092  1.0000
  H   H60       1.0  0.03104999999999999  0.16068  0.58408  1.0000
  H   H61       1.0  0.9718699999999998  0.1417  0.3304600000000001  1.0000
  H   H62       1.0  0.9741400000000001  0.47184  0.4180000000000001  1.0000
  H   H63       1.0  0.10657  0.4270899999999999  0.41465000000000013  1.0000
  H   H64       1.0  0.6091  0.008349999999999998  0.64507  1.0000
  H   H65       1.0  0.9628500000000001  0.62498  0.27005  1.0000
  H   H66       1.0  0.054629999999999956  0.32047  0.54569  1.0000
  H   H67       1.0  0.038800000000000084  0.7636499999999998  0.23517  1.0000
  H   H68       1.0  0.005689999999999985  0.45042  0.25104  1.0000
  H   H69       1.0  0.13415999999999997  0.38355  0.24441000000000004  1.0000
  H   H70       1.0  0.67957  0.0552  0.34884  1.0000
  H   H71       1.0  0.49349999999999977  0.09009  0.4413700000000001  1.0000
  H   H72       1.0  0.46429999999999977  0.08287  0.5636400000000003  1.0000
  C   C1        1.0  0.75607  0.21938  0.60276  1.0000
  C   C2        1.0  0.7204399999999996  0.24021  0.52294  1.0000
  C   C3        1.0  0.52699  0.4094799999999999  0.32497  1.0000
  C   C4        1.0  0.26702  0.5741299999999999  0.004800000000000001  1.0000
  C   C5        1.0  0.6135200000000001  0.2587199999999999  0.52875  1.0000
  C   C6        1.0  0.5015300000000001  0.35047999999999996  0.27278  1.0000
  C   C7        1.0  0.30510000000000004  0.4155399999999999  0.030690000000000002  1.0000
  C   C8        1.0  0.5238  0.51805  0.19515  1.0000
  C   C9        1.0  0.4884699999999999  0.37795999999999996  0.18418000000000007  1.0000
  C   C10       1.0  0.54474  0.3843299999999999  0.42045  1.0000
  C   C11       1.0  0.16214  0.57824  0.01482  1.0000
  C   C12       1.0  0.12648  0.49765  0.03489  1.0000
  C   C13       1.0  0.5465699999999998  0.25727  0.61728  1.0000
  C   C14       1.0  0.5370299999999998  0.4956699999999999  0.2839300000000001  1.0000
  C   C15       1.0  0.5871999999999999  0.23725999999999997  0.6946700000000002  1.0000
  C   C16       1.0  0.57376  0.27975  0.44277  1.0000
  C   C17       1.0  0.20111  0.41483  0.04113  1.0000
  C   C18       1.0  0.013089999999999997  0.5007  0.04701  1.0000
  C   C19       1.0  0.7441  0.39694999999999997  0.78042  1.0000
  C   C20       1.0  0.7796699999999999  0.4767299999999999  0.75962  1.0000
  C   C21       1.0  0.9730400000000003  0.6748899999999999  0.59078  1.0000
  C   C22       1.0  0.23334  0.9946099999999999  0.4255400000000001  1.0000
  C   C23       1.0  0.8865499999999998  0.47109  0.7412200000000002  1.0000
  C   C24       1.0  0.9984200000000003  0.72697  0.64994  1.0000
  C   C25       1.0  0.19507000000000005  0.9688099999999997  0.58433  1.0000
  C   C26       1.0  0.97606  0.80466  0.4822400000000001  1.0000
  C   C27       1.0  0.011400000000000044  0.8155399999999998  0.62249  1.0000
  C   C28       1.0  0.95538  0.57944  0.61571  1.0000
  C   C29       1.0  0.33813  0.98488  0.42146  1.0000
  C   C30       1.0  0.37367000000000006  0.9649699999999998  0.50217  1.0000
  C   C31       1.0  0.9535499999999999  0.3827199999999999  0.74264  1.0000
  C   C32       1.0  0.9628899999999998  0.7159399999999999  0.50458  1.0000
  C   C33       1.0  0.91301  0.30531999999999987  0.7626000000000001  1.0000
  C   C34       1.0  0.9262399999999997  0.55705  0.7203700000000001  1.0000
  C   C35       1.0  0.2989999999999998  0.95866  0.5850800000000003  1.0000
  C   C36       1.0  0.4869999999999998  0.95308  0.4991600000000001  1.0000
  C   C37       1.0  0.24399  0.7799999999999998  0.39722  1.0000
  C   C38       1.0  0.2796699999999999  0.75944  0.4770100000000001  1.0000
  C   C39       1.0  0.47312999999999983  0.5904399999999999  0.67486  1.0000
  C   C40       1.0  0.7326699999999998  0.4257899999999999  0.99513  1.0000
  C   C41       1.0  0.3865599999999998  0.74122  0.47119  1.0000
  C   C42       1.0  0.49860000000000004  0.64941  0.72705  1.0000
  C   C43       1.0  0.6945999999999999  0.58434  0.9691300000000002  1.0000
  C   C44       1.0  0.4761599999999999  0.48185  0.8046500000000002  1.0000
  C   C45       1.0  0.5114899999999999  0.62192  0.81569  1.0000
  C   C46       1.0  0.45522999999999997  0.61572  0.57946  1.0000
  C   C47       1.0  0.8375099999999998  0.42173  0.9851600000000003  1.0000
  C   C48       1.0  0.8731599999999999  0.50231  0.9651000000000001  1.0000
  C   C49       1.0  0.4534900000000001  0.7425399999999998  0.38264  1.0000
  C   C50       1.0  0.46302999999999983  0.50425  0.7158600000000003  1.0000
  C   C51       1.0  0.41282999999999975  0.76234  0.3052400000000001  1.0000
  C   C52       1.0  0.42621999999999993  0.72033  0.55723  1.0000
  C   C53       1.0  0.79855  0.5851199999999999  0.9587800000000001  1.0000
  C   C54       1.0  0.9865  0.49931  0.95308  1.0000
  C   C55       1.0  0.25612  0.6019899999999999  0.21960000000000005  1.0000
  C   C56       1.0  0.22050999999999998  0.52217  0.24027  1.0000
  C   C57       1.0  0.02680999999999998  0.32422999999999996  0.4093600000000001  1.0000
  C   C58       1.0  0.76747  0.004799999999999999  0.5739  1.0000
  C   C59       1.0  0.11360999999999997  0.52782  0.25870000000000004  1.0000
  C   C60       1.0  0.0020399999999999854  0.27198999999999995  0.34994  1.0000
  C   C61       1.0  0.80556  0.030729999999999997  0.41515  1.0000
  C   C62       1.0  0.023930000000000017  0.19433  0.51773  1.0000
  C   C63       1.0  0.98952  0.18326  0.37712  1.0000
  C   C64       1.0  0.04441999999999999  0.4196799999999999  0.3843400000000001  1.0000
  C   C65       1.0  0.66258  0.014909999999999993  0.57806  1.0000
  C   C66       1.0  0.62692  0.035  0.49741  1.0000
  C   C67       1.0  0.04673000000000002  0.61625  0.25723  1.0000
  C   C68       1.0  0.03661000000000002  0.28322  0.49566  1.0000
  C   C69       1.0  0.08738000000000005  0.6936099999999997  0.23736  1.0000
  C   C70       1.0  0.07365000000000003  0.44196999999999986  0.27961  1.0000
  C   C71       1.0  0.7015599999999999  0.04119999999999999  0.41446  1.0000
  C   C72       1.0  0.5135499999999998  0.047  0.5004900000000001  1.0000
  S   S1        1.0  0.57998  0.26425  0.9792000000000002  1.0000
  S   S2        1.0  0.92022  0.020660000000000005  0.73571  1.0000
  S   S3        1.0  0.41957  0.73572  0.02081  1.0000
  S   S4        1.0  0.08118  0.97833  0.26413  1.0000
  N   N1        1.0  0.49967999999999996  0.46041  0.14471000000000006  1.0000
  N   N2        1.0  0.33813  0.49418  0.01414  1.0000
  N   N3        1.0  0.69102  0.21801  0.68779  1.0000
  N   N4        1.0  0.00023000000000000892  0.85499  0.53996  1.0000
  N   N5        1.0  0.1622099999999999  0.98513  0.50555  1.0000
  N   N6        1.0  0.80923  0.31205  0.78182  1.0000
  N   N7        1.0  0.5002399999999999  0.5394799999999998  0.8551300000000002  1.0000
  N   N8        1.0  0.66159  0.50569  0.9856500000000002  1.0000
  N   N9        1.0  0.309  0.78146  0.31217  1.0000
  N   N10       1.0  0.0005100000000000005  0.14382  0.4597  1.0000
  N   N11       1.0  0.83857  0.014179999999999998  0.49386000000000013  1.0000
  N   N12       1.0  0.19114999999999996  0.68699  0.21826  1.0000
  O   O1        1.0  0.6158  0.21422  0.88508  1.0000
  O   O2        1.0  0.5574  0.36757000000000006  0.95058  1.0000
  O   O3        1.0  0.66544  0.24083  0.02629  1.0000
  O   O4        1.0  0.48289000000000004  0.24016999999999994  0.03187000000000001  1.0000
  O   O5        1.0  0.8844899999999997  0.11467  0.7858200000000001  1.0000
  O   O6        1.0  0.9427399999999996  0.04923  0.63226  1.0000
  O   O7        1.0  0.83459  0.9737499999999999  0.75914  1.0000
  O   O8        1.0  0.017209999999999906  0.9680299999999998  0.7599000000000002  1.0000
  O   O9        1.0  0.38369000000000003  0.7858299999999998  0.11487  1.0000
  O   O10       1.0  0.44231000000000004  0.6323599999999998  0.04928  1.0000
  O   O11       1.0  0.33401000000000003  0.7590899999999998  0.97387  1.0000
  O   O12       1.0  0.51665  0.75983  0.96828  1.0000
  O   O13       1.0  0.11507999999999997  0.88422  0.21453  1.0000
  O   O14       1.0  0.05760000000000001  0.95072  0.36769  1.0000
  O   O15       1.0  0.16874  0.022860000000000002  0.24039  1.0000
  O   O16       1.0  0.9849299999999999  0.0326  0.23981  1.0000
