data_image0
_chemical_formula_structural       Cd6H48C84N12O24
_chemical_formula_sum              "Cd6 H48 C84 N12 O24"
_cell_length_a       8.30587
_cell_length_b       16.53803
_cell_length_c       16.57143
_cell_angle_alpha    117.26637000000001
_cell_angle_beta     99.73612
_cell_angle_gamma    99.50949000000001

_space_group_name_H-M_alt    "P 1"
_space_group_IT_number       1

loop_
  _space_group_symop_operation_xyz
  'x, y, z'

loop_
  _atom_site_type_symbol
  _atom_site_label
  _atom_site_symmetry_multiplicity
  _atom_site_fract_x
  _atom_site_fract_y
  _atom_site_fract_z
  _atom_site_occupancy
  Cd  Cd1       1.0  0.8005399999999998  0.3528800000000001  0.59657  1.0000
  Cd  Cd2       1.0  0.20181999999999997  0.64664  0.40588999999999986  1.0000
  Cd  Cd3       1.0  0.20481999999999984  0.40366999999999986  0.7589699999999998  1.0000
  Cd  Cd4       1.0  0.79686  0.59354  0.24345  1.0000
  Cd  Cd5       1.0  0.44693  0.24087  0.6464  1.0000
  Cd  Cd6       1.0  0.5548099999999998  0.75625  0.35386  1.0000
  H   H1        1.0  0.9694299999999999  0.33478  0.22127  1.0000
  H   H2        1.0  0.79489  0.60452  0.53072  1.0000
  H   H3        1.0  0.66075  0.12675  0.26163  1.0000
  H   H4        1.0  0.7917400000000001  0.76486  0.65055  1.0000
  H   H5        1.0  0.31721  0.21393  0.21503  1.0000
  H   H6        1.0  0.20961999999999995  0.23461  0.35417  1.0000
  H   H7        1.0  0.85102  0.16549  0.17537  1.0000
  H   H8        1.0  0.15162999999999996  0.83454  0.82685  1.0000
  H   H9        1.0  0.3396199999999999  0.8727  0.73941  1.0000
  H   H10       1.0  0.43624  0.35607  0.20477  1.0000
  H   H11       1.0  0.03498000000000003  0.66553  0.78218  1.0000
  H   H12       1.0  0.5651  0.64109  0.79814  1.0000
  H   H13       1.0  0.40402  0.74434  0.60616  1.0000
  H   H14       1.0  0.5970099999999998  0.2549299999999999  0.39539999999999986  1.0000
  H   H15       1.0  0.20780999999999994  0.39553999999999995  0.47323999999999994  1.0000
  H   H16       1.0  0.68493  0.7842  0.78962  1.0000
  H   H17       1.0  0.40342999999999996  0.73768  0.8678199999999999  1.0000
  H   H18       1.0  0.7664399999999998  0.20220999999999995  0.8458  1.0000
  H   H19       1.0  0.2519  0.21785000000000004  0.88499  1.0000
  H   H20       1.0  0.10398000000000006  0.78481  0.0027  1.0000
  H   H21       1.0  0.20414  0.60463  0.86243  1.0000
  H   H22       1.0  0.8581399999999996  0.6450599999999999  0.8833099999999998  1.0000
  H   H23       1.0  0.73547  0.52603  0.92474  1.0000
  H   H24       1.0  0.6814499999999998  0.82247  0.9922499999999999  1.0000
  H   H25       1.0  0.14218  0.35001  0.11693999999999997  1.0000
  H   H26       1.0  0.75212  0.77721  0.11612  1.0000
  H   H27       1.0  0.23283999999999994  0.79483  0.15494  1.0000
  H   H28       1.0  0.89446  0.21130999999999991  0.99766  1.0000
  H   H29       1.0  0.5992600000000001  0.26003  0.13504  1.0000
  H   H30       1.0  0.32368999999999987  0.17282  0.00888  1.0000
  H   H31       1.0  0.26547999999999994  0.46963  0.07638  1.0000
  H   H32       1.0  0.79741  0.3934000000000001  0.14027  1.0000
  H   H33       1.0  0.68688  0.0068800000000000085  0.83446  1.0000
  H   H34       1.0  0.63549  0.88339  0.66555  1.0000
  H   H35       1.0  0.3419799999999998  0.1378899999999999  0.7454899999999999  1.0000
  H   H36       1.0  0.8091099999999998  0.07516999999999995  0.6030199999999999  1.0000
  H   H37       1.0  0.4661699999999998  0.86389  0.12648  1.0000
  H   H38       1.0  0.025679999999999883  0.8819599999999999  0.23660999999999993  1.0000
  H   H39       1.0  0.10055  0.9986799999999999  0.78536  1.0000
  H   H40       1.0  0.53447  0.13189999999999996  0.8734899999999999  1.0000
  H   H41       1.0  0.31191999999999986  0.98816  0.16427  1.0000
  H   H42       1.0  0.36395  0.11303999999999997  0.33291999999999994  1.0000
  H   H43       1.0  0.07967000000000003  0.84643  0.64375  1.0000
  H   H44       1.0  0.65921  0.85946  0.25538  1.0000
  H   H45       1.0  0.97234  0.11730999999999997  0.76392  1.0000
  H   H46       1.0  0.92054  0.15349  0.35899  1.0000
  H   H47       1.0  0.18941000000000008  0.92302  0.39701999999999993  1.0000
  H   H48       1.0  0.8985699999999999  0.0016099999999999997  0.21661  1.0000
  C   C1        1.0  0.18255  0.77817  0.76966  1.0000
  C   C2        1.0  0.84694  0.38886  0.33083  1.0000
  C   C3        1.0  0.8204  0.22171999999999997  0.23281999999999997  1.0000
  C   C4        1.0  0.25988  0.3851  0.4143899999999999  1.0000
  C   C5        1.0  0.6797599999999999  0.27183  0.35753  1.0000
  C   C6        1.0  0.7420599999999998  0.61424  0.58921  1.0000
  C   C7        1.0  0.3221599999999999  0.72763  0.6444899999999999  1.0000
  C   C8        1.0  0.31741  0.28379  0.26884  1.0000
  C   C9        1.0  0.8860999999999999  0.31594  0.25771  1.0000
  C   C10       1.0  0.71548  0.2  0.28182  1.0000
  C   C11       1.0  0.68424  0.71456  0.73512  1.0000
  C   C12       1.0  0.6194899999999995  0.6349099999999999  0.7411699999999998  1.0000
  C   C13       1.0  0.47909999999999997  0.53321  0.31814  1.0000
  C   C14       1.0  0.3212  0.46513  0.4064  1.0000
  C   C15       1.0  0.7458799999999999  0.36644  0.38259  1.0000
  C   C16       1.0  0.38206  0.36295  0.26199  1.0000
  C   C17       1.0  0.2570700000000001  0.63313  0.6201  1.0000
  C   C18       1.0  0.07771  0.5105  0.64499  1.0000
  C   C19       1.0  0.92506  0.48937  0.35837  1.0000
  C   C20       1.0  0.74269  0.7038  0.65751  1.0000
  C   C21       1.0  0.52161  0.46445  0.6837299999999998  1.0000
  C   C22       1.0  0.11773000000000011  0.68407  0.74535  1.0000
  C   C23       1.0  0.68064  0.53373  0.59646  1.0000
  C   C24       1.0  0.28619  0.79959  0.71999  1.0000
  C   C25       1.0  0.61451  0.54354  0.67262  1.0000
  C   C26       1.0  0.1565299999999999  0.61094  0.6722399999999997  1.0000
  C   C27       1.0  0.25874  0.29523  0.34653999999999996  1.0000
  C   C28       1.0  0.38679  0.45457  0.32993  1.0000
  C   C29       1.0  0.43742  0.7175499999999999  0.9209599999999998  1.0000
  C   C30       1.0  0.12132999999999994  0.73758  0.10433  1.0000
  C   C31       1.0  0.91555  0.59296  0.06141  1.0000
  C   C32       1.0  0.36497  0.61757  0.98708  1.0000
  C   C33       1.0  0.9424299999999997  0.3275  0.87361  1.0000
  C   C34       1.0  0.87818  0.25919999999999993  0.89653  1.0000
  C   C35       1.0  0.48372999999999994  0.32738  0.94052  1.0000
  C   C36       1.0  0.05782  0.66945  0.12756  1.0000
  C   C37       1.0  0.08599000000000001  0.34286  0.04888999999999999  1.0000
  C   C38       1.0  0.8390099999999998  0.31614999999999993  0.7832099999999999  1.0000
  C   C39       1.0  0.56545  0.27965  0.08148999999999999  1.0000
  C   C40       1.0  0.32483999999999996  0.64244  0.91735  1.0000
  C   C41       1.0  0.15396  0.41103  0.027639999999999994  1.0000
  C   C42       1.0  0.08501999999999993  0.40371999999999997  0.9399499999999998  1.0000
  C   C43       1.0  0.4119199999999999  0.23019  0.01023  1.0000
  C   C44       1.0  0.5687799999999997  0.64162  0.13442  1.0000
  C   C45       1.0  0.91412  0.65276  0.95165  1.0000
  C   C46       1.0  0.59197  0.76592  0.99155  1.0000
  C   C47       1.0  0.63647  0.37947  0.015049999999999997  1.0000
  C   C48       1.0  0.84663  0.58492  0.9733699999999997  1.0000
  C   C49       1.0  0.63163  0.74139  0.06118999999999999  1.0000
  C   C50       1.0  0.050280000000000005  0.73073  0.01831  1.0000
  C   C51       1.0  0.5180199999999998  0.66914  0.06146999999999998  1.0000
  C   C52       1.0  0.16154999999999992  0.68102  0.21795999999999993  1.0000
  C   C53       1.0  0.43185999999999997  0.3543499999999999  0.8672299999999997  1.0000
  C   C54       1.0  0.6770799999999998  0.35506  0.08509  1.0000
  C   C55       1.0  0.9490099999999997  0.2654099999999999  0.9822399999999998  1.0000
  C   C56       1.0  0.37144999999999984  0.25459  0.94058  1.0000
  C   C57       1.0  0.017960000000000035  0.89669  0.63665  1.0000
  C   C58       1.0  0.51592  0.07896  0.80029  1.0000
  C   C59       1.0  0.14552999999999994  0.05975999999999998  0.46692999999999996  1.0000
  C   C60       1.0  0.48445  0.91727  0.19946999999999995  1.0000
  C   C61       1.0  0.031529999999999975  0.98274  0.71549  1.0000
  C   C62       1.0  0.06882000000000002  0.12599  0.4568  1.0000
  C   C63       1.0  0.6206599999999997  0.9840699999999999  0.36595  1.0000
  C   C64       1.0  0.3793399999999999  0.013400000000000028  0.63414  1.0000
  C   C65       1.0  0.12674999999999995  0.9717699999999999  0.38684999999999997  1.0000
  C   C66       1.0  0.42869  0.05767  0.31452  1.0000
  C   C67       1.0  0.9819999999999999  0.10288999999999991  0.36548999999999987  1.0000
  C   C68       1.0  0.037680000000000005  0.95025  0.2973199999999999  1.0000
  C   C69       1.0  0.43636  0.86599  0.51121  1.0000
  C   C70       1.0  0.54131  0.05829000000000001  0.38782  1.0000
  C   C71       1.0  0.9314299999999999  0.87297  0.54506  1.0000
  C   C72       1.0  0.96777  0.017030000000000014  0.28623  1.0000
  C   C73       1.0  0.8722199999999998  0.02682999999999986  0.6137899999999997  1.0000
  C   C74       1.0  0.05506999999999999  0.21632999999999994  0.53568  1.0000
  C   C75       1.0  0.85422  0.93869  0.53413  1.0000
  C   C76       1.0  0.40797999999999984  0.08298999999999995  0.7286399999999998  1.0000
  C   C77       1.0  0.40000999999999987  0.9877200000000002  0.22064999999999999  1.0000
  C   C78       1.0  0.59955  0.008160000000000028  0.77841  1.0000
  C   C79       1.0  0.5623799999999998  0.13178999999999996  0.48797  1.0000
  C   C80       1.0  0.57074  0.9387599999999999  0.68434  1.0000
  C   C81       1.0  0.9457699999999997  0.78244  0.46677  1.0000
  C   C82       1.0  0.9610499999999997  0.04897000000000005  0.70357  1.0000
  C   C83       1.0  0.59268  0.91411  0.27165  1.0000
  C   C84       1.0  0.45828999999999986  0.9390099999999999  0.6115799999999999  1.0000
  N   N1        1.0  0.7038900000000001  0.44209  0.4514  1.0000
  N   N2        1.0  0.69948  0.44539000000000006  0.52892  1.0000
  N   N3        1.0  0.29913  0.55746  0.55142  1.0000
  N   N4        1.0  0.30290999999999996  0.55376  0.4736599999999999  1.0000
  N   N5        1.0  0.82965  0.52566  0.08243  1.0000
  N   N6        1.0  0.7475699999999998  0.44802  0.00822  1.0000
  N   N7        1.0  0.17129999999999998  0.47128999999999993  0.9192599999999999  1.0000
  N   N8        1.0  0.25338  0.54888  0.99356  1.0000
  N   N9        1.0  0.25279  0.08087000000000001  0.55529  1.0000
  N   N10       1.0  0.7385499999999998  0.9911  0.4416099999999999  1.0000
  N   N11       1.0  0.7472599999999998  0.91705  0.44541  1.0000
  N   N12       1.0  0.26117  0.00667000000000002  0.55875  1.0000
  O   O1        1.0  0.60382  0.51737  0.28484  1.0000
  O   O2        1.0  0.04680999999999996  0.44553  0.56105  1.0000
  O   O3        1.0  0.3969  0.48001  0.71703  1.0000
  O   O4        1.0  0.5733599999999999  0.39010999999999996  0.6617599999999999  1.0000
  O   O5        1.0  0.03229999999999986  0.49608999999999975  0.7098699999999998  1.0000
  O   O6        1.0  0.4273999999999999  0.60744  0.3397  1.0000
  O   O7        1.0  0.9688  0.50402  0.29328  1.0000
  O   O8        1.0  0.9572099999999998  0.5542  0.4425  1.0000
  O   O9        1.0  0.67914  0.70652  0.21392  1.0000
  O   O10       1.0  0.0876  0.6593  0.27014  1.0000
  O   O11       1.0  0.6809299999999998  0.28211  0.76473  1.0000
  O   O12       1.0  0.91284  0.3387  0.73148  1.0000
  O   O13       1.0  0.51561  0.55754  0.11516  1.0000
  O   O14       1.0  0.31966  0.71419  0.23583  1.0000
  O   O15       1.0  0.48436999999999997  0.43853999999999993  0.8864599999999999  1.0000
  O   O16       1.0  0.3219499999999999  0.2894099999999998  0.7877999999999997  1.0000
  O   O17       1.0  0.46608999999999984  0.7861  0.49639999999999995  1.0000
  O   O18       1.0  0.91399  0.23375  0.52018  1.0000
  O   O19       1.0  0.40368999999999994  0.88557  0.44659  1.0000
  O   O20       1.0  0.59536  0.11243000000000004  0.55283  1.0000
  O   O21       1.0  0.81929  0.72917  0.39312  1.0000
  O   O22       1.0  0.18137  0.26875  0.60959  1.0000
  O   O23       1.0  0.08724999999999986  0.7655799999999998  0.4824499999999999  1.0000
  O   O24       1.0  0.53224  0.21136999999999995  0.50239  1.0000
