data_image0
_chemical_formula_structural       Zn8H64C96S8N8O32
_chemical_formula_sum              "Zn8 H64 C96 S8 N8 O32"
_cell_length_a       13.29936
_cell_length_b       15.97794
_cell_length_c       19.01429
_cell_angle_alpha    114.70244
_cell_angle_beta     109.83367
_cell_angle_gamma    90.01047

_space_group_name_H-M_alt    "P 1"
_space_group_IT_number       1

loop_
  _space_group_symop_operation_xyz
  'x, y, z'

loop_
  _atom_site_type_symbol
  _atom_site_label
  _atom_site_symmetry_multiplicity
  _atom_site_fract_x
  _atom_site_fract_y
  _atom_site_fract_z
  _atom_site_occupancy
  Zn  Zn1       1.0  0.9330999999999998  0.66253  0.77135  1.0000
  Zn  Zn2       1.0  0.8536  0.5210899999999998  0.59837  1.0000
  Zn  Zn3       1.0  0.43239  0.10785  0.77118  1.0000
  Zn  Zn4       1.0  0.35303  0.07606  0.59799  1.0000
  Zn  Zn5       1.0  0.56761  0.89215  0.22882  1.0000
  Zn  Zn6       1.0  0.6469699999999999  0.9239399999999998  0.40200999999999987  1.0000
  Zn  Zn7       1.0  0.06689999999999996  0.3374699999999999  0.22864999999999994  1.0000
  Zn  Zn8       1.0  0.14639999999999995  0.4789099999999999  0.40163  1.0000
  H   H1        1.0  0.8203199999999998  0.4860699999999999  0.88113  1.0000
  H   H2        1.0  0.69867  0.34833999999999987  0.87539  1.0000
  H   H3        1.0  0.8786399999999998  0.5116699999999997  0.4487099999999999  1.0000
  H   H4        1.0  0.8005299999999997  0.4136499999999999  0.2960399999999999  1.0000
  H   H5        1.0  0.61012  0.23256999999999997  0.3374  1.0000
  H   H6        1.0  0.6948299999999998  0.33987999999999985  0.48948999999999987  1.0000
  H   H7        1.0  0.6167499999999998  0.18233999999999995  0.19867  1.0000
  H   H8        1.0  0.56804  0.27996  0.18734999999999993  1.0000
  H   H9        1.0  0.7754499999999998  0.20738  0.1681  1.0000
  H   H10       1.0  0.75509  0.3199899999999999  0.17897  1.0000
  H   H11       1.0  0.61977  0.6809499999999998  0.49932  1.0000
  H   H12       1.0  0.50648  0.81738  0.49658  1.0000
  H   H13       1.0  0.53778  0.014330000000000006  0.88255  1.0000
  H   H14       1.0  0.6549099999999998  0.06696  0.03333  1.0000
  H   H15       1.0  0.61007  0.3487399999999999  0.07495  1.0000
  H   H16       1.0  0.49350999999999995  0.28427  0.92248  1.0000
  H   H17       1.0  0.32044  0.3917299999999999  0.88058  1.0000
  H   H18       1.0  0.20145999999999992  0.52576  0.87587  1.0000
  H   H19       1.0  0.37865  0.9360999999999998  0.44828  1.0000
  H   H20       1.0  0.30041999999999996  0.88207  0.29559  1.0000
  H   H21       1.0  0.11056999999999997  0.10484999999999997  0.33691  1.0000
  H   H22       1.0  0.19553999999999994  0.14899999999999988  0.4890799999999999  1.0000
  H   H23       1.0  0.11632999999999998  0.016129999999999995  0.19789  1.0000
  H   H24       1.0  0.06787999999999997  0.9073999999999998  0.1871  1.0000
  H   H25       1.0  0.27477999999999997  0.96074  0.16725  1.0000
  H   H26       1.0  0.2553699999999999  0.85947  0.17910999999999994  1.0000
  H   H27       1.0  0.11945999999999994  0.8173799999999999  0.49853999999999987  1.0000
  H   H28       1.0  0.006429999999999952  0.6786299999999997  0.49686999999999987  1.0000
  H   H29       1.0  0.03734000000000001  0.8668299999999998  0.88147  1.0000
  H   H30       1.0  0.15405  0.96536  0.03211  1.0000
  H   H31       1.0  0.11034  0.7264499999999998  0.07592  1.0000
  H   H32       1.0  0.9941199999999999  0.63796  0.92342  1.0000
  H   H33       1.0  0.67957  0.60827  0.11942  1.0000
  H   H34       1.0  0.79854  0.4742399999999999  0.12413  1.0000
  H   H35       1.0  0.62136  0.0639  0.55172  1.0000
  H   H36       1.0  0.69959  0.11793000000000001  0.70441  1.0000
  H   H37       1.0  0.88943  0.89515  0.66309  1.0000
  H   H38       1.0  0.8044599999999995  0.8509999999999996  0.5109199999999998  1.0000
  H   H39       1.0  0.88367  0.9838699999999998  0.80211  1.0000
  H   H40       1.0  0.93212  0.09259999999999989  0.8129  1.0000
  H   H41       1.0  0.72522  0.039259999999999864  0.8327499999999998  1.0000
  H   H42       1.0  0.7446399999999999  0.14052999999999996  0.82089  1.0000
  H   H43       1.0  0.8805399999999999  0.1826199999999999  0.5014599999999998  1.0000
  H   H44       1.0  0.99357  0.3213699999999999  0.5031299999999997  1.0000
  H   H45       1.0  0.96266  0.13317  0.11853  1.0000
  H   H46       1.0  0.8459499999999995  0.03463999999999986  0.9678799999999997  1.0000
  H   H47       1.0  0.8896599999999998  0.2735499999999999  0.92408  1.0000
  H   H48       1.0  0.00588  0.36205  0.07658  1.0000
  H   H49       1.0  0.17968  0.51393  0.11886999999999998  1.0000
  H   H50       1.0  0.30134  0.65167  0.12460999999999997  1.0000
  H   H51       1.0  0.12135999999999997  0.48833999999999994  0.55128  1.0000
  H   H52       1.0  0.19947  0.5863499999999998  0.70396  1.0000
  H   H53       1.0  0.38988  0.76743  0.66259  1.0000
  H   H54       1.0  0.30517  0.6601199999999998  0.5105  1.0000
  H   H55       1.0  0.3832599999999999  0.8176599999999998  0.80133  1.0000
  H   H56       1.0  0.4319599999999999  0.7200399999999998  0.81265  1.0000
  H   H57       1.0  0.22455999999999984  0.79262  0.8318999999999998  1.0000
  H   H58       1.0  0.24491  0.6800099999999998  0.82103  1.0000
  H   H59       1.0  0.3802299999999999  0.31905  0.50068  1.0000
  H   H60       1.0  0.49351999999999985  0.1826199999999999  0.5034199999999998  1.0000
  H   H61       1.0  0.4622199999999999  0.9856699999999998  0.11744  1.0000
  H   H62       1.0  0.34509  0.9330399999999995  0.9666699999999998  1.0000
  H   H63       1.0  0.38994  0.65126  0.92505  1.0000
  H   H64       1.0  0.5064899999999999  0.7157299999999998  0.07751999999999998  1.0000
  C   C1        1.0  0.79748  0.48539  0.72457  1.0000
  C   C2        1.0  0.7454099999999999  0.42256  0.746  1.0000
  C   C3        1.0  0.76335  0.42953  0.82475  1.0000
  C   C4        1.0  0.69969  0.35661999999999994  0.8217299999999997  1.0000
  C   C5        1.0  0.63296  0.2952599999999998  0.7406299999999998  1.0000
  C   C6        1.0  0.55206  0.21402000000000004  0.71442  1.0000
  C   C7        1.0  0.8179899999999998  0.44985999999999987  0.42129  1.0000
  C   C8        1.0  0.77359  0.3941399999999999  0.33575  1.0000
  C   C9        1.0  0.6971999999999998  0.3141799999999998  0.30264999999999986  1.0000
  C   C10       1.0  0.66878  0.2940299999999999  0.35919  1.0000
  C   C11       1.0  0.7156699999999999  0.35321  0.4441  1.0000
  C   C12       1.0  0.64293  0.25354  0.20983  1.0000
  C   C13       1.0  0.71235  0.25008  0.15813999999999995  1.0000
  C   C14       1.0  0.73719  0.68392  0.6568  1.0000
  C   C15       1.0  0.66053  0.7431999999999997  0.63304  1.0000
  C   C16       1.0  0.4988999999999998  0.9515799999999998  0.6529  1.0000
  C   C17       1.0  0.55269  0.86889  0.63065  1.0000
  C   C18       1.0  0.61019  0.7360999999999998  0.55332  1.0000
  C   C19       1.0  0.5495899999999998  0.8082099999999999  0.5520199999999997  1.0000
  C   C20       1.0  0.5553099999999997  0.08756999999999986  0.9278899999999998  1.0000
  C   C21       1.0  0.6207  0.11758  0.01154  1.0000
  C   C22       1.0  0.6430099999999997  0.21293  0.06704  1.0000
  C   C23       1.0  0.59572  0.27398  0.03451  1.0000
  C   C24       1.0  0.5311299999999998  0.23925999999999983  0.9503799999999998  1.0000
  C   C25       1.0  0.2954  0.2367599999999999  0.72376  1.0000
  C   C26       1.0  0.24449999999999988  0.32151999999999975  0.7455699999999997  1.0000
  C   C27       1.0  0.26357  0.3929199999999999  0.82452  1.0000
  C   C28       1.0  0.20122999999999996  0.46374  0.82201  1.0000
  C   C29       1.0  0.13428999999999994  0.4449499999999999  0.74111  1.0000
  C   C30       1.0  0.05374999999999988  0.50031  0.7149699999999998  1.0000
  C   C31       1.0  0.31805  0.9706899999999998  0.42085  1.0000
  C   C32       1.0  0.27355999999999997  0.9411799999999999  0.33529  1.0000
  C   C33       1.0  0.19718999999999995  0.9882399999999998  0.30218  1.0000
  C   C34       1.0  0.16905  0.06492000000000003  0.35867  1.0000
  C   C35       1.0  0.21606999999999993  0.09031999999999996  0.4435899999999999  1.0000
  C   C36       1.0  0.14266  0.9562299999999998  0.20934  1.0000
  C   C37       1.0  0.21212  0.9080899999999997  0.15777  1.0000
  C   C38       1.0  0.23722999999999986  0.9716199999999998  0.6562899999999998  1.0000
  C   C39       1.0  0.16083  0.8886099999999998  0.63242  1.0000
  C   C40       1.0  0.9996999999999997  0.7014499999999999  0.6537399999999998  1.0000
  C   C41       1.0  0.052779999999999945  0.7614099999999998  0.63069  1.0000
  C   C42       1.0  0.11018999999999995  0.81636  0.55279  1.0000
  C   C43       1.0  0.04949999999999998  0.7432799999999998  0.5519  1.0000
  C   C44       1.0  0.05493999999999999  0.83925  0.92719  1.0000
  C   C45       1.0  0.12018999999999999  0.8930899999999998  0.01074  1.0000
  C   C46       1.0  0.14284  0.85374  0.0668  1.0000
  C   C47       1.0  0.0959  0.76039  0.03501  1.0000
  C   C48       1.0  0.03141999999999998  0.7107199999999998  0.95092  1.0000
  C   C49       1.0  0.7046  0.7632399999999998  0.2762399999999999  1.0000
  C   C50       1.0  0.7555  0.67848  0.25443  1.0000
  C   C51       1.0  0.73643  0.60708  0.17548  1.0000
  C   C52       1.0  0.79877  0.5362599999999997  0.17798999999999995  1.0000
  C   C53       1.0  0.8657099999999999  0.5550499999999998  0.25889  1.0000
  C   C54       1.0  0.94625  0.4996900000000001  0.28503  1.0000
  C   C55       1.0  0.6819499999999996  0.029309999999999867  0.5791499999999998  1.0000
  C   C56       1.0  0.7264399999999998  0.05881999999999996  0.66471  1.0000
  C   C57       1.0  0.80281  0.011759999999999843  0.6978199999999998  1.0000
  C   C58       1.0  0.8309499999999997  0.9350800000000001  0.64133  1.0000
  C   C59       1.0  0.7839399999999999  0.9096799999999999  0.5564099999999997  1.0000
  C   C60       1.0  0.8573399999999998  0.043780000000000034  0.79066  1.0000
  C   C61       1.0  0.7878799999999998  0.09190999999999999  0.84223  1.0000
  C   C62       1.0  0.7627799999999998  0.02838  0.3437  1.0000
  C   C63       1.0  0.8391799999999998  0.11138999999999989  0.3675799999999999  1.0000
  C   C64       1.0  0.0002999999999999507  0.2985499999999999  0.3462599999999999  1.0000
  C   C65       1.0  0.9472199999999997  0.23858999999999994  0.36931  1.0000
  C   C66       1.0  0.8898099999999998  0.18364999999999995  0.44721  1.0000
  C   C67       1.0  0.9505000000000001  0.25672  0.4481  1.0000
  C   C68       1.0  0.94507  0.16075999999999993  0.07281  1.0000
  C   C69       1.0  0.8798099999999999  0.10690999999999988  0.9892599999999998  1.0000
  C   C70       1.0  0.8571599999999999  0.14626  0.9332  1.0000
  C   C71       1.0  0.9040999999999999  0.23961000000000005  0.96498  1.0000
  C   C72       1.0  0.9685799999999998  0.28928  0.04908  1.0000
  C   C73       1.0  0.20251999999999998  0.51461  0.27542  1.0000
  C   C74       1.0  0.25459  0.57744  0.25399  1.0000
  C   C75       1.0  0.23665  0.57047  0.17525  1.0000
  C   C76       1.0  0.30032  0.64338  0.17827  1.0000
  C   C77       1.0  0.36703999999999987  0.7047499999999998  0.2593699999999999  1.0000
  C   C78       1.0  0.44795  0.7859799999999999  0.28558  1.0000
  C   C79       1.0  0.18202  0.55015  0.57871  1.0000
  C   C80       1.0  0.22641  0.6058599999999997  0.66425  1.0000
  C   C81       1.0  0.30279999999999996  0.68583  0.69735  1.0000
  C   C82       1.0  0.3312199999999999  0.70597  0.6408099999999998  1.0000
  C   C83       1.0  0.28434  0.6467899999999998  0.5559  1.0000
  C   C84       1.0  0.3570699999999999  0.7464599999999998  0.79016  1.0000
  C   C85       1.0  0.28764999999999996  0.74992  0.84186  1.0000
  C   C86       1.0  0.26280999999999993  0.31607999999999997  0.3431999999999999  1.0000
  C   C87       1.0  0.3394699999999999  0.25679999999999986  0.3669599999999999  1.0000
  C   C88       1.0  0.5011  0.04841999999999997  0.34709  1.0000
  C   C89       1.0  0.44731  0.1311099999999999  0.3693499999999999  1.0000
  C   C90       1.0  0.38982  0.26390999999999987  0.4466799999999999  1.0000
  C   C91       1.0  0.45041  0.19178999999999993  0.44798  1.0000
  C   C92       1.0  0.4446999999999999  0.91243  0.07211  1.0000
  C   C93       1.0  0.37929999999999997  0.88242  0.98846  1.0000
  C   C94       1.0  0.35699999999999993  0.7870699999999996  0.9329599999999998  1.0000
  C   C95       1.0  0.4042799999999998  0.7260199999999996  0.9654899999999997  1.0000
  C   C96       1.0  0.4688799999999999  0.76074  0.04962  1.0000
  S   S1        1.0  0.6496199999999998  0.32695999999999986  0.66842  1.0000
  S   S2        1.0  0.6318399999999998  0.8379399999999996  0.7065599999999997  1.0000
  S   S3        1.0  0.14933000000000005  0.3409799999999999  0.66844  1.0000
  S   S4        1.0  0.13213999999999995  0.8677299999999997  0.70628  1.0000
  S   S5        1.0  0.8506700000000001  0.65902  0.33156  1.0000
  S   S6        1.0  0.86786  0.13226999999999994  0.29372  1.0000
  S   S7        1.0  0.35037999999999997  0.67304  0.3315799999999999  1.0000
  S   S8        1.0  0.36816  0.16206  0.29343  1.0000
  N   N1        1.0  0.78932  0.43035  0.47503  1.0000
  N   N2        1.0  0.51118  0.14728999999999987  0.8974599999999998  1.0000
  N   N3        1.0  0.28948  0.04380999999999999  0.47452  1.0000
  N   N4        1.0  0.011270000000000046  0.7492799999999997  0.89743  1.0000
  N   N5        1.0  0.7105199999999998  0.9561899999999995  0.5254799999999997  1.0000
  N   N6        1.0  0.98873  0.25072  0.10257  1.0000
  N   N7        1.0  0.21069  0.56965  0.52497  1.0000
  N   N8        1.0  0.48881999999999987  0.85271  0.10253999999999998  1.0000
  O   O1        1.0  0.77691  0.4592599999999998  0.6471299999999998  1.0000
  O   O2        1.0  0.8583399999999998  0.5598499999999995  0.7855299999999997  1.0000
  O   O3        1.0  0.4864499999999999  0.17594999999999983  0.6383899999999998  1.0000
  O   O4        1.0  0.5559099999999999  0.18862  0.7705  1.0000
  O   O5        1.0  0.74278  0.6112799999999998  0.59649  1.0000
  O   O6        1.0  0.79246  0.7117299999999996  0.7347399999999997  1.0000
  O   O7        1.0  0.45443  0.9768099999999998  0.5959  1.0000
  O   O8        1.0  0.50206  0.9909  0.72802  1.0000
  O   O9        1.0  0.27659  0.18709000000000006  0.64653  1.0000
  O   O10       1.0  0.35385999999999984  0.22145999999999982  0.7846099999999998  1.0000
  O   O11       1.0  0.9891199999999998  0.46294  0.63859  1.0000
  O   O12       1.0  0.05671999999999987  0.58103  0.7711599999999997  1.0000
  O   O13       1.0  0.2426  0.98507  0.59624  1.0000
  O   O14       1.0  0.29252  0.020679999999999994  0.73422  1.0000
  O   O15       1.0  0.9540699999999998  0.61972  0.59678  1.0000
  O   O16       1.0  0.004789999999999982  0.73701  0.72935  1.0000
  O   O17       1.0  0.72341  0.8129100000000001  0.35347  1.0000
  O   O18       1.0  0.64614  0.77854  0.21539  1.0000
  O   O19       1.0  0.010879999999999987  0.5370599999999998  0.36141  1.0000
  O   O20       1.0  0.94328  0.4189699999999998  0.22883999999999993  1.0000
  O   O21       1.0  0.7574  0.014929999999999943  0.4037599999999999  1.0000
  O   O22       1.0  0.70749  0.9793299999999998  0.26578  1.0000
  O   O23       1.0  0.045929999999999936  0.38028  0.4032199999999999  1.0000
  O   O24       1.0  0.9952099999999998  0.2629899999999999  0.27065  1.0000
  O   O25       1.0  0.22308999999999993  0.5407399999999998  0.3528699999999999  1.0000
  O   O26       1.0  0.14165999999999998  0.4401499999999999  0.21447  1.0000
  O   O27       1.0  0.5135599999999999  0.8240499999999997  0.3616099999999999  1.0000
  O   O28       1.0  0.44409  0.8113799999999998  0.2295  1.0000
  O   O29       1.0  0.25722  0.3887199999999999  0.40351  1.0000
  O   O30       1.0  0.20753999999999995  0.2882699999999998  0.2652599999999999  1.0000
  O   O31       1.0  0.5455699999999999  0.023190000000000006  0.4041  1.0000
  O   O32       1.0  0.49794  0.009110000000000007  0.27198  1.0000
