data_image0
_chemical_formula_structural       Cu8H64C104N8O32
_chemical_formula_sum              "Cu8 H64 C104 N8 O32"
_cell_length_a       10.93681
_cell_length_b       14.02623
_cell_length_c       21.95619
_cell_angle_alpha    87.59089
_cell_angle_beta     86.66876999999998
_cell_angle_gamma    88.09534999999998

_symmetry_space_group_name_H-M    'P 1'
_symmetry_Int_Tables_number       1

loop_
  _symmetry_equiv_pos_as_xyz
  'x,y,z'

loop_
  _atom_site_type_symbol
  _atom_site_label
  _atom_site_symmetry_multiplicity
  _atom_site_fract_x
  _atom_site_fract_y
  _atom_site_fract_z
  _atom_site_occupancy
  Cu  Cu1       1.0  0.22861  0.30345  0.66811  1.0000
  Cu  Cu2       1.0  0.23732  0.11759000000000003  0.67278  1.0000
  Cu  Cu3       1.0  0.19899  0.30071  0.16881  1.0000
  Cu  Cu4       1.0  0.20664  0.11466  0.17414  1.0000
  Cu  Cu5       1.0  0.77138  0.69656  0.33189  1.0000
  Cu  Cu6       1.0  0.76268  0.88242  0.32722  1.0000
  Cu  Cu7       1.0  0.80101  0.6993  0.8311899999999999  1.0000
  Cu  Cu8       1.0  0.79336  0.88534  0.82586  1.0000
  H   H1        1.0  0.20367  0.36314  0.8595  1.0000
  H   H2        1.0  0.19353000000000004  0.36402999999999996  0.97426  1.0000
  H   H3        1.0  0.24756  0.059559999999999995  0.98276  1.0000
  H   H4        1.0  0.25723  0.05836  0.8685099999999999  1.0000
  H   H5        1.0  0.85259  0.057849999999999985  0.68354  1.0000
  H   H6        1.0  0.62555  0.056509999999999984  0.67925  1.0000
  H   H7        1.0  0.61113  0.36265  0.66094  1.0000
  H   H8        1.0  0.83988  0.36429  0.66449  1.0000
  H   H9        1.0  0.26056  0.06231  0.48104  1.0000
  H   H10       1.0  0.24654000000000004  0.06061  0.36749999999999994  1.0000
  H   H11       1.0  0.16739  0.36261  0.36166  1.0000
  H   H12       1.0  0.18025  0.36383  0.47568999999999995  1.0000
  H   H13       1.0  0.82309  0.05455000000000001  0.18597999999999998  1.0000
  H   H14       1.0  0.59597  0.05236  0.18334999999999999  1.0000
  H   H15       1.0  0.58089  0.35804  0.15981  1.0000
  H   H16       1.0  0.80994  0.3601  0.16076  1.0000
  H   H17       1.0  0.39407  0.46214  0.61329  1.0000
  H   H18       1.0  0.4032899999999999  0.64027  0.61049  1.0000
  H   H19       1.0  0.06153000000000001  0.64423  0.72037  1.0000
  H   H20       1.0  0.06389999999999998  0.4665299999999999  0.71392  1.0000
  H   H21       1.0  0.42645000000000005  0.95082  0.66541  1.0000
  H   H22       1.0  0.43363  0.77316  0.6632  1.0000
  H   H23       1.0  0.03748  0.78567  0.67099  1.0000
  H   H24       1.0  0.0475  0.9620199999999999  0.67604  1.0000
  H   H25       1.0  0.3964  0.94826  0.16882999999999998  1.0000
  H   H26       1.0  0.4036  0.7707399999999999  0.16503  1.0000
  H   H27       1.0  0.00784  0.78443  0.16480999999999998  1.0000
  H   H28       1.0  0.01777000000000001  0.9603099999999998  0.17234  1.0000
  H   H29       1.0  0.36872999999999995  0.45910999999999996  0.11618  1.0000
  H   H30       1.0  0.37838  0.6371999999999999  0.11277  1.0000
  H   H31       1.0  0.025920000000000012  0.64335  0.21303  1.0000
  H   H32       1.0  0.028130000000000002  0.46568  0.20692999999999998  1.0000
  H   H33       1.0  0.79632  0.63687  0.1405  1.0000
  H   H34       1.0  0.80646  0.63597  0.02574  1.0000
  H   H35       1.0  0.75244  0.94044  0.01724  1.0000
  H   H36       1.0  0.7427699999999999  0.94165  0.13149  1.0000
  H   H37       1.0  0.14741  0.94216  0.31646  1.0000
  H   H38       1.0  0.37445  0.9435  0.32075  1.0000
  H   H39       1.0  0.38887000000000005  0.63736  0.33906  1.0000
  H   H40       1.0  0.16012000000000007  0.63572  0.33551  1.0000
  H   H41       1.0  0.73944  0.9377  0.51896  1.0000
  H   H42       1.0  0.75345  0.9394  0.6325  1.0000
  H   H43       1.0  0.83261  0.6374  0.63834  1.0000
  H   H44       1.0  0.8197499999999999  0.63618  0.52431  1.0000
  H   H45       1.0  0.17691000000000007  0.94546  0.8140199999999999  1.0000
  H   H46       1.0  0.40403  0.94765  0.81665  1.0000
  H   H47       1.0  0.41911  0.64196  0.84019  1.0000
  H   H48       1.0  0.19006000000000003  0.6399099999999999  0.83924  1.0000
  H   H49       1.0  0.60593  0.53787  0.38671  1.0000
  H   H50       1.0  0.59671  0.35973999999999995  0.38951  1.0000
  H   H51       1.0  0.93846  0.35577  0.27963  1.0000
  H   H52       1.0  0.9360900000000001  0.53348  0.28608  1.0000
  H   H53       1.0  0.57355  0.04919  0.33459  1.0000
  H   H54       1.0  0.56637  0.22684999999999994  0.3368  1.0000
  H   H55       1.0  0.9625200000000002  0.21432999999999996  0.32901  1.0000
  H   H56       1.0  0.9524999999999999  0.03799  0.32396  1.0000
  H   H57       1.0  0.60359  0.05175000000000001  0.8311699999999997  1.0000
  H   H58       1.0  0.5964  0.22926999999999997  0.83497  1.0000
  H   H59       1.0  0.9921500000000001  0.21558  0.83519  1.0000
  H   H60       1.0  0.98223  0.03969000000000001  0.8276599999999998  1.0000
  H   H61       1.0  0.63127  0.5409  0.88382  1.0000
  H   H62       1.0  0.62161  0.36281  0.8872299999999999  1.0000
  H   H63       1.0  0.9740800000000001  0.35666  0.78697  1.0000
  H   H64       1.0  0.97187  0.53433  0.7930699999999999  1.0000
  C   C1        1.0  0.23296  0.20982  0.78894  1.0000
  C   C2        1.0  0.9968300000000001  0.2129  0.67522  1.0000
  C   C3        1.0  0.2303  0.21395  0.5525999999999999  1.0000
  C   C4        1.0  0.46825000000000006  0.20907  0.66714  1.0000
  C   C5        1.0  0.19996  0.21018000000000003  0.28985999999999995  1.0000
  C   C6        1.0  0.96715  0.20875  0.17372  1.0000
  C   C7        1.0  0.21399999999999997  0.21199  0.05342  1.0000
  C   C8        1.0  0.43808  0.20453  0.16998999999999997  1.0000
  C   C9        1.0  0.23104  0.21069  0.85719  1.0000
  C   C10       1.0  0.21348  0.29725999999999997  0.88693  1.0000
  C   C11       1.0  0.20802  0.29784  0.9504599999999999  1.0000
  C   C12       1.0  0.22034  0.21194  0.98502  1.0000
  C   C13       1.0  0.23837000000000003  0.12549  0.9553399999999999  1.0000
  C   C14       1.0  0.24364000000000002  0.12495  0.8918699999999999  1.0000
  C   C15       1.0  0.8603299999999999  0.21143999999999996  0.67363  1.0000
  C   C16       1.0  0.79999  0.12445  0.67781  1.0000
  C   C17       1.0  0.6730400000000001  0.12358999999999998  0.67545  1.0000
  C   C18       1.0  0.60481  0.20957  0.66905  1.0000
  C   C19       1.0  0.6651199999999999  0.29652  0.66539  1.0000
  C   C20       1.0  0.79203  0.29744  0.66765  1.0000
  C   C21       1.0  0.22236  0.21336  0.48469  1.0000
  C   C22       1.0  0.24055  0.12748  0.45441  1.0000
  C   C23       1.0  0.23261999999999997  0.12669  0.39138999999999996  1.0000
  C   C24       1.0  0.20684999999999998  0.2116  0.35775  1.0000
  C   C25       1.0  0.18795  0.29743  0.38816999999999996  1.0000
  C   C26       1.0  0.19537  0.29823  0.45128  1.0000
  C   C27       1.0  0.8305900000000002  0.20753  0.17271  1.0000
  C   C28       1.0  0.77022  0.1207  0.17906  1.0000
  C   C29       1.0  0.64315  0.11947  0.17792999999999998  1.0000
  C   C30       1.0  0.57475  0.20515  0.17065  1.0000
  C   C31       1.0  0.63504  0.2921  0.16483  1.0000
  C   C32       1.0  0.76219  0.29326  0.16561  1.0000
  C   C33       1.0  0.3223200000000001  0.50581  0.63591  1.0000
  C   C34       1.0  0.3274  0.6049  0.63532  1.0000
  C   C35       1.0  0.23321999999999996  0.65811  0.6657499999999998  1.0000
  C   C36       1.0  0.13621  0.60741  0.695  1.0000
  C   C37       1.0  0.1379  0.50844  0.69267  1.0000
  C   C38       1.0  0.34255  0.91092  0.66683  1.0000
  C   C39       1.0  0.3457100000000001  0.81184  0.6649  1.0000
  C   C40       1.0  0.23523999999999998  0.76331  0.66696  1.0000
  C   C41       1.0  0.12598999999999996  0.81867  0.67062  1.0000
  C   C42       1.0  0.13073000000000007  0.91737  0.67272  1.0000
  C   C43       1.0  0.31264  0.9085199999999999  0.16837  1.0000
  C   C44       1.0  0.31579  0.80955  0.16545  1.0000
  C   C45       1.0  0.20535  0.76138  0.16496  1.0000
  C   C46       1.0  0.09621  0.81698  0.16688  1.0000
  C   C47       1.0  0.10091000000000001  0.9154699999999998  0.17027  1.0000
  C   C48       1.0  0.29478  0.50325  0.13659  1.0000
  C   C49       1.0  0.29998  0.60236  0.13563  1.0000
  C   C50       1.0  0.20301999999999998  0.65624  0.16328999999999996  1.0000
  C   C51       1.0  0.10295  0.60605  0.18982999999999997  1.0000
  C   C52       1.0  0.10462000000000002  0.50705  0.18787999999999994  1.0000
  C   C53       1.0  0.76704  0.79019  0.21106  1.0000
  C   C54       1.0  0.00316  0.78711  0.32478  1.0000
  C   C55       1.0  0.76969  0.78606  0.4474  1.0000
  C   C56       1.0  0.53175  0.79093  0.33286  1.0000
  C   C57       1.0  0.80004  0.78982  0.71014  1.0000
  C   C58       1.0  0.03285  0.79126  0.8262799999999999  1.0000
  C   C59       1.0  0.786  0.78801  0.9465799999999998  1.0000
  C   C60       1.0  0.56192  0.79548  0.8300099999999999  1.0000
  C   C61       1.0  0.76896  0.78932  0.14281  1.0000
  C   C62       1.0  0.78651  0.70275  0.11306999999999999  1.0000
  C   C63       1.0  0.79198  0.70217  0.04955  1.0000
  C   C64       1.0  0.77966  0.78807  0.014979999999999997  1.0000
  C   C65       1.0  0.76162  0.87451  0.04466  1.0000
  C   C66       1.0  0.75636  0.87506  0.10812999999999999  1.0000
  C   C67       1.0  0.13967000000000002  0.78857  0.32637  1.0000
  C   C68       1.0  0.20001  0.87556  0.3221899999999999  1.0000
  C   C69       1.0  0.32696  0.8764199999999998  0.32455  1.0000
  C   C70       1.0  0.39519  0.79044  0.33095  1.0000
  C   C71       1.0  0.33487999999999996  0.70349  0.33461  1.0000
  C   C72       1.0  0.20796000000000003  0.70257  0.33235  1.0000
  C   C73       1.0  0.77764  0.78665  0.51531  1.0000
  C   C74       1.0  0.7594500000000001  0.87253  0.54559  1.0000
  C   C75       1.0  0.76738  0.8733199999999999  0.60861  1.0000
  C   C76       1.0  0.79315  0.7884099999999999  0.64225  1.0000
  C   C77       1.0  0.81205  0.70257  0.61183  1.0000
  C   C78       1.0  0.80463  0.70178  0.54872  1.0000
  C   C79       1.0  0.16940999999999998  0.79247  0.82729  1.0000
  C   C80       1.0  0.22976999999999997  0.8793099999999999  0.82094  1.0000
  C   C81       1.0  0.35685  0.88053  0.82207  1.0000
  C   C82       1.0  0.42524000000000006  0.79486  0.82935  1.0000
  C   C83       1.0  0.36496  0.70791  0.83517  1.0000
  C   C84       1.0  0.23779999999999998  0.7067399999999999  0.83439  1.0000
  C   C85       1.0  0.67768  0.49419  0.36408999999999997  1.0000
  C   C86       1.0  0.6726  0.39511  0.36468  1.0000
  C   C87       1.0  0.76678  0.3419  0.33425  1.0000
  C   C88       1.0  0.86379  0.3926  0.305  1.0000
  C   C89       1.0  0.8621000000000001  0.49157  0.30733  1.0000
  C   C90       1.0  0.65745  0.08909  0.33317  1.0000
  C   C91       1.0  0.65429  0.18816999999999998  0.3351  1.0000
  C   C92       1.0  0.7647600000000001  0.2367  0.33303999999999995  1.0000
  C   C93       1.0  0.874  0.18134  0.32938  1.0000
  C   C94       1.0  0.86927  0.08264  0.32728  1.0000
  C   C95       1.0  0.6873599999999999  0.09148  0.83163  1.0000
  C   C96       1.0  0.68421  0.19045  0.83455  1.0000
  C   C97       1.0  0.79465  0.23861999999999994  0.83504  1.0000
  C   C98       1.0  0.9037900000000001  0.18303  0.83312  1.0000
  C   C99       1.0  0.89909  0.08454000000000002  0.8297299999999999  1.0000
  C   C100      1.0  0.7052200000000001  0.49676  0.8634099999999999  1.0000
  C   C101      1.0  0.70002  0.39763999999999994  0.8643699999999999  1.0000
  C   C102      1.0  0.7969800000000002  0.34376999999999996  0.8367099999999998  1.0000
  C   C103      1.0  0.89705  0.39394999999999997  0.81017  1.0000
  C   C104      1.0  0.8953800000000001  0.49295  0.81212  1.0000
  N   N1        1.0  0.2293  0.45776  0.66424  1.0000
  N   N2        1.0  0.23716000000000004  0.96341  0.67098  1.0000
  N   N3        1.0  0.20723  0.96114  0.17127  1.0000
  N   N4        1.0  0.19898  0.45571  0.16256  1.0000
  N   N5        1.0  0.7706900000000001  0.54224  0.33576  1.0000
  N   N6        1.0  0.76284  0.0366  0.32902  1.0000
  N   N7        1.0  0.79277  0.03886  0.82873  1.0000
  N   N8        1.0  0.80102  0.54429  0.8374399999999999  1.0000
  O   O1        1.0  0.22959  0.29099  0.76042  1.0000
  O   O2        1.0  0.23601000000000005  0.12846000000000002  0.7648399999999999  1.0000
  O   O3        1.0  0.04526  0.29467  0.67576  1.0000
  O   O4        1.0  0.054370000000000016  0.13226  0.6758199999999999  1.0000
  O   O5        1.0  0.22418  0.29533  0.57672  1.0000
  O   O6        1.0  0.24191999999999997  0.13315  0.58074  1.0000
  O   O7        1.0  0.41197000000000006  0.29022  0.66344  1.0000
  O   O8        1.0  0.41893  0.12762  0.66991  1.0000
  O   O9        1.0  0.19365  0.291  0.26083  1.0000
  O   O10       1.0  0.20037999999999997  0.12846  0.26645  1.0000
  O   O11       1.0  0.016139999999999998  0.29034  0.17277  1.0000
  O   O12       1.0  0.024160000000000008  0.12787  0.17559  1.0000
  O   O13       1.0  0.20559  0.2933  0.07778  1.0000
  O   O14       1.0  0.21753999999999998  0.13091  0.08168  1.0000
  O   O15       1.0  0.38202  0.28569  0.16667999999999997  1.0000
  O   O16       1.0  0.38847  0.12311  0.17317  1.0000
  O   O17       1.0  0.77041  0.70902  0.23958  1.0000
  O   O18       1.0  0.7639899999999998  0.87154  0.23515999999999998  1.0000
  O   O19       1.0  0.95474  0.70534  0.32424  1.0000
  O   O20       1.0  0.94563  0.86775  0.32418  1.0000
  O   O21       1.0  0.77581  0.70468  0.42327999999999993  1.0000
  O   O22       1.0  0.75808  0.8668599999999999  0.41925999999999997  1.0000
  O   O23       1.0  0.58803  0.7097799999999999  0.33655999999999997  1.0000
  O   O24       1.0  0.58107  0.8723799999999999  0.33009  1.0000
  O   O25       1.0  0.8063499999999999  0.709  0.73917  1.0000
  O   O26       1.0  0.79961  0.87155  0.73355  1.0000
  O   O27       1.0  0.9838499999999999  0.70966  0.82723  1.0000
  O   O28       1.0  0.97584  0.87213  0.8244099999999999  1.0000
  O   O29       1.0  0.7944  0.70671  0.92223  1.0000
  O   O30       1.0  0.78246  0.86909  0.91832  1.0000
  O   O31       1.0  0.6179800000000001  0.71432  0.83332  1.0000
  O   O32       1.0  0.61153  0.87689  0.8268299999999998  1.0000
