data_image0
_chemical_formula_structural       Mn12H32C60N24O28
_chemical_formula_sum              "Mn12 H32 C60 N24 O28"
_cell_length_a       14.64121
_cell_length_b       13.60342
_cell_length_c       14.93128
_cell_angle_alpha    104.27508
_cell_angle_beta     89.99590999999998
_cell_angle_gamma    89.99064

_symmetry_space_group_name_H-M    'P 1'
_symmetry_Int_Tables_number       1

loop_
  _symmetry_equiv_pos_as_xyz
  'x,y,z'

loop_
  _atom_site_type_symbol
  _atom_site_label
  _atom_site_symmetry_multiplicity
  _atom_site_fract_x
  _atom_site_fract_y
  _atom_site_fract_z
  _atom_site_occupancy
  Mn  Mn1       1.0  0.12213000000000002  0.33195  0.84465  1.0000
  Mn  Mn2       1.0  0.96369  0.24545  0.98127  1.0000
  Mn  Mn3       1.0  0.6217  0.66778  0.65435  1.0000
  Mn  Mn4       1.0  0.46365  0.7546200000000001  0.51719  1.0000
  Mn  Mn5       1.0  0.87787  0.66805  0.15536  1.0000
  Mn  Mn6       1.0  0.03632  0.75454  0.01873  1.0000
  Mn  Mn7       1.0  0.3783000000000001  0.33221  0.34565  1.0000
  Mn  Mn8       1.0  0.5363500000000001  0.24538  0.4828200000000001  1.0000
  Mn  Mn9       1.0  0.0  0.5  0.0  1.0000
  Mn  Mn10      1.0  0.5  0.5  0.5  1.0000
  Mn  Mn11      1.0  0.0  0.0  0.0  1.0000
  Mn  Mn12      1.0  0.5  0.0  0.5  1.0000
  H   H1        1.0  0.10014  0.34662  0.02973  1.0000
  H   H2        1.0  0.24912000000000006  0.80725  0.93218  1.0000
  H   H3        1.0  0.3837000000000001  0.77877  0.82412  1.0000
  H   H4        1.0  0.32410000000000005  0.45893  0.73102  1.0000
  H   H5        1.0  0.13361  0.84516  0.81597  1.0000
  H   H6        1.0  0.25168  0.80669  0.69024  1.0000
  H   H7        1.0  0.26787  0.12127  0.68284  1.0000
  H   H8        1.0  0.07589  0.16722  0.19236000000000006  1.0000
  H   H9        1.0  0.59996  0.65315  0.46873  1.0000
  H   H10       1.0  0.7491800000000002  0.19265000000000002  0.5679  1.0000
  H   H11       1.0  0.8840400000000003  0.22094  0.67574  1.0000
  H   H12       1.0  0.8246300000000002  0.54069  0.7693  1.0000
  H   H13       1.0  0.6324500000000002  0.15447000000000002  0.68372  1.0000
  H   H14       1.0  0.7514400000000002  0.19323  0.80856  1.0000
  H   H15       1.0  0.76886  0.87877  0.81585  1.0000
  H   H16       1.0  0.5755200000000003  0.8346000000000001  0.30695  1.0000
  H   H17       1.0  0.8998600000000002  0.65338  0.97027  1.0000
  H   H18       1.0  0.75088  0.19275000000000003  0.06783  1.0000
  H   H19       1.0  0.6163000000000002  0.22123  0.17588  1.0000
  H   H20       1.0  0.6759100000000002  0.54107  0.26898  1.0000
  H   H21       1.0  0.8663900000000002  0.15484  0.18404  1.0000
  H   H22       1.0  0.7483300000000003  0.19331000000000004  0.30976000000000004  1.0000
  H   H23       1.0  0.73214  0.87873  0.31716  1.0000
  H   H24       1.0  0.92411  0.83277  0.8076400000000001  1.0000
  H   H25       1.0  0.40005  0.34684000000000004  0.53128  1.0000
  H   H26       1.0  0.25082  0.8073500000000001  0.4321  1.0000
  H   H27       1.0  0.11597000000000003  0.7790500000000001  0.32426  1.0000
  H   H28       1.0  0.17538  0.45931  0.23070000000000002  1.0000
  H   H29       1.0  0.36755000000000004  0.84553  0.31628  1.0000
  H   H30       1.0  0.24857  0.80677  0.19144  1.0000
  H   H31       1.0  0.23114000000000007  0.12123  0.18416  1.0000
  H   H32       1.0  0.42449  0.16540000000000005  0.6930600000000001  1.0000
  C   C1        1.0  0.23448  0.54832  0.83847  1.0000
  C   C2        1.0  0.21229000000000003  0.6475  0.89146  1.0000
  C   C3        1.0  0.26592  0.73252  0.8894400000000002  1.0000
  C   C4        1.0  0.3398700000000001  0.71619  0.83008  1.0000
  C   C5        1.0  0.3588600000000001  0.6185100000000001  0.77213  1.0000
  C   C6        1.0  0.3077200000000001  0.53297  0.77583  1.0000
  C   C7        1.0  0.43269000000000013  0.6100900000000001  0.70167  1.0000
  C   C8        1.0  0.17377  0.08447999999999997  0.78397  1.0000
  C   C9        1.0  0.13625  0.006050000000000024  0.82036  1.0000
  C   C10       1.0  0.16303  0.90425  0.78758  1.0000
  C   C11       1.0  0.22783000000000006  0.88382  0.71835  1.0000
  C   C12       1.0  0.26594  0.9616500000000001  0.68107  1.0000
  C   C13       1.0  0.23924  0.06288  0.71289  1.0000
  C   C14       1.0  0.3375700000000001  0.93101  0.60791  1.0000
  C   C15       1.0  0.06233  0.20675000000000002  0.13766  1.0000
  C   C16       1.0  0.7348400000000003  0.4516200000000001  0.66144  1.0000
  C   C17       1.0  0.71258  0.35245  0.60855  1.0000
  C   C18       1.0  0.7661000000000002  0.26727  0.61063  1.0000
  C   C19       1.0  0.8400500000000002  0.28353  0.66991  1.0000
  C   C20       1.0  0.8589900000000003  0.3812  0.7278  1.0000
  C   C21       1.0  0.80791  0.46690000000000004  0.72428  1.0000
  C   C22       1.0  0.93277  0.38995  0.7983  1.0000
  C   C23       1.0  0.67373  0.91521  0.71531  1.0000
  C   C24       1.0  0.63571  0.99366  0.6792900000000001  1.0000
  C   C25       1.0  0.66235  0.09549  0.71193  1.0000
  C   C26       1.0  0.7274800000000002  0.11609999999999995  0.78083  1.0000
  C   C27       1.0  0.76606  0.03831000000000001  0.81784  1.0000
  C   C28       1.0  0.7395800000000002  0.9370200000000001  0.78605  1.0000
  C   C29       1.0  0.83776  0.06905000000000001  0.89095  1.0000
  C   C30       1.0  0.56222  0.79525  0.36191  1.0000
  C   C31       1.0  0.76553  0.45168000000000014  0.16153000000000003  1.0000
  C   C32       1.0  0.7877200000000002  0.3525  0.10854  1.0000
  C   C33       1.0  0.73408  0.26747  0.11057  1.0000
  C   C34       1.0  0.66013  0.2838  0.16992  1.0000
  C   C35       1.0  0.6411400000000002  0.38149  0.22787000000000004  1.0000
  C   C36       1.0  0.6922900000000001  0.4670300000000001  0.22418  1.0000
  C   C37       1.0  0.56732  0.38991  0.29833  1.0000
  C   C38       1.0  0.8262400000000002  0.91552  0.21604000000000007  1.0000
  C   C39       1.0  0.86375  0.9939500000000002  0.17964  1.0000
  C   C40       1.0  0.83698  0.09575  0.21242  1.0000
  C   C41       1.0  0.77218  0.11618000000000002  0.28165  1.0000
  C   C42       1.0  0.73407  0.038350000000000016  0.31893000000000005  1.0000
  C   C43       1.0  0.7607700000000002  0.9371199999999998  0.28712  1.0000
  C   C44       1.0  0.66244  0.06898000000000001  0.39209000000000005  1.0000
  C   C45       1.0  0.93767  0.79325  0.86234  1.0000
  C   C46       1.0  0.26517  0.54838  0.33856  1.0000
  C   C47       1.0  0.28742  0.64754  0.39146  1.0000
  C   C48       1.0  0.23391  0.73273  0.38937  1.0000
  C   C49       1.0  0.15995  0.71646  0.3300900000000001  1.0000
  C   C50       1.0  0.14102000000000006  0.6188  0.2722  1.0000
  C   C51       1.0  0.1921  0.5331  0.27573  1.0000
  C   C52       1.0  0.06723  0.61005  0.2017  1.0000
  C   C53       1.0  0.32627  0.08478  0.28469  1.0000
  C   C54       1.0  0.3643  0.006339999999999999  0.32071  1.0000
  C   C55       1.0  0.33765  0.90451  0.28808  1.0000
  C   C56       1.0  0.27252  0.8839  0.21918  1.0000
  C   C57       1.0  0.23395000000000005  0.96169  0.18216  1.0000
  C   C58       1.0  0.26043  0.06298  0.21395000000000006  1.0000
  C   C59       1.0  0.16225  0.93094  0.10905  1.0000
  C   C60       1.0  0.4377900000000001  0.20474  0.63809  1.0000
  N   N1        1.0  0.13397  0.64001  0.93938  1.0000
  N   N2        1.0  0.11069000000000002  0.54258  0.91875  1.0000
  N   N3        1.0  0.16948000000000005  0.48373  0.85928  1.0000
  N   N4        1.0  0.13278  0.17352000000000004  0.831  1.0000
  N   N5        1.0  0.07318  0.14868999999999996  0.89094  1.0000
  N   N6        1.0  0.07417  0.04987999999999998  0.88676  1.0000
  N   N7        1.0  0.6342600000000003  0.35995  0.56069  1.0000
  N   N8        1.0  0.61113  0.45746000000000003  0.58112  1.0000
  N   N9        1.0  0.66998  0.5162700000000001  0.64048  1.0000
  N   N10       1.0  0.6325600000000002  0.82618  0.6685500000000001  1.0000
  N   N11       1.0  0.57237  0.85106  0.60915  1.0000
  N   N12       1.0  0.5731900000000001  0.94986  0.61339  1.0000
  N   N13       1.0  0.8660300000000002  0.35999  0.06062000000000001  1.0000
  N   N14       1.0  0.88932  0.45742  0.08125  1.0000
  N   N15       1.0  0.8305300000000002  0.51627  0.14072000000000007  1.0000
  N   N16       1.0  0.8672200000000002  0.8264800000000001  0.16901  1.0000
  N   N17       1.0  0.9268300000000003  0.85131  0.10906  1.0000
  N   N18       1.0  0.9258400000000002  0.95012  0.11324  1.0000
  N   N19       1.0  0.36575  0.64004  0.43931000000000003  1.0000
  N   N20       1.0  0.38887  0.54254  0.4188800000000001  1.0000
  N   N21       1.0  0.3300300000000001  0.48373  0.35953  1.0000
  N   N22       1.0  0.36744000000000004  0.17382  0.33145  1.0000
  N   N23       1.0  0.42764  0.14893  0.39086  1.0000
  N   N24       1.0  0.4268200000000001  0.05013999999999998  0.38661  1.0000
  O   O1        1.0  0.06484  0.35519  0.97575  1.0000
  O   O2        1.0  0.99633  0.16596000000000002  0.0805  1.0000
  O   O3        1.0  0.10687  0.28325  0.13363  1.0000
  O   O4        1.0  0.36126  0.83728  0.58935  1.0000
  O   O5        1.0  0.37055  0.9964600000000001  0.5691  1.0000
  O   O6        1.0  0.42142000000000013  0.5466500000000002  0.62475  1.0000
  O   O7        1.0  0.50143  0.67066  0.72315  1.0000
  O   O8        1.0  0.5650400000000002  0.6445700000000001  0.52293  1.0000
  O   O9        1.0  0.49652000000000013  0.83605  0.41952  1.0000
  O   O10       1.0  0.6064400000000002  0.7185  0.36599  1.0000
  O   O11       1.0  0.86142  0.16276000000000007  0.9095800000000003  1.0000
  O   O12       1.0  0.8709500000000002  0.0034800000000000247  0.92951  1.0000
  O   O13       1.0  0.9215700000000002  0.45354  0.8750000000000002  1.0000
  O   O14       1.0  0.00158  0.32928  0.77678  1.0000
  O   O15       1.0  0.9351600000000002  0.6448  0.024250000000000004  1.0000
  O   O16       1.0  0.00367  0.8340400000000001  0.9195  1.0000
  O   O17       1.0  0.8931300000000002  0.71675  0.86637  1.0000
  O   O18       1.0  0.63874  0.16272  0.4106600000000001  1.0000
  O   O19       1.0  0.6294600000000002  0.0035300000000000158  0.43090000000000006  1.0000
  O   O20       1.0  0.57858  0.45335  0.37525  1.0000
  O   O21       1.0  0.4985800000000001  0.32933  0.27685  1.0000
  O   O22       1.0  0.43496000000000007  0.35543  0.4770700000000001  1.0000
  O   O23       1.0  0.50348  0.16395  0.58048  1.0000
  O   O24       1.0  0.39356  0.28149  0.63402  1.0000
  O   O25       1.0  0.13858000000000006  0.8372400000000002  0.09042000000000003  1.0000
  O   O26       1.0  0.12906  0.99652  0.0705  1.0000
  O   O27       1.0  0.07843000000000001  0.54645  0.125  1.0000
  O   O28       1.0  0.9984300000000002  0.67072  0.22323  1.0000
