data_image0
_chemical_formula_structural       Zn16H32C72O56
_chemical_formula_sum              "Zn16 H32 C72 O56"
_cell_length_a       10.67473
_cell_length_b       17.63343
_cell_length_c       16.97035
_cell_angle_alpha    90.0
_cell_angle_beta     90.08688999999998
_cell_angle_gamma    90.0

_symmetry_space_group_name_H-M    'P 1'
_symmetry_Int_Tables_number       1

loop_
  _symmetry_equiv_pos_as_xyz
  'x,y,z'

loop_
  _atom_site_type_symbol
  _atom_site_label
  _atom_site_symmetry_multiplicity
  _atom_site_fract_x
  _atom_site_fract_y
  _atom_site_fract_z
  _atom_site_occupancy
  Zn  Zn1       1.0  0.16586  0.21229  0.4897899999999999  1.0000
  Zn  Zn2       1.0  0.56623  0.65406  0.92527  1.0000
  Zn  Zn3       1.0  0.66592  0.61122  0.10924  1.0000
  Zn  Zn4       1.0  0.30400000000000005  0.61189  0.01555  1.0000
  Zn  Zn5       1.0  0.33435  0.78841  0.98923  1.0000
  Zn  Zn6       1.0  0.9342000000000001  0.34618  0.4259199999999999  1.0000
  Zn  Zn7       1.0  0.83375  0.38903  0.60979  1.0000
  Zn  Zn8       1.0  0.19654  0.38828  0.51512  1.0000
  Zn  Zn9       1.0  0.83414  0.71229  0.010209999999999997  1.0000
  Zn  Zn10      1.0  0.43378000000000005  0.15406  0.57474  1.0000
  Zn  Zn11      1.0  0.33409  0.11122  0.39076  1.0000
  Zn  Zn12      1.0  0.6960000000000001  0.11189  0.48445  1.0000
  Zn  Zn13      1.0  0.66565  0.28842  0.51078  1.0000
  Zn  Zn14      1.0  0.06581  0.84618  0.07408  1.0000
  Zn  Zn15      1.0  0.16626  0.88903  0.8902099999999997  1.0000
  Zn  Zn16      1.0  0.80347  0.88828  0.9848899999999999  1.0000
  H   H1        1.0  0.01975  0.30012  0.55757  1.0000
  H   H2        1.0  0.23834000000000002  0.08982  0.5383  1.0000
  H   H3        1.0  0.22231000000000004  0.41893  0.15314999999999995  1.0000
  H   H4        1.0  0.19866000000000003  0.31533  0.2522  1.0000
  H   H5        1.0  0.5715900000000002  0.48395000000000005  0.2608999999999999  1.0000
  H   H6        1.0  0.18938  0.43676999999999994  0.8464999999999998  1.0000
  H   H7        1.0  0.17437  0.33741  0.7423899999999998  1.0000
  H   H8        1.0  0.56913  0.48257999999999995  0.7771799999999998  1.0000
  H   H9        1.0  0.48252000000000006  0.70083  0.05549  1.0000
  H   H10       1.0  0.26147  0.90942  0.03916  1.0000
  H   H11       1.0  0.27783  0.58091  0.65347  1.0000
  H   H12       1.0  0.30131  0.6843  0.7526099999999998  1.0000
  H   H13       1.0  0.92919  0.51494  0.76094  1.0000
  H   H14       1.0  0.31152  0.56316  0.34604  1.0000
  H   H15       1.0  0.32707  0.6625099999999999  0.24193999999999996  1.0000
  H   H16       1.0  0.9319000000000001  0.51786  0.2756  1.0000
  H   H17       1.0  0.9802600000000001  0.80012  0.9424299999999998  1.0000
  H   H18       1.0  0.76167  0.58981  0.9616999999999999  1.0000
  H   H19       1.0  0.77769  0.91893  0.3468499999999999  1.0000
  H   H20       1.0  0.80134  0.81533  0.2478  1.0000
  H   H21       1.0  0.42841  0.9839499999999999  0.23909999999999998  1.0000
  H   H22       1.0  0.81062  0.93677  0.6535  1.0000
  H   H23       1.0  0.82564  0.83741  0.75761  1.0000
  H   H24       1.0  0.43088  0.98258  0.72282  1.0000
  H   H25       1.0  0.51748  0.20083  0.4445099999999999  1.0000
  H   H26       1.0  0.73853  0.40942  0.4608399999999999  1.0000
  H   H27       1.0  0.7221800000000002  0.08091  0.8465299999999998  1.0000
  H   H28       1.0  0.69869  0.1843  0.7473999999999997  1.0000
  H   H29       1.0  0.07081  0.01495  0.73907  1.0000
  H   H30       1.0  0.68849  0.06316  0.15395999999999996  1.0000
  H   H31       1.0  0.67293  0.16251  0.25806  1.0000
  H   H32       1.0  0.06811  0.01786  0.22439999999999993  1.0000
  C   C1        1.0  0.40030000000000004  0.45604  0.19874  1.0000
  C   C2        1.0  0.29397  0.40924  0.19761  1.0000
  C   C3        1.0  0.28097  0.35176  0.2531  1.0000
  C   C4        1.0  0.37312  0.34082  0.31105  1.0000
  C   C5        1.0  0.47689  0.39007  0.31485  1.0000
  C   C6        1.0  0.49041  0.44674  0.25785999999999987  1.0000
  C   C7        1.0  0.41450000000000004  0.51698  0.13858  1.0000
  C   C8        1.0  0.34925  0.27642  0.36715  1.0000
  C   C9        1.0  0.57088  0.38327  0.3800699999999999  1.0000
  C   C10       1.0  0.38046  0.46591  0.8189699999999998  1.0000
  C   C11       1.0  0.26938  0.4245  0.80897  1.0000
  C   C12       1.0  0.2612  0.3689  0.75049  1.0000
  C   C13       1.0  0.36349  0.35397  0.70113  1.0000
  C   C14       1.0  0.4754000000000001  0.39571  0.71098  1.0000
  C   C15       1.0  0.48273  0.45081  0.76989  1.0000
  C   C16       1.0  0.39282  0.52758  0.8791199999999998  1.0000
  C   C17       1.0  0.35290000000000005  0.29206  0.6402499999999998  1.0000
  C   C18       1.0  0.58514  0.38216  0.65843  1.0000
  C   C19       1.0  0.10042  0.54299  0.69878  1.0000
  C   C20       1.0  0.20616  0.59038  0.69783  1.0000
  C   C21       1.0  0.21878  0.648  0.7532399999999999  1.0000
  C   C22       1.0  0.1262  0.65909  0.8107499999999997  1.0000
  C   C23       1.0  0.02258  0.60966  0.81423  1.0000
  C   C24       1.0  0.01004  0.5524  0.7576299999999998  1.0000
  C   C25       1.0  0.08839  0.48157000000000005  0.6386899999999998  1.0000
  C   C26       1.0  0.1504  0.72364  0.86674  1.0000
  C   C27       1.0  0.92806  0.61641  0.8791199999999998  1.0000
  C   C28       1.0  0.12050000000000002  0.53402  0.31747  1.0000
  C   C29       1.0  0.23171  0.57547  0.3082099999999999  1.0000
  C   C30       1.0  0.24014  0.63112  0.24984  1.0000
  C   C31       1.0  0.1379  0.64631  0.20037  1.0000
  C   C32       1.0  0.02558  0.60515  0.20998999999999995  1.0000
  C   C33       1.0  0.01824  0.54962  0.26841999999999994  1.0000
  C   C34       1.0  0.10771  0.47203999999999996  0.3772299999999999  1.0000
  C   C35       1.0  0.1489  0.70827  0.13986999999999997  1.0000
  C   C36       1.0  0.91584  0.6194  0.1575  1.0000
  C   C37       1.0  0.5997  0.95604  0.30126  1.0000
  C   C38       1.0  0.70603  0.90924  0.30239  1.0000
  C   C39       1.0  0.71903  0.85175  0.2469  1.0000
  C   C40       1.0  0.62688  0.84082  0.18895  1.0000
  C   C41       1.0  0.52311  0.89006  0.18515  1.0000
  C   C42       1.0  0.50959  0.9467399999999999  0.24213999999999997  1.0000
  C   C43       1.0  0.58551  0.01698  0.36142  1.0000
  C   C44       1.0  0.65075  0.77641  0.13285  1.0000
  C   C45       1.0  0.42912000000000006  0.88327  0.11993999999999999  1.0000
  C   C46       1.0  0.61954  0.96591  0.6810399999999998  1.0000
  C   C47       1.0  0.73062  0.9245  0.69104  1.0000
  C   C48       1.0  0.73881  0.86889  0.74951  1.0000
  C   C49       1.0  0.63652  0.85397  0.7988799999999998  1.0000
  C   C50       1.0  0.5246  0.89571  0.7890199999999998  1.0000
  C   C51       1.0  0.51727  0.95081  0.73011  1.0000
  C   C52       1.0  0.60718  0.02758  0.62088  1.0000
  C   C53       1.0  0.6471  0.79206  0.8597599999999997  1.0000
  C   C54       1.0  0.41487  0.88215  0.8415699999999998  1.0000
  C   C55       1.0  0.89959  0.04299  0.8012199999999998  1.0000
  C   C56       1.0  0.79384  0.09038  0.8021699999999998  1.0000
  C   C57       1.0  0.78122  0.148  0.74677  1.0000
  C   C58       1.0  0.8738000000000001  0.15909  0.68925  1.0000
  C   C59       1.0  0.9774300000000001  0.10966  0.6857699999999998  1.0000
  C   C60       1.0  0.98996  0.0524  0.74237  1.0000
  C   C61       1.0  0.91162  0.9815700000000002  0.86131  1.0000
  C   C62       1.0  0.8496000000000001  0.22365  0.6332599999999998  1.0000
  C   C63       1.0  0.07194  0.11640999999999999  0.62088  1.0000
  C   C64       1.0  0.8795100000000001  0.03402  0.18253  1.0000
  C   C65       1.0  0.76829  0.07547  0.19179999999999994  1.0000
  C   C66       1.0  0.75986  0.13112  0.25016  1.0000
  C   C67       1.0  0.8621  0.14631  0.29963  1.0000
  C   C68       1.0  0.97442  0.10514999999999998  0.2900099999999999  1.0000
  C   C69       1.0  0.98176  0.04962  0.23158999999999993  1.0000
  C   C70       1.0  0.8923000000000001  0.97204  0.12277  1.0000
  C   C71       1.0  0.8511  0.20827  0.36013  1.0000
  C   C72       1.0  0.08416  0.1194  0.34251  1.0000
  O   O1        1.0  0.51894  0.5517  0.13497999999999993  1.0000
  O   O2        1.0  0.31909  0.53058  0.09528  1.0000
  O   O3        1.0  0.40012000000000003  0.21201  0.35277  1.0000
  O   O4        1.0  0.26752  0.28794  0.42026  1.0000
  O   O5        1.0  0.65522  0.43274  0.3888199999999999  1.0000
  O   O6        1.0  0.55519  0.32468  0.4242299999999999  1.0000
  O   O7        1.0  0.49914  0.5609  0.8805499999999998  1.0000
  O   O8        1.0  0.29924  0.54189  0.92358  1.0000
  O   O9        1.0  0.39923  0.22766999999999998  0.65901  1.0000
  O   O10       1.0  0.29402  0.30348  0.5757799999999997  1.0000
  O   O11       1.0  0.68834  0.41673  0.67437  1.0000
  O   O12       1.0  0.56845  0.33706  0.60124  1.0000
  O   O13       1.0  0.05808  0.31133  0.50626  1.0000
  O   O14       1.0  0.29414  0.12444  0.50403  1.0000
  O   O15       1.0  0.9867400000000001  0.44396  0.6350299999999998  1.0000
  O   O16       1.0  0.1838  0.46961  0.595  1.0000
  O   O17       1.0  0.10037  0.78818  0.85195  1.0000
  O   O18       1.0  0.23154  0.71206  0.92038  1.0000
  O   O19       1.0  0.84889  0.56444  0.8903699999999998  1.0000
  O   O20       1.0  0.9382800000000001  0.67769  0.92001  1.0000
  O   O21       1.0  0.0018600000000000003  0.43805  0.37749  1.0000
  O   O22       1.0  0.20088  0.45815  0.4222999999999999  1.0000
  O   O23       1.0  0.10130000000000002  0.7723  0.15851999999999994  1.0000
  O   O24       1.0  0.21023  0.69711  0.07627  1.0000
  O   O25       1.0  0.8117200000000001  0.58679  0.17477999999999994  1.0000
  O   O26       1.0  0.93363  0.6628  0.09901  1.0000
  O   O27       1.0  0.44262  0.68899  0.0047399999999999986  1.0000
  O   O28       1.0  0.20553  0.87543  0.00386  1.0000
  O   O29       1.0  0.48107000000000005  0.0517  0.36502  1.0000
  O   O30       1.0  0.68092  0.030580000000000003  0.4047199999999999  1.0000
  O   O31       1.0  0.59988  0.71201  0.14723  1.0000
  O   O32       1.0  0.73249  0.7879399999999999  0.07974  1.0000
  O   O33       1.0  0.34478  0.9327400000000001  0.11118  1.0000
  O   O34       1.0  0.44481  0.82467  0.07577  1.0000
  O   O35       1.0  0.50086  0.060899999999999996  0.6194599999999998  1.0000
  O   O36       1.0  0.70076  0.04189  0.57643  1.0000
  O   O37       1.0  0.60077  0.72767  0.8409899999999998  1.0000
  O   O38       1.0  0.70599  0.80348  0.92422  1.0000
  O   O39       1.0  0.31166  0.91672  0.8256299999999999  1.0000
  O   O40       1.0  0.43156  0.83705  0.8987599999999998  1.0000
  O   O41       1.0  0.9419300000000002  0.81133  0.9937499999999999  1.0000
  O   O42       1.0  0.70587  0.62444  0.99597  1.0000
  O   O43       1.0  0.013260000000000001  0.94396  0.86497  1.0000
  O   O44       1.0  0.8162  0.9696100000000001  0.9049999999999998  1.0000
  O   O45       1.0  0.8996300000000002  0.28818  0.6480499999999998  1.0000
  O   O46       1.0  0.76846  0.21206  0.57962  1.0000
  O   O47       1.0  0.15111  0.06445  0.60963  1.0000
  O   O48       1.0  0.06173000000000001  0.17769  0.57999  1.0000
  O   O49       1.0  0.99815  0.9380499999999999  0.12249999999999998  1.0000
  O   O50       1.0  0.79912  0.95814  0.07770999999999997  1.0000
  O   O51       1.0  0.89871  0.2723  0.34148  1.0000
  O   O52       1.0  0.78977  0.19712  0.42373  1.0000
  O   O53       1.0  0.18828  0.08679  0.3252199999999999  1.0000
  O   O54       1.0  0.06638  0.1628  0.40099  1.0000
  O   O55       1.0  0.55738  0.18899  0.49526999999999993  1.0000
  O   O56       1.0  0.7944800000000001  0.37543  0.49614  1.0000
