data_image0
_chemical_formula_structural       Co4H72C88N16O24
_chemical_formula_sum              "Co4 H72 C88 N16 O24"
_cell_length_a       10.09869
_cell_length_b       15.79291
_cell_length_c       16.69683
_cell_angle_alpha    111.29776
_cell_angle_beta     104.06199
_cell_angle_gamma    102.19081999999999

_symmetry_space_group_name_H-M    'P 1'
_symmetry_Int_Tables_number       1

loop_
  _symmetry_equiv_pos_as_xyz
  'x,y,z'

loop_
  _atom_site_type_symbol
  _atom_site_label
  _atom_site_symmetry_multiplicity
  _atom_site_fract_x
  _atom_site_fract_y
  _atom_site_fract_z
  _atom_site_occupancy
  Co  Co1       1.0  0.42144  0.37498  0.59195  1.0000
  Co  Co2       1.0  0.6797099999999999  0.20637999999999992  0.5925599999999998  1.0000
  Co  Co3       1.0  0.57857  0.62502  0.40805  1.0000
  Co  Co4       1.0  0.3203  0.79362  0.40744  1.0000
  H   H1        1.0  0.67148  0.54135  0.74974  1.0000
  H   H2        1.0  0.85589  0.6492999999999998  0.8903899999999998  1.0000
  H   H3        1.0  0.23697999999999997  0.9401999999999999  0.30210999999999993  1.0000
  H   H4        1.0  0.66157  0.52904  0.00251  1.0000
  H   H5        1.0  0.43505000000000005  0.38446  0.90738  1.0000
  H   H6        1.0  0.33897999999999984  0.3271599999999998  0.7379199999999998  1.0000
  H   H7        1.0  0.57084  0.22264999999999993  0.8937299999999999  1.0000
  H   H8        1.0  0.54828  0.3783599999999999  0.30432  1.0000
  H   H9        1.0  0.04144000000000001  0.77083  0.009669999999999998  1.0000
  H   H10       1.0  0.9237499999999998  0.83864  0.012149999999999998  1.0000
  H   H11       1.0  0.060939999999999966  0.80333  0.17814999999999995  1.0000
  H   H12       1.0  0.97053  0.88604  0.17685  1.0000
  H   H13       1.0  0.43570000000000003  0.05233999999999999  0.18294999999999997  1.0000
  H   H14       1.0  0.68106  0.17991  0.27605  1.0000
  H   H15       1.0  0.77647  0.23718999999999993  0.44701999999999986  1.0000
  H   H16       1.0  0.41348999999999997  0.04609999999999995  0.4355699999999999  1.0000
  H   H17       1.0  0.5892099999999999  0.20269999999999988  0.7546499999999998  1.0000
  H   H18       1.0  0.9361199999999998  0.4114899999999999  0.00485  1.0000
  H   H19       1.0  0.06927999999999994  0.44985  0.90585  1.0000
  H   H20       1.0  0.95119  0.3633099999999998  0.7356399999999997  1.0000
  H   H21       1.0  0.45559  0.27747  0.00689  1.0000
  H   H22       1.0  0.54681  0.20021  0.02676999999999999  1.0000
  H   H23       1.0  0.58714  0.40078  0.17256999999999995  1.0000
  H   H24       1.0  0.68058  0.32502999999999993  0.19269  1.0000
  H   H25       1.0  0.21305  0.15802  0.18142999999999995  1.0000
  H   H26       1.0  0.06770000000000002  0.11614  0.2728  1.0000
  H   H27       1.0  0.1580199999999999  0.2158199999999999  0.4438199999999999  1.0000
  H   H28       1.0  0.5118599999999999  0.39623999999999987  0.43537  1.0000
  H   H29       1.0  0.96251  0.36948  0.5982  1.0000
  H   H30       1.0  0.23019  0.63308  0.61942  1.0000
  H   H31       1.0  0.03202999999999998  0.70312  0.6311999999999999  1.0000
  H   H32       1.0  0.7981199999999998  0.6045199999999998  0.6240499999999998  1.0000
  H   H33       1.0  0.34127999999999986  0.009539999999999894  0.6266899999999997  1.0000
  H   H34       1.0  0.14302  0.21632  0.59293  1.0000
  H   H35       1.0  0.9050599999999999  0.9778199999999998  0.62418  1.0000
  H   H36       1.0  0.11765999999999978  0.9195999999999996  0.6379199999999998  1.0000
  H   H37       1.0  0.32853  0.45865  0.25026  1.0000
  H   H38       1.0  0.14411999999999991  0.35070999999999986  0.10960999999999997  1.0000
  H   H39       1.0  0.7630299999999999  0.05979999999999988  0.6978899999999998  1.0000
  H   H40       1.0  0.3384399999999999  0.4709599999999999  0.9974899999999998  1.0000
  H   H41       1.0  0.5649599999999999  0.6155399999999999  0.09262  1.0000
  H   H42       1.0  0.6610299999999999  0.6728399999999998  0.26207  1.0000
  H   H43       1.0  0.42916999999999994  0.77735  0.10626999999999999  1.0000
  H   H44       1.0  0.4517199999999999  0.6216399999999997  0.69567  1.0000
  H   H45       1.0  0.95857  0.22917000000000007  0.99033  1.0000
  H   H46       1.0  0.07625999999999983  0.1613599999999999  0.9878399999999998  1.0000
  H   H47       1.0  0.9390700000000001  0.19667  0.8218499999999999  1.0000
  H   H48       1.0  0.029470000000000024  0.11395999999999999  0.82315  1.0000
  H   H49       1.0  0.5643099999999999  0.9476599999999997  0.81705  1.0000
  H   H50       1.0  0.3189499999999999  0.8201  0.7239499999999998  1.0000
  H   H51       1.0  0.2235399999999999  0.7628199999999998  0.5529799999999999  1.0000
  H   H52       1.0  0.5865199999999999  0.95391  0.5644299999999999  1.0000
  H   H53       1.0  0.4108  0.7973  0.24534999999999996  1.0000
  H   H54       1.0  0.06388999999999986  0.58851  0.9951499999999998  1.0000
  H   H55       1.0  0.93073  0.55016  0.09415  1.0000
  H   H56       1.0  0.048819999999999995  0.63669  0.26436  1.0000
  H   H57       1.0  0.5444199999999998  0.7225299999999996  0.9931099999999998  1.0000
  H   H58       1.0  0.45319999999999977  0.7997899999999999  0.9732299999999998  1.0000
  H   H59       1.0  0.41285999999999984  0.5992199999999999  0.8274299999999998  1.0000
  H   H60       1.0  0.31943  0.67497  0.8073099999999998  1.0000
  H   H61       1.0  0.78696  0.8419799999999998  0.8185599999999997  1.0000
  H   H62       1.0  0.93231  0.88386  0.7272  1.0000
  H   H63       1.0  0.84198  0.7841799999999998  0.55618  1.0000
  H   H64       1.0  0.4881399999999999  0.60376  0.5646299999999997  1.0000
  H   H65       1.0  0.037499999999999895  0.6305199999999997  0.40179999999999993  1.0000
  H   H66       1.0  0.7698199999999998  0.3669299999999999  0.38057999999999986  1.0000
  H   H67       1.0  0.96798  0.29688  0.3687999999999999  1.0000
  H   H68       1.0  0.2018899999999999  0.39547999999999994  0.3759399999999999  1.0000
  H   H69       1.0  0.65873  0.9904599999999998  0.37331  1.0000
  H   H70       1.0  0.8569900000000001  0.7836799999999998  0.40707  1.0000
  H   H71       1.0  0.09494999999999996  0.02217999999999995  0.3758199999999999  1.0000
  H   H72       1.0  0.88235  0.08039999999999997  0.3620699999999999  1.0000
  C   C1        1.0  0.62249  0.50925  0.78782  1.0000
  C   C2        1.0  0.68048  0.54916  0.8838  1.0000
  C   C3        1.0  0.61535  0.50273  0.9287099999999998  1.0000
  C   C4        1.0  0.49087  0.42225  0.87577  1.0000
  C   C5        1.0  0.43712  0.38871  0.78083  1.0000
  C   C6        1.0  0.83587  0.7066999999999999  0.01662  1.0000
  C   C7        1.0  0.9641999999999998  0.7932  0.041989999999999986  1.0000
  C   C8        1.0  0.040449999999999896  0.8508799999999997  0.14573  1.0000
  C   C9        1.0  0.18251  0.92692  0.16854  1.0000
  C   C10       1.0  0.40602999999999995  0.03937000000000003  0.30227  1.0000
  C   C11       1.0  0.48275999999999997  0.07777  0.25665  1.0000
  C   C12       1.0  0.61779  0.14910999999999996  0.30909999999999993  1.0000
  C   C13       1.0  0.6719900000000001  0.18171  0.40374  1.0000
  C   C14       1.0  0.46865  0.07540999999999992  0.3981999999999999  1.0000
  C   C15       1.0  0.69432  0.2593  0.79127  1.0000
  C   C16       1.0  0.75029  0.3061099999999999  0.8875099999999998  1.0000
  C   C17       1.0  0.8884699999999999  0.37593999999999994  0.9306699999999998  1.0000
  C   C18       1.0  0.96177  0.39648999999999984  0.8756199999999997  1.0000
  C   C19       1.0  0.89752  0.34846  0.7805  1.0000
  C   C20       1.0  0.68135  0.3245599999999999  0.026289999999999994  1.0000
  C   C21       1.0  0.55786  0.2768  0.04874999999999999  1.0000
  C   C22       1.0  0.57805  0.3244799999999999  0.15015999999999993  1.0000
  C   C23       1.0  0.45239999999999997  0.27315  0.16943999999999998  1.0000
  C   C24       1.0  0.37326  0.28104999999999997  0.30146999999999996  1.0000
  C   C25       1.0  0.24611  0.20075  0.25497  1.0000
  C   C26       1.0  0.16720000000000002  0.17758  0.30658  1.0000
  C   C27       1.0  0.21601999999999988  0.23174999999999996  0.4012199999999999  1.0000
  C   C28       1.0  0.415  0.33291  0.39732  1.0000
  C   C29       1.0  0.86494  0.4810499999999999  0.6107999999999999  1.0000
  C   C30       1.0  0.9776399999999997  0.4429199999999999  0.6066399999999998  1.0000
  C   C31       1.0  0.10976999999999998  0.49799  0.61096  1.0000
  C   C32       1.0  0.12924999999999998  0.59194  0.6196  1.0000
  C   C33       1.0  0.018039999999999824  0.6307799999999997  0.6256499999999999  1.0000
  C   C34       1.0  0.88639  0.5758199999999998  0.62148  1.0000
  C   C35       1.0  0.22575999999999988  0.45451999999999987  0.60383  1.0000
  C   C36       1.0  0.72184  0.41846999999999995  0.59991  1.0000
  C   C37       1.0  0.24944999999999998  0.03524000000000001  0.62319  1.0000
  C   C38       1.0  0.25709  0.11832000000000001  0.60916  1.0000
  C   C39       1.0  0.13893999999999992  0.15182999999999988  0.6034399999999998  1.0000
  C   C40       1.0  0.01289999999999998  0.10162999999999994  0.60973  1.0000
  C   C41       1.0  0.005150000000000005  0.01778999999999999  0.62219  1.0000
  C   C42       1.0  0.12380000000000002  0.9853000000000001  0.62955  1.0000
  C   C43       1.0  0.3875  0.16922999999999994  0.59667  1.0000
  C   C44       1.0  0.8875799999999998  0.13694999999999988  0.6006099999999998  1.0000
  C   C45       1.0  0.37751999999999986  0.4907499999999999  0.21217999999999995  1.0000
  C   C46       1.0  0.31953  0.45084  0.11618999999999999  1.0000
  C   C47       1.0  0.38466  0.49728  0.07129  1.0000
  C   C48       1.0  0.50914  0.57776  0.12423  1.0000
  C   C49       1.0  0.56289  0.61129  0.21916999999999995  1.0000
  C   C50       1.0  0.16413999999999987  0.2932999999999999  0.9833799999999998  1.0000
  C   C51       1.0  0.035809999999999884  0.2067999999999999  0.9580099999999998  1.0000
  C   C52       1.0  0.95956  0.14912  0.85426  1.0000
  C   C53       1.0  0.8175  0.07307999999999995  0.8314599999999998  1.0000
  C   C54       1.0  0.5939799999999997  0.9606399999999997  0.6977299999999997  1.0000
  C   C55       1.0  0.51725  0.9222300000000001  0.74335  1.0000
  C   C56       1.0  0.3822099999999998  0.8508899999999998  0.6908999999999997  1.0000
  C   C57       1.0  0.32800999999999986  0.8182999999999997  0.5962599999999998  1.0000
  C   C58       1.0  0.53136  0.9246  0.6017999999999999  1.0000
  C   C59       1.0  0.3056799999999999  0.7406999999999998  0.20873  1.0000
  C   C60       1.0  0.24972  0.69389  0.11249  1.0000
  C   C61       1.0  0.11152999999999998  0.62406  0.06932999999999999  1.0000
  C   C62       1.0  0.038240000000000045  0.60351  0.12437999999999998  1.0000
  C   C63       1.0  0.10248999999999997  0.65154  0.2195  1.0000
  C   C64       1.0  0.31866  0.6754399999999998  0.97371  1.0000
  C   C65       1.0  0.44214999999999993  0.7231999999999997  0.9512499999999999  1.0000
  C   C66       1.0  0.4219599999999997  0.6755199999999996  0.8498399999999998  1.0000
  C   C67       1.0  0.5476099999999998  0.72685  0.8305599999999997  1.0000
  C   C68       1.0  0.62675  0.71895  0.69853  1.0000
  C   C69       1.0  0.7538999999999998  0.79925  0.7450299999999997  1.0000
  C   C70       1.0  0.8328099999999999  0.82242  0.69342  1.0000
  C   C71       1.0  0.78399  0.7682499999999999  0.5987799999999999  1.0000
  C   C72       1.0  0.5850099999999999  0.6670899999999998  0.6026799999999998  1.0000
  C   C73       1.0  0.13506999999999994  0.51895  0.3891999999999999  1.0000
  C   C74       1.0  0.022369999999999966  0.55708  0.3933599999999999  1.0000
  C   C75       1.0  0.8902399999999996  0.50201  0.38904  1.0000
  C   C76       1.0  0.8707599999999995  0.4080599999999998  0.3803999999999999  1.0000
  C   C77       1.0  0.98197  0.3692199999999999  0.37434  1.0000
  C   C78       1.0  0.11361999999999987  0.4241799999999998  0.3785199999999999  1.0000
  C   C79       1.0  0.7742499999999998  0.5454799999999997  0.3961599999999999  1.0000
  C   C80       1.0  0.27816999999999986  0.5815399999999998  0.4000899999999999  1.0000
  C   C81       1.0  0.7505599999999998  0.9647599999999996  0.37680999999999987  1.0000
  C   C82       1.0  0.74291  0.88168  0.3908399999999999  1.0000
  C   C83       1.0  0.86106  0.84817  0.39656  1.0000
  C   C84       1.0  0.9871100000000002  0.89837  0.3902699999999999  1.0000
  C   C85       1.0  0.99486  0.98221  0.37781  1.0000
  C   C86       1.0  0.8762099999999999  0.014699999999999996  0.37045  1.0000
  C   C87       1.0  0.6125099999999999  0.8307699999999997  0.40333  1.0000
  C   C88       1.0  0.11243000000000002  0.86305  0.39939  1.0000
  N   N1        1.0  0.50409  0.4304999999999999  0.7370599999999998  1.0000
  N   N2        1.0  0.80262  0.6329899999999999  0.9301799999999998  1.0000
  N   N3        1.0  0.27062  0.96704  0.25939999999999996  1.0000
  N   N4        1.0  0.5974699999999998  0.14516999999999988  0.4478199999999999  1.0000
  N   N5        1.0  0.7654999999999998  0.27977999999999975  0.7388199999999998  1.0000
  N   N6        1.0  0.66442  0.27876  0.93427  1.0000
  N   N7        1.0  0.46524999999999994  0.31335  0.26037  1.0000
  N   N8        1.0  0.33965  0.30846  0.44618  1.0000
  N   N9        1.0  0.4959200000000001  0.56951  0.2629299999999999  1.0000
  N   N10       1.0  0.19738999999999995  0.36701  0.06981999999999997  1.0000
  N   N11       1.0  0.7293900000000001  0.03297  0.7406  1.0000
  N   N12       1.0  0.40254  0.8548299999999998  0.55218  1.0000
  N   N13       1.0  0.23451000000000005  0.7202200000000001  0.26118  1.0000
  N   N14       1.0  0.33559  0.72124  0.06572  1.0000
  N   N15       1.0  0.53476  0.68665  0.73963  1.0000
  N   N16       1.0  0.66036  0.69154  0.55381  1.0000
  O   O1        1.0  0.76616  0.70161  0.06703  1.0000
  O   O2        1.0  0.21397999999999995  0.9496799999999997  0.11037999999999999  1.0000
  O   O3        1.0  0.7859299999999999  0.39623999999999987  0.08289  1.0000
  O   O4        1.0  0.35  0.20207999999999998  0.10854  1.0000
  O   O5        1.0  0.61608  0.45147  0.59592  1.0000
  O   O6        1.0  0.7118099999999999  0.33482  0.5938  1.0000
  O   O7        1.0  0.2009699999999999  0.36597  0.5860799999999998  1.0000
  O   O8        1.0  0.35234999999999994  0.5057  0.61528  1.0000
  O   O9        1.0  0.49254  0.13557999999999995  0.60002  1.0000
  O   O10       1.0  0.38701999999999986  0.2423999999999999  0.5816499999999998  1.0000
  O   O11       1.0  0.8923299999999997  0.20906999999999995  0.5827399999999998  1.0000
  O   O12       1.0  0.77346  0.09543000000000004  0.61133  1.0000
  O   O13       1.0  0.23385  0.29839  0.93297  1.0000
  O   O14       1.0  0.78603  0.050320000000000024  0.88962  1.0000
  O   O15       1.0  0.21407999999999996  0.60376  0.91711  1.0000
  O   O16       1.0  0.6500099999999998  0.7979199999999997  0.8914599999999998  1.0000
  O   O17       1.0  0.38392999999999994  0.54853  0.40408  1.0000
  O   O18       1.0  0.2882  0.66518  0.4062  1.0000
  O   O19       1.0  0.7990399999999999  0.6340399999999998  0.4139199999999999  1.0000
  O   O20       1.0  0.64766  0.4943  0.38471999999999995  1.0000
  O   O21       1.0  0.50747  0.86442  0.3999699999999999  1.0000
  O   O22       1.0  0.61299  0.75761  0.4183499999999999  1.0000
  O   O23       1.0  0.10767999999999998  0.79093  0.41726  1.0000
  O   O24       1.0  0.22654999999999995  0.90457  0.3886699999999999  1.0000
