data_image0
_chemical_formula_structural       Cd8H44C84N12O24
_chemical_formula_sum              "Cd8 H44 C84 N12 O24"
_cell_length_a       10.61157
_cell_length_b       14.5259
_cell_length_c       18.198140000000002
_cell_angle_alpha    75.34965
_cell_angle_beta     72.97551
_cell_angle_gamma    68.43803

_symmetry_space_group_name_H-M    'P 1'
_symmetry_Int_Tables_number       1

loop_
  _symmetry_equiv_pos_as_xyz
  'x,y,z'

loop_
  _atom_site_type_symbol
  _atom_site_label
  _atom_site_symmetry_multiplicity
  _atom_site_fract_x
  _atom_site_fract_y
  _atom_site_fract_z
  _atom_site_occupancy
  Cd  Cd1       1.0  0.029260000000000036  0.8994399999999999  0.45275  1.0000
  Cd  Cd2       1.0  0.005670000000000034  0.71575  0.3740399999999999  1.0000
  Cd  Cd3       1.0  0.38146  0.59991  0.04858  1.0000
  Cd  Cd4       1.0  0.09245999999999997  0.7850400000000001  0.12755  1.0000
  Cd  Cd5       1.0  0.97073  0.10056  0.54725  1.0000
  Cd  Cd6       1.0  0.99433  0.28426  0.62596  1.0000
  Cd  Cd7       1.0  0.6185300000000001  0.40008999999999995  0.95142  1.0000
  Cd  Cd8       1.0  0.9075399999999999  0.21496000000000004  0.87245  1.0000
  H   H1        1.0  0.7918100000000002  0.58032  0.85336  1.0000
  H   H2        1.0  0.81857  0.63335  0.06866999999999997  1.0000
  H   H3        1.0  0.15380000000000016  0.63926  0.8673799999999998  1.0000
  H   H4        1.0  0.11563999999999998  0.73079  0.74102  1.0000
  H   H5        1.0  0.14303  0.01981  0.0665  1.0000
  H   H6        1.0  0.1602699999999999  0.7498  0.59752  1.0000
  H   H7        1.0  0.99086  0.5145300000000002  0.62079  1.0000
  H   H8        1.0  0.9518400000000001  0.49126999999999993  0.76523  1.0000
  H   H9        1.0  0.1409  0.08743999999999999  0.32691  1.0000
  H   H10       1.0  0.21393999999999996  0.19458000000000006  0.20185999999999996  1.0000
  H   H11       1.0  0.21279999999999993  0.16263  0.07568999999999998  1.0000
  H   H12       1.0  0.22355000000000017  0.91979  0.6483799999999998  1.0000
  H   H13       1.0  0.52132  0.86652  0.43313  1.0000
  H   H14       1.0  0.6580200000000002  0.8615199999999998  0.63497  1.0000
  H   H15       1.0  0.5873099999999999  0.7693299999999998  0.75963  1.0000
  H   H16       1.0  0.22818000000000008  0.48152  0.43427  1.0000
  H   H17       1.0  0.50915  0.7488  0.9032699999999998  1.0000
  H   H18       1.0  0.12659999999999996  0.9849400000000001  0.88252  1.0000
  H   H19       1.0  0.20663000000000012  0.009700000000000047  0.7379099999999997  1.0000
  H   H20       1.0  0.5520999999999999  0.4111  0.17349  1.0000
  H   H21       1.0  0.60916  0.3052  0.29857  1.0000
  H   H22       1.0  0.4508000000000001  0.33851  0.42496  1.0000
  H   H23       1.0  0.20818000000000006  0.41968  0.14663999999999994  1.0000
  H   H24       1.0  0.18143000000000004  0.36665000000000003  0.9313299999999998  1.0000
  H   H25       1.0  0.8461999999999998  0.36074  0.13262  1.0000
  H   H26       1.0  0.88435  0.26921  0.25898  1.0000
  H   H27       1.0  0.8569699999999999  0.98019  0.9335  1.0000
  H   H28       1.0  0.83973  0.2501999999999999  0.40248  1.0000
  H   H29       1.0  0.009129999999999926  0.48547  0.37921  1.0000
  H   H30       1.0  0.04814999999999997  0.50874  0.23478  1.0000
  H   H31       1.0  0.8590900000000002  0.91257  0.67309  1.0000
  H   H32       1.0  0.7860500000000001  0.8054200000000002  0.7981499999999998  1.0000
  H   H33       1.0  0.7871899999999994  0.83737  0.92431  1.0000
  H   H34       1.0  0.7764400000000002  0.08021000000000005  0.3516199999999999  1.0000
  H   H35       1.0  0.47866999999999993  0.13348  0.56687  1.0000
  H   H36       1.0  0.34197  0.13849  0.3650299999999999  1.0000
  H   H37       1.0  0.4126799999999999  0.23068  0.24037  1.0000
  H   H38       1.0  0.77181  0.51848  0.56574  1.0000
  H   H39       1.0  0.49083999999999994  0.2512  0.09673  1.0000
  H   H40       1.0  0.8733900000000001  0.015069999999999997  0.11748  1.0000
  H   H41       1.0  0.7933699999999999  0.99031  0.26208999999999993  1.0000
  H   H42       1.0  0.44789  0.5889  0.82651  1.0000
  H   H43       1.0  0.39082999999999996  0.6948  0.70143  1.0000
  H   H44       1.0  0.5492  0.6614999999999999  0.57504  1.0000
  C   C1        1.0  0.10328000000000012  0.99277  0.26534999999999986  1.0000
  C   C2        1.0  0.85192  0.5944200000000001  0.88602  1.0000
  C   C3        1.0  0.028330000000000053  0.6108  0.7636599999999999  1.0000
  C   C4        1.0  0.7948300000000001  0.6012699999999999  0.9647899999999999  1.0000
  C   C5        1.0  0.07695999999999995  0.65589  0.51583  1.0000
  C   C6        1.0  0.86474  0.6256  0.00791  1.0000
  C   C7        1.0  0.9804500000000005  0.6095999999999999  0.8487799999999998  1.0000
  C   C8        1.0  0.65681  0.58724  0.00136  1.0000
  C   C9        1.0  0.99403  0.63899  0.9721899999999999  1.0000
  C   C10       1.0  0.05213999999999998  0.62984  0.89336  1.0000
  C   C11       1.0  0.07264000000000001  0.66295  0.01734  1.0000
  C   C12       1.0  0.10631000000000017  0.9720099999999999  0.19265  1.0000
  C   C13       1.0  0.09281000000000014  0.68063  0.7150799999999998  1.0000
  C   C14       1.0  0.14454  0.03354  0.12223  1.0000
  C   C15       1.0  0.11678999999999998  0.69211  0.63422  1.0000
  C   C16       1.0  0.07643000000000004  0.6339399999999998  0.60015  1.0000
  C   C17       1.0  0.02015000000000006  0.55972  0.64816  1.0000
  C   C18       1.0  0.9972000000000003  0.54803  0.72862  1.0000
  C   C19       1.0  0.14211999999999994  0.07315000000000003  0.27081  1.0000
  C   C20       1.0  0.18253999999999998  0.13157000000000005  0.20115  1.0000
  C   C21       1.0  0.18246  0.11268999999999998  0.12822  1.0000
  C   C22       1.0  0.3585199999999999  0.50645  0.23536999999999997  1.0000
  C   C23       1.0  0.33068  0.90554  0.61576  1.0000
  C   C24       1.0  0.40137000000000006  0.88932  0.73826  1.0000
  C   C25       1.0  0.3603600000000002  0.8980499999999999  0.5369399999999998  1.0000
  C   C26       1.0  0.24854999999999985  0.84277  0.98627  1.0000
  C   C27       1.0  0.4982799999999999  0.87448  0.49390999999999996  1.0000
  C   C28       1.0  0.43676999999999994  0.89069  0.65315  1.0000
  C   C29       1.0  0.24549000000000004  0.9111699999999999  0.4999799999999999  1.0000
  C   C30       1.0  0.60469  0.86222  0.5297  1.0000
  C   C31       1.0  0.5734899999999999  0.87089  0.60868  1.0000
  C   C32       1.0  0.7533  0.8396000000000001  0.48516  1.0000
  C   C33       1.0  0.26867  0.5280400000000002  0.30808999999999986  1.0000
  C   C34       1.0  0.48813000000000006  0.81907  0.78621  1.0000
  C   C35       1.0  0.29886999999999975  0.46716  0.37851  1.0000
  C   C36       1.0  0.44390000000000013  0.80697  0.86718  1.0000
  C   C37       1.0  0.31123000000000006  0.86502  0.90197  1.0000
  C   C38       1.0  0.22828000000000004  0.93991  0.85446  1.0000
  C   C39       1.0  0.27275999999999967  0.95224  0.77393  1.0000
  C   C40       1.0  0.48351  0.42592  0.22972999999999993  1.0000
  C   C41       1.0  0.51366  0.36821  0.29939  1.0000
  C   C42       1.0  0.42231  0.38791999999999993  0.37242  1.0000
  C   C43       1.0  0.89671  0.007230000000000003  0.73466  1.0000
  C   C44       1.0  0.14807999999999996  0.40559  0.11398  1.0000
  C   C45       1.0  0.97166  0.3892  0.23634  1.0000
  C   C46       1.0  0.20516999999999996  0.39874  0.035209999999999984  1.0000
  C   C47       1.0  0.9230400000000001  0.34411  0.48417  1.0000
  C   C48       1.0  0.13524999999999998  0.3744  0.9920999999999999  1.0000
  C   C49       1.0  0.01955000000000001  0.3904  0.15121999999999997  1.0000
  C   C50       1.0  0.3431799999999999  0.41276000000000007  0.99864  1.0000
  C   C51       1.0  0.00596  0.36101  0.02781  1.0000
  C   C52       1.0  0.94785  0.37016  0.10664  1.0000
  C   C53       1.0  0.9273599999999994  0.33705000000000007  0.98266  1.0000
  C   C54       1.0  0.8936900000000001  0.027990000000000053  0.8073499999999998  1.0000
  C   C55       1.0  0.9071800000000001  0.31937  0.28493  1.0000
  C   C56       1.0  0.8554600000000006  0.96646  0.87777  1.0000
  C   C57       1.0  0.8832  0.30789  0.36578  1.0000
  C   C58       1.0  0.92356  0.36606  0.39985  1.0000
  C   C59       1.0  0.97985  0.44028  0.35185  1.0000
  C   C60       1.0  0.002800000000000029  0.4519699999999999  0.27138  1.0000
  C   C61       1.0  0.85788  0.92685  0.72919  1.0000
  C   C62       1.0  0.8174600000000002  0.86843  0.7988499999999998  1.0000
  C   C63       1.0  0.8175399999999999  0.88731  0.87178  1.0000
  C   C64       1.0  0.6414800000000002  0.49355000000000004  0.7646399999999998  1.0000
  C   C65       1.0  0.66931  0.09447000000000001  0.3842499999999999  1.0000
  C   C66       1.0  0.59862  0.11067999999999999  0.26175  1.0000
  C   C67       1.0  0.6396299999999998  0.10196000000000001  0.46307  1.0000
  C   C68       1.0  0.75144  0.15723  0.01374  1.0000
  C   C69       1.0  0.50172  0.12552000000000005  0.50609  1.0000
  C   C70       1.0  0.56322  0.10930999999999999  0.34685  1.0000
  C   C71       1.0  0.7545  0.08883  0.50002  1.0000
  C   C72       1.0  0.39529999999999993  0.13778  0.4703  1.0000
  C   C73       1.0  0.42650999999999994  0.12911  0.39132  1.0000
  C   C74       1.0  0.24669000000000005  0.1604  0.5148399999999997  1.0000
  C   C75       1.0  0.7313200000000001  0.47197  0.6919099999999999  1.0000
  C   C76       1.0  0.51186  0.18093  0.21379  1.0000
  C   C77       1.0  0.7011199999999999  0.53284  0.62149  1.0000
  C   C78       1.0  0.5561  0.19303  0.13283  1.0000
  C   C79       1.0  0.6887600000000003  0.13499  0.09804  1.0000
  C   C80       1.0  0.77171  0.06009  0.14554  1.0000
  C   C81       1.0  0.72723  0.04777000000000001  0.22607  1.0000
  C   C82       1.0  0.5164799999999998  0.57408  0.77028  1.0000
  C   C83       1.0  0.4863299999999998  0.6317899999999999  0.70061  1.0000
  C   C84       1.0  0.5776800000000002  0.61208  0.6275899999999999  1.0000
  N   N1        1.0  0.039969999999999936  0.85966  0.28641  1.0000
  N   N2        1.0  0.06623000000000005  0.88778  0.20878  1.0000
  N   N3        1.0  0.06014999999999999  0.92149  0.32152  1.0000
  N   N4        1.0  0.18259000000000006  0.63978  0.21435  1.0000
  N   N5        1.0  0.16007000000000002  0.6122899999999999  0.29204  1.0000
  N   N6        1.0  0.29963999999999996  0.5773900000000001  0.17924999999999994  1.0000
  N   N7        1.0  0.9600300000000002  0.14034  0.7136  1.0000
  N   N8        1.0  0.9337699999999998  0.11221999999999997  0.79122  1.0000
  N   N9        1.0  0.93984  0.07851  0.67848  1.0000
  N   N10       1.0  0.8174099999999999  0.36022  0.78565  1.0000
  N   N11       1.0  0.8399199999999998  0.38771  0.70797  1.0000
  N   N12       1.0  0.70035  0.42260999999999993  0.82075  1.0000
  O   O1        1.0  0.12694999999999992  0.7239500000000002  0.46962999999999994  1.0000
  O   O2        1.0  0.5930699999999997  0.5694800000000002  0.95683  1.0000
  O   O3        1.0  0.20299000000000003  0.6429999999999999  0.98989  1.0000
  O   O4        1.0  0.60057  0.59693  0.07116999999999997  1.0000
  O   O5        1.0  0.02147000000000008  0.6088199999999999  0.4908  1.0000
  O   O6        1.0  0.002689999999999982  0.7021  0.07865  1.0000
  O   O7        1.0  0.31969999999999993  0.77496  0.03303  1.0000
  O   O8        1.0  0.11868000000000001  0.93026  0.54402  1.0000
  O   O9        1.0  0.8354799999999998  0.85707  0.51478  1.0000
  O   O10       1.0  0.26960999999999996  0.9000300000000001  0.43048999999999993  1.0000
  O   O11       1.0  0.12037999999999995  0.88988  0.01081  1.0000
  O   O12       1.0  0.78586  0.80467  0.42169  1.0000
  O   O13       1.0  0.8730499999999998  0.27605  0.53037  1.0000
  O   O14       1.0  0.40692000000000006  0.43052  0.04317999999999999  1.0000
  O   O15       1.0  0.797  0.357  0.010119999999999999  1.0000
  O   O16       1.0  0.39942  0.40308000000000005  0.92883  1.0000
  O   O17       1.0  0.97852  0.39118  0.5092  1.0000
  O   O18       1.0  0.9973000000000002  0.29791000000000006  0.9213499999999998  1.0000
  O   O19       1.0  0.6803000000000001  0.22504  0.9669699999999999  1.0000
  O   O20       1.0  0.8813100000000001  0.06974  0.45598  1.0000
  O   O21       1.0  0.16451  0.14293000000000003  0.48521999999999993  1.0000
  O   O22       1.0  0.73039  0.09997  0.56952  1.0000
  O   O23       1.0  0.8796200000000001  0.11013000000000003  0.98919  1.0000
  O   O24       1.0  0.21413000000000004  0.1953300000000001  0.5783099999999998  1.0000
