data_image0
_chemical_formula_structural       In4H36C88N4O32
_chemical_formula_sum              "In4 H36 C88 N4 O32"
_cell_length_a       12.93973
_cell_length_b       17.81853
_cell_length_c       22.105169999999998
_cell_angle_alpha    90.0
_cell_angle_beta     89.99683
_cell_angle_gamma    90.0

_space_group_name_H-M_alt    "P 1"
_space_group_IT_number       1

loop_
  _space_group_symop_operation_xyz
  'x, y, z'

loop_
  _atom_site_type_symbol
  _atom_site_label
  _atom_site_symmetry_multiplicity
  _atom_site_fract_x
  _atom_site_fract_y
  _atom_site_fract_z
  _atom_site_occupancy
  In  In1       1.0  0.91829  0.9888799999999999  0.82548  1.0000
  In  In2       1.0  0.58189  0.01123  0.32537  1.0000
  In  In3       1.0  0.08171  0.48888  0.67452  1.0000
  In  In4       1.0  0.41812  0.51123  0.17463  1.0000
  H   H1        1.0  0.9726099999999999  0.74048  0.73946  1.0000
  H   H2        1.0  0.7668299999999998  0.55426  0.77121  1.0000
  H   H3        1.0  0.6992599999999999  0.77299  0.84743  1.0000
  H   H4        1.0  0.58473  0.65052  0.70837  1.0000
  H   H5        1.0  0.41345  0.60872  0.66476  1.0000
  H   H6        1.0  0.31013999999999997  0.53332  0.8394999999999999  1.0000
  H   H7        1.0  0.3969  0.5272  0.95828  1.0000
  H   H8        1.0  0.68426  0.59523  0.03974  1.0000
  H   H9        1.0  0.75224  0.64065  0.9390299999999998  1.0000
  H   H10       1.0  0.52755  0.25938  0.23945  1.0000
  H   H11       1.0  0.73313  0.44579  0.27116  1.0000
  H   H12       1.0  0.80088  0.22714  0.34743  1.0000
  H   H13       1.0  0.91527  0.34948  0.20833999999999997  1.0000
  H   H14       1.0  0.08659999999999997  0.39127  0.16475  1.0000
  H   H15       1.0  0.18987999999999997  0.46668  0.33948  1.0000
  H   H16       1.0  0.10307  0.47275  0.45824  1.0000
  H   H17       1.0  0.8158  0.40473  0.53973  1.0000
  H   H18       1.0  0.74768  0.35934  0.43897  1.0000
  H   H19       1.0  0.0274  0.24048  0.76054  1.0000
  H   H20       1.0  0.23317  0.05426  0.72879  1.0000
  H   H21       1.0  0.30075  0.27299  0.65258  1.0000
  H   H22       1.0  0.41528  0.15052  0.79164  1.0000
  H   H23       1.0  0.58655  0.10872  0.83525  1.0000
  H   H24       1.0  0.68987  0.03332  0.6605  1.0000
  H   H25       1.0  0.6031  0.0272  0.54173  1.0000
  H   H26       1.0  0.31574  0.09524  0.46025999999999995  1.0000
  H   H27       1.0  0.24775999999999998  0.14065  0.56098  1.0000
  H   H28       1.0  0.47246  0.75938  0.26054999999999995  1.0000
  H   H29       1.0  0.26688  0.94579  0.22885  1.0000
  H   H30       1.0  0.19913  0.72714  0.15257  1.0000
  H   H31       1.0  0.08473  0.84948  0.29166  1.0000
  H   H32       1.0  0.9134  0.89127  0.33526  1.0000
  H   H33       1.0  0.81012  0.96668  0.16052  1.0000
  H   H34       1.0  0.89693  0.9727500000000001  0.04176  1.0000
  H   H35       1.0  0.1842  0.9047399999999999  0.96028  1.0000
  H   H36       1.0  0.25232  0.85934  0.06104  1.0000
  C   C1        1.0  0.83917  0.76415  0.79471  1.0000
  C   C2        1.0  0.90263  0.71762  0.7596599999999999  1.0000
  C   C3        1.0  0.8774099999999998  0.64179  0.7523399999999999  1.0000
  C   C4        1.0  0.78577  0.61335  0.77687  1.0000
  C   C5        1.0  0.72187  0.66103  0.81026  1.0000
  C   C6        1.0  0.7483599999999999  0.73604  0.8207299999999998  1.0000
  C   C7        1.0  0.54139  0.6132  0.79855  1.0000
  C   C8        1.0  0.52558  0.62472  0.73645  1.0000
  C   C9        1.0  0.43082999999999994  0.60186  0.71262  1.0000
  C   C10       1.0  0.35451  0.56922  0.7497199999999999  1.0000
  C   C11       1.0  0.37123  0.55846  0.81233  1.0000
  C   C12       1.0  0.46498  0.58063  0.8368099999999999  1.0000
  C   C13       1.0  0.50843  0.57884  0.8975299999999999  1.0000
  C   C14       1.0  0.47284  0.55275  0.9528599999999999  1.0000
  C   C15       1.0  0.53797  0.55968  0.00394  1.0000
  C   C16       1.0  0.63769  0.59113  0.9989  1.0000
  C   C17       1.0  0.67525  0.61689  0.9435499999999999  1.0000
  C   C18       1.0  0.60915  0.61102  0.8934899999999999  1.0000
  C   C19       1.0  0.86877  0.84425  0.80491  1.0000
  C   C20       1.0  0.94954  0.58859  0.72171  1.0000
  C   C21       1.0  0.25466  0.54369  0.72286  1.0000
  C   C22       1.0  0.49856  0.53568  0.06443  1.0000
  C   C23       1.0  0.66099  0.23587999999999998  0.29471  1.0000
  C   C24       1.0  0.59747  0.28234  0.25962  1.0000
  C   C25       1.0  0.62255  0.35817  0.25216  1.0000
  C   C26       1.0  0.71414  0.3867  0.27677  1.0000
  C   C27       1.0  0.77809  0.33908  0.31019  1.0000
  C   C28       1.0  0.75172  0.26406  0.32074  1.0000
  C   C29       1.0  0.9586  0.38684  0.2985  1.0000
  C   C30       1.0  0.97442  0.37528  0.23642  1.0000
  C   C31       1.0  0.06918  0.39813  0.21261  1.0000
  C   C32       1.0  0.14547  0.43077  0.24971  1.0000
  C   C33       1.0  0.12878  0.44154  0.31232  1.0000
  C   C34       1.0  0.03502  0.41937  0.33676  1.0000
  C   C35       1.0  0.99158  0.42112  0.39746  1.0000
  C   C36       1.0  0.02716  0.44717  0.45276  1.0000
  C   C37       1.0  0.96197  0.44019  0.5038  1.0000
  C   C38       1.0  0.86227  0.40878  0.49883  1.0000
  C   C39       1.0  0.82468  0.38306  0.44349  1.0000
  C   C40       1.0  0.8908099999999999  0.38901  0.39342999999999995  1.0000
  C   C41       1.0  0.63151  0.15579  0.30494  1.0000
  C   C42       1.0  0.55027  0.41125  0.22138999999999995  1.0000
  C   C43       1.0  0.24527999999999997  0.45631  0.22286  1.0000
  C   C44       1.0  0.00151  0.46446000000000004  0.56414  1.0000
  C   C45       1.0  0.16083  0.26415  0.70529  1.0000
  C   C46       1.0  0.09736999999999997  0.21762  0.74035  1.0000
  C   C47       1.0  0.12259  0.14179  0.74766  1.0000
  C   C48       1.0  0.21423999999999999  0.11335  0.72314  1.0000
  C   C49       1.0  0.27814  0.16103  0.6897499999999999  1.0000
  C   C50       1.0  0.25164  0.23604  0.67927  1.0000
  C   C51       1.0  0.45860999999999996  0.11321000000000002  0.70146  1.0000
  C   C52       1.0  0.47442  0.12471999999999998  0.76355  1.0000
  C   C53       1.0  0.56917  0.10186  0.7873799999999999  1.0000
  C   C54       1.0  0.64549  0.06922  0.75029  1.0000
  C   C55       1.0  0.62878  0.05846  0.68767  1.0000
  C   C56       1.0  0.53502  0.08063  0.6631999999999999  1.0000
  C   C57       1.0  0.49158  0.07884  0.60248  1.0000
  C   C58       1.0  0.52716  0.05275  0.54715  1.0000
  C   C59       1.0  0.4620199999999999  0.05969  0.49607  1.0000
  C   C60       1.0  0.36231  0.09113  0.50111  1.0000
  C   C61       1.0  0.32475  0.11689  0.55645  1.0000
  C   C62       1.0  0.39086  0.11103  0.60652  1.0000
  C   C63       1.0  0.13123  0.34425  0.69509  1.0000
  C   C64       1.0  0.05047  0.08859  0.77829  1.0000
  C   C65       1.0  0.74535  0.04369  0.77714  1.0000
  C   C66       1.0  0.50145  0.03568  0.43557999999999997  1.0000
  C   C67       1.0  0.3390099999999999  0.73588  0.20529  1.0000
  C   C68       1.0  0.40254  0.78234  0.24038  1.0000
  C   C69       1.0  0.37745  0.85817  0.24783999999999998  1.0000
  C   C70       1.0  0.28586  0.8867  0.22323  1.0000
  C   C71       1.0  0.22191  0.83908  0.18981  1.0000
  C   C72       1.0  0.24828999999999998  0.76406  0.17926  1.0000
  C   C73       1.0  0.0414  0.88684  0.2015  1.0000
  C   C74       1.0  0.025579999999999995  0.87528  0.26359  1.0000
  C   C75       1.0  0.9308199999999998  0.89813  0.2874  1.0000
  C   C76       1.0  0.85453  0.9307700000000001  0.25029  1.0000
  C   C77       1.0  0.87122  0.9415400000000002  0.18767999999999999  1.0000
  C   C78       1.0  0.96498  0.91937  0.16324  1.0000
  C   C79       1.0  0.00843  0.9211100000000001  0.10254  1.0000
  C   C80       1.0  0.9728399999999998  0.94717  0.04723999999999999  1.0000
  C   C81       1.0  0.03803  0.9401899999999999  0.9961999999999998  1.0000
  C   C82       1.0  0.13774  0.90878  0.00117  1.0000
  C   C83       1.0  0.17532  0.88306  0.05650999999999999  1.0000
  C   C84       1.0  0.10919  0.88901  0.10656999999999998  1.0000
  C   C85       1.0  0.36849  0.65579  0.19506  1.0000
  C   C86       1.0  0.44972999999999996  0.91125  0.27862  1.0000
  C   C87       1.0  0.7547199999999997  0.9563100000000001  0.27714  1.0000
  C   C88       1.0  0.9985  0.96446  0.93586  1.0000
  N   N1        1.0  0.6273  0.6314  0.83365  1.0000
  N   N2        1.0  0.87265  0.36871  0.33359  1.0000
  N   N3        1.0  0.37271  0.1314  0.66635  1.0000
  N   N4        1.0  0.12735  0.86871  0.16641  1.0000
  O   O1        1.0  0.9441999999999999  0.87172  0.7758499999999999  1.0000
  O   O2        1.0  0.8172699999999999  0.8832  0.8432399999999999  1.0000
  O   O3        1.0  0.01621  0.61317  0.68429  1.0000
  O   O4        1.0  0.94311  0.51919  0.73555  1.0000
  O   O5        1.0  0.24015999999999996  0.54944  0.66606  1.0000
  O   O6        1.0  0.1867  0.51483  0.75781  1.0000
  O   O7        1.0  0.4164399999999999  0.49658  0.06776999999999998  1.0000
  O   O8        1.0  0.54684  0.55737  0.11187  1.0000
  O   O9        1.0  0.55629  0.12823  0.27575  1.0000
  O   O10       1.0  0.6828899999999999  0.11689  0.34335  1.0000
  O   O11       1.0  0.4843899999999999  0.38686  0.18339999999999998  1.0000
  O   O12       1.0  0.5561  0.48057000000000005  0.23572  1.0000
  O   O13       1.0  0.25979  0.45056  0.16607  1.0000
  O   O14       1.0  0.3132499999999999  0.48513999999999996  0.25782  1.0000
  O   O15       1.0  0.08361  0.50355  0.56708  1.0000
  O   O16       1.0  0.95348  0.44287  0.61175  1.0000
  O   O17       1.0  0.0558  0.37172  0.72416  1.0000
  O   O18       1.0  0.18273  0.3832  0.65677  1.0000
  O   O19       1.0  0.9838  0.11317  0.81571  1.0000
  O   O20       1.0  0.05689  0.01919  0.76444  1.0000
  O   O21       1.0  0.7598399999999997  0.04944  0.83394  1.0000
  O   O22       1.0  0.8132999999999998  0.014830000000000001  0.7421999999999999  1.0000
  O   O23       1.0  0.58356  0.99658  0.4322499999999999  1.0000
  O   O24       1.0  0.45317  0.05737  0.38813  1.0000
  O   O25       1.0  0.44370999999999994  0.62823  0.22426  1.0000
  O   O26       1.0  0.31711  0.61689  0.15665  1.0000
  O   O27       1.0  0.51561  0.88686  0.31660999999999995  1.0000
  O   O28       1.0  0.4439  0.9805700000000002  0.26429  1.0000
  O   O29       1.0  0.74021  0.95056  0.33392999999999995  1.0000
  O   O30       1.0  0.68675  0.98514  0.24218  1.0000
  O   O31       1.0  0.9163899999999999  0.0035499999999999998  0.9329199999999999  1.0000
  O   O32       1.0  0.046519999999999985  0.94287  0.8882499999999999  1.0000
