data_image0
_chemical_formula_structural       Co12H24C84N80
_chemical_formula_sum              "Co12 H24 C84 N80"
_cell_length_a       13.63998
_cell_length_b       15.16392
_cell_length_c       20.72979
_cell_angle_alpha    89.97234
_cell_angle_beta     102.30751
_cell_angle_gamma    90.03045

_space_group_name_H-M_alt    "P 1"
_space_group_IT_number       1

loop_
  _space_group_symop_operation_xyz
  'x, y, z'

loop_
  _atom_site_type_symbol
  _atom_site_label
  _atom_site_symmetry_multiplicity
  _atom_site_fract_x
  _atom_site_fract_y
  _atom_site_fract_z
  _atom_site_occupancy
  Co  Co1       1.0  0.24454999999999996  0.25005  0.46247000000000005  1.0000
  Co  Co2       1.0  0.8218499999999999  0.24774  0.60262  1.0000
  Co  Co3       1.0  0.29761  0.36249  0.79774  1.0000
  Co  Co4       1.0  0.25547  0.74934  0.03755  1.0000
  Co  Co5       1.0  0.6781799999999998  0.7482000000000002  0.8973400000000001  1.0000
  Co  Co6       1.0  0.20249999999999996  0.8620900000000002  0.70232  1.0000
  Co  Co7       1.0  0.75547  0.7499300000000002  0.53754  1.0000
  Co  Co8       1.0  0.17816999999999994  0.7522700000000002  0.39741  1.0000
  Co  Co9       1.0  0.7023999999999999  0.63753  0.20223  1.0000
  Co  Co10      1.0  0.74454  0.25068  0.96246  1.0000
  Co  Co11      1.0  0.32181  0.2518  0.10264999999999999  1.0000
  Co  Co12      1.0  0.79748  0.1379  0.29769  1.0000
  H   H1        1.0  0.45949  0.3449600000000001  0.70044  1.0000
  H   H2        1.0  0.43942999999999993  0.31659  0.57809  1.0000
  H   H3        1.0  0.99864  0.23589000000000004  0.39828  1.0000
  H   H4        1.0  0.84898  0.2358  0.44891  1.0000
  H   H5        1.0  0.9003699999999998  0.30666  0.76234  1.0000
  H   H6        1.0  0.07246  0.3377  0.8327500000000001  1.0000
  H   H7        1.0  0.04054000000000004  0.8447800000000002  0.7996500000000001  1.0000
  H   H8        1.0  0.06063999999999999  0.8165300000000002  0.92203  1.0000
  H   H9        1.0  0.50143  0.7358100000000002  0.1018  1.0000
  H   H10       1.0  0.65108  0.7360800000000002  0.05120000000000001  1.0000
  H   H11       1.0  0.5996399999999998  0.8064800000000002  0.73772  1.0000
  H   H12       1.0  0.4276199999999999  0.8375600000000002  0.6673  1.0000
  H   H13       1.0  0.54051  0.6550600000000002  0.29956  1.0000
  H   H14       1.0  0.56057  0.68342  0.42191000000000006  1.0000
  H   H15       1.0  0.001350000000000023  0.7640400000000003  0.60174  1.0000
  H   H16       1.0  0.15102  0.76413  0.55111  1.0000
  H   H17       1.0  0.09963999999999999  0.6933700000000003  0.23767999999999997  1.0000
  H   H18       1.0  0.9275499999999998  0.66233  0.16727  1.0000
  H   H19       1.0  0.95945  0.15522  0.20036  1.0000
  H   H20       1.0  0.93936  0.18348000000000006  0.07799  1.0000
  H   H21       1.0  0.49859000000000003  0.26421  0.8982100000000001  1.0000
  H   H22       1.0  0.34892  0.26394  0.9488  1.0000
  H   H23       1.0  0.40033  0.19349000000000005  0.26226  1.0000
  H   H24       1.0  0.57236  0.16244  0.3327  1.0000
  C   C1        1.0  0.34524  0.16444  0.8426900000000002  1.0000
  C   C2        1.0  0.20534  0.29899  0.5913  1.0000
  C   C3        1.0  0.10777  0.28058  0.55156  1.0000
  C   C4        1.0  0.02357000000000001  0.2799  0.58021  1.0000
  C   C5        1.0  0.03481999999999994  0.29659000000000013  0.64949  1.0000
  C   C6        1.0  0.13025  0.3144200000000001  0.68859  1.0000
  C   C7        1.0  0.21663  0.31596  0.65907  1.0000
  C   C8        1.0  0.38594  0.33306  0.66892  1.0000
  C   C9        1.0  0.37464  0.3165400000000001  0.60097  1.0000
  C   C10       1.0  0.0077299999999999956  0.24866000000000005  0.45075  1.0000
  C   C11       1.0  0.92279  0.24856  0.47943  1.0000
  C   C12       1.0  0.96621  0.3091600000000001  0.74056  1.0000
  C   C13       1.0  0.061789999999999984  0.32704000000000005  0.77977  1.0000
  C   C14       1.0  0.26974  0.05524  0.50867  1.0000
  C   C15       1.0  0.2397499999999999  0.43413  0.927  1.0000
  C   C16       1.0  0.15936  0.24163000000000007  0.3098  1.0000
  C   C17       1.0  0.68632  0.27784  0.70565  1.0000
  C   C18       1.0  0.46634  0.26423000000000013  0.44408  1.0000
  C   C19       1.0  0.6352299999999999  0.25544000000000006  0.48346  1.0000
  C   C20       1.0  0.8770499999999998  0.05296  0.63826  1.0000
  C   C21       1.0  0.51868  0.43509  0.83432  1.0000
  C   C22       1.0  0.15447  0.66412  0.65708  1.0000
  C   C23       1.0  0.29470999999999986  0.7990500000000001  0.9088099999999999  1.0000
  C   C24       1.0  0.39225  0.78049  0.94852  1.0000
  C   C25       1.0  0.47642  0.7796000000000002  0.91983  1.0000
  C   C26       1.0  0.46515  0.7962200000000001  0.85054  1.0000
  C   C27       1.0  0.36975  0.8141600000000002  0.81145  1.0000
  C   C28       1.0  0.28341  0.8158900000000002  0.84101  1.0000
  C   C29       1.0  0.11412000000000001  0.8330000000000002  0.83118  1.0000
  C   C30       1.0  0.12544000000000005  0.81657  0.89915  1.0000
  C   C31       1.0  0.49232  0.74854  0.04931  1.0000
  C   C32       1.0  0.57725  0.74854  0.02063  1.0000
  C   C33       1.0  0.53379  0.8089  0.75948  1.0000
  C   C34       1.0  0.43822999999999995  0.82682  0.72027  1.0000
  C   C35       1.0  0.23010999999999998  0.5545200000000002  0.99152  1.0000
  C   C36       1.0  0.26016  0.9344  0.57311  1.0000
  C   C37       1.0  0.34084  0.7409600000000002  0.19038  1.0000
  C   C38       1.0  0.81339  0.7786  0.79415  1.0000
  C   C39       1.0  0.0337  0.76307  0.05602  1.0000
  C   C40       1.0  0.86486  0.75439  0.01653  1.0000
  C   C41       1.0  0.62308  0.5532800000000002  0.8616900000000001  1.0000
  C   C42       1.0  0.9814000000000002  0.9346100000000003  0.66559  1.0000
  C   C43       1.0  0.65482  0.83556  0.15731  1.0000
  C   C44       1.0  0.79465  0.70102  0.4087  1.0000
  C   C45       1.0  0.89223  0.71939  0.44844999999999996  1.0000
  C   C46       1.0  0.9764299999999998  0.7200800000000003  0.41979999999999995  1.0000
  C   C47       1.0  0.96518  0.7034200000000003  0.35051  1.0000
  C   C48       1.0  0.86974  0.68558  0.31141  1.0000
  C   C49       1.0  0.78337  0.68405  0.34092  1.0000
  C   C50       1.0  0.6140599999999999  0.66695  0.33108  1.0000
  C   C51       1.0  0.62535  0.6834700000000002  0.39903  1.0000
  C   C52       1.0  0.99227  0.75128  0.54927  1.0000
  C   C53       1.0  0.07721000000000003  0.75138  0.52059  1.0000
  C   C54       1.0  0.033800000000000004  0.6908600000000003  0.25945  1.0000
  C   C55       1.0  0.9382199999999999  0.6729700000000002  0.22024  1.0000
  C   C56       1.0  0.73028  0.94475  0.49135999999999996  1.0000
  C   C57       1.0  0.76027  0.56587  0.07301  1.0000
  C   C58       1.0  0.84061  0.7584100000000003  0.69022  1.0000
  C   C59       1.0  0.31365  0.7221200000000002  0.29439  1.0000
  C   C60       1.0  0.53369  0.73571  0.55595  1.0000
  C   C61       1.0  0.36480999999999997  0.7445700000000002  0.51659  1.0000
  C   C62       1.0  0.12293  0.9470300000000003  0.36175  1.0000
  C   C63       1.0  0.48135  0.5649000000000002  0.16568  1.0000
  C   C64       1.0  0.84556  0.3358500000000001  0.34293  1.0000
  C   C65       1.0  0.7052899999999999  0.20095000000000005  0.09119  1.0000
  C   C66       1.0  0.60774  0.2195  0.05149  1.0000
  C   C67       1.0  0.52358  0.2204  0.08017  1.0000
  C   C68       1.0  0.53485  0.20379  0.14947  1.0000
  C   C69       1.0  0.6302399999999999  0.18585  0.18855  1.0000
  C   C70       1.0  0.71658  0.18413  0.159  1.0000
  C   C71       1.0  0.8858799999999999  0.167  0.16883  1.0000
  C   C72       1.0  0.87456  0.18343000000000007  0.10086000000000002  1.0000
  C   C73       1.0  0.50768  0.25146  0.9506899999999999  1.0000
  C   C74       1.0  0.42274999999999996  0.25147  0.9793599999999999  1.0000
  C   C75       1.0  0.46619999999999995  0.19108  0.24052  1.0000
  C   C76       1.0  0.56175  0.17317  0.27973  1.0000
  C   C77       1.0  0.7698999999999998  0.4455000000000001  0.00848  1.0000
  C   C78       1.0  0.73984  0.0656  0.42691000000000007  1.0000
  C   C79       1.0  0.65912  0.25901  0.80964  1.0000
  C   C80       1.0  0.18657  0.22146  0.20587  1.0000
  C   C81       1.0  0.96632  0.23692000000000005  0.9439900000000001  1.0000
  C   C82       1.0  0.13516  0.24558  0.98348  1.0000
  C   C83       1.0  0.37694  0.4467300000000001  0.13831  1.0000
  C   C84       1.0  0.018559999999999997  0.06537  0.33441  1.0000
  N   N1        1.0  0.28486  0.2991800000000001  0.56148  1.0000
  N   N2        1.0  0.10056999999999998  0.26346  0.48644999999999994  1.0000
  N   N3        1.0  0.9299999999999999  0.26286000000000004  0.5442  1.0000
  N   N4        1.0  0.95156  0.29363  0.6754  1.0000
  N   N5        1.0  0.14382999999999996  0.33007  0.75402  1.0000
  N   N6        1.0  0.30725  0.3331900000000001  0.69815  1.0000
  N   N7        1.0  0.2568  0.12846  0.48904000000000003  1.0000
  N   N8        1.0  0.28897  0.974  0.52475  1.0000
  N   N9        1.0  0.26207  0.39147  0.8848  1.0000
  N   N10       1.0  0.17985  0.25802  0.36673  1.0000
  N   N11       1.0  0.12808  0.22281000000000004  0.2477  1.0000
  N   N12       1.0  0.73233  0.28217  0.66348  1.0000
  N   N13       1.0  0.38115999999999994  0.27335  0.44636  1.0000
  N   N14       1.0  0.55695  0.25371000000000005  0.43518  1.0000
  N   N15       1.0  0.71083  0.25562  0.52359  1.0000
  N   N16       1.0  0.85229  0.12606  0.62292  1.0000
  N   N17       1.0  0.89332  0.9713600000000002  0.65428  1.0000
  N   N18       1.0  0.44345999999999985  0.39426000000000005  0.8233799999999999  1.0000
  N   N19       1.0  0.32461999999999996  0.23677000000000006  0.82276  1.0000
  N   N20       1.0  0.27035  0.47065  0.77201  1.0000
  N   N21       1.0  0.21518999999999996  0.79916  0.9386599999999999  1.0000
  N   N22       1.0  0.39945999999999987  0.7632900000000002  0.013629999999999998  1.0000
  N   N23       1.0  0.57  0.7626700000000002  0.95583  1.0000
  N   N24       1.0  0.54843  0.7934100000000002  0.8246600000000001  1.0000
  N   N25       1.0  0.35618  0.8298800000000002  0.74602  1.0000
  N   N26       1.0  0.19276999999999997  0.8329800000000003  0.8018899999999999  1.0000
  N   N27       1.0  0.24311000000000002  0.6278600000000002  0.01084  1.0000
  N   N28       1.0  0.21109  0.4731900000000001  0.97562  1.0000
  N   N29       1.0  0.23793000000000003  0.8911400000000003  0.61508  1.0000
  N   N30       1.0  0.32014  0.75594  0.13325  1.0000
  N   N31       1.0  0.3724  0.7235600000000002  0.25272  1.0000
  N   N32       1.0  0.76766  0.7829300000000002  0.83646  1.0000
  N   N33       1.0  0.11883999999999999  0.77279  0.05379  1.0000
  N   N34       1.0  0.9431300000000001  0.75171  0.0648  1.0000
  N   N35       1.0  0.7893  0.7553  0.9763799999999999  1.0000
  N   N36       1.0  0.6476599999999999  0.6264700000000002  0.87683  1.0000
  N   N37       1.0  0.60698  0.4715400000000001  0.84598  1.0000
  N   N38       1.0  0.05645  0.89355  0.67631  1.0000
  N   N39       1.0  0.17543999999999996  0.73631  0.67722  1.0000
  N   N40       1.0  0.22975  0.97003  0.72816  1.0000
  N   N41       1.0  0.7151299999999999  0.70083  0.4385200000000001  1.0000
  N   N42       1.0  0.89943  0.7365  0.51356  1.0000
  N   N43       1.0  0.06999999999999999  0.73711  0.45581999999999995  1.0000
  N   N44       1.0  0.04843999999999998  0.7063900000000002  0.32461  1.0000
  N   N45       1.0  0.85616  0.6699400000000001  0.24598  1.0000
  N   N46       1.0  0.69274  0.6668300000000003  0.30184  1.0000
  N   N47       1.0  0.74319  0.8715200000000002  0.51097  1.0000
  N   N48       1.0  0.71109  0.026  0.47530000000000006  1.0000
  N   N49       1.0  0.73794  0.6085300000000001  0.1152  1.0000
  N   N50       1.0  0.82015  0.742  0.6333  1.0000
  N   N51       1.0  0.8718700000000001  0.7772500000000002  0.75232  1.0000
  N   N52       1.0  0.26766999999999996  0.7178  0.33658  1.0000
  N   N53       1.0  0.61887  0.72657  0.55366  1.0000
  N   N54       1.0  0.4431  0.74624  0.56486  1.0000
  N   N55       1.0  0.28921  0.7444400000000002  0.47646000000000005  1.0000
  N   N56       1.0  0.14771  0.87394  0.3771  1.0000
  N   N57       1.0  0.10664  0.02862  0.34572  1.0000
  N   N58       1.0  0.55657  0.6057400000000002  0.17659  1.0000
  N   N59       1.0  0.6753999999999998  0.76322  0.17726  1.0000
  N   N60       1.0  0.72965  0.5294000000000002  0.22797  1.0000
  N   N61       1.0  0.7848099999999999  0.20084  0.06135  1.0000
  N   N62       1.0  0.60053  0.2367  0.9863799999999999  1.0000
  N   N63       1.0  0.43  0.23734000000000005  0.04417  1.0000
  N   N64       1.0  0.45156  0.20658  0.17534  1.0000
  N   N65       1.0  0.6438  0.17012000000000005  0.25398  1.0000
  N   N66       1.0  0.8072199999999998  0.16703000000000007  0.19811000000000004  1.0000
  N   N67       1.0  0.7569  0.37216  0.98916  1.0000
  N   N68       1.0  0.78892  0.5268200000000001  0.02438  1.0000
  N   N69       1.0  0.76204  0.10886000000000003  0.38493  1.0000
  N   N70       1.0  0.67985  0.24403000000000005  0.8667700000000002  1.0000
  N   N71       1.0  0.62755  0.2763900000000001  0.74731  1.0000
  N   N72       1.0  0.23232999999999998  0.21713000000000005  0.16357  1.0000
  N   N73       1.0  0.88117  0.22724  0.94623  1.0000
  N   N74       1.0  0.056889999999999975  0.24822000000000005  0.9352  1.0000
  N   N75       1.0  0.2107  0.24469000000000005  0.02363  1.0000
  N   N76       1.0  0.35234  0.3735400000000001  0.12315999999999999  1.0000
  N   N77       1.0  0.3930599999999999  0.5284500000000002  0.15403  1.0000
  N   N78       1.0  0.94353  0.10644000000000003  0.3237  1.0000
  N   N79       1.0  0.8245599999999997  0.26367  0.32278  1.0000
  N   N80       1.0  0.77027  0.02997  0.27185  1.0000
