data_image0
_chemical_formula_structural       Mg6H48C84O24
_chemical_formula_sum              "Mg6 H48 C84 O24"
_cell_length_a       12.30348
_cell_length_b       11.18591
_cell_length_c       27.086330000000004
_cell_angle_alpha    90.11296
_cell_angle_beta     89.91806000000001
_cell_angle_gamma    96.88925999999998

_symmetry_space_group_name_H-M    'P 1'
_symmetry_Int_Tables_number       1

loop_
  _symmetry_equiv_pos_as_xyz
  'x,y,z'

loop_
  _atom_site_type_symbol
  _atom_site_label
  _atom_site_symmetry_multiplicity
  _atom_site_fract_x
  _atom_site_fract_y
  _atom_site_fract_z
  _atom_site_occupancy
  Mg  Mg1       1.0  0.89751  0.24832000000000007  0.47187999999999997  1.0000
  Mg  Mg2       1.0  0.60223  0.75131  0.97167  1.0000
  Mg  Mg3       1.0  0.10249  0.75168  0.52812  1.0000
  Mg  Mg4       1.0  0.39777  0.24869  0.028329999999999998  1.0000
  Mg  Mg5       1.0  0.0  0.0  0.5  1.0000
  Mg  Mg6       1.0  0.5  0.0  0.0  1.0000
  H   H1        1.0  0.18108  0.50963  0.46942  1.0000
  H   H2        1.0  0.36197  0.62192  0.4791299999999999  1.0000
  H   H3        1.0  0.49465  0.28892000000000007  0.51061  1.0000
  H   H4        1.0  0.31018  0.17839  0.50085  1.0000
  H   H5        1.0  0.7074400000000001  0.29789  0.6112799999999998  1.0000
  H   H6        1.0  0.64531  0.24085  0.69634  1.0000
  H   H7        1.0  0.79144  0.91036  0.68226  1.0000
  H   H8        1.0  0.8484000000000002  0.96619  0.59666  1.0000
  H   H9        1.0  0.6843400000000001  0.21909000000000003  0.7741499999999998  1.0000
  H   H10       1.0  0.63546  0.15758  0.8604099999999999  1.0000
  H   H11       1.0  0.62828  0.7863800000000001  0.8193  1.0000
  H   H12       1.0  0.66503  0.8454700000000003  0.7319699999999998  1.0000
  H   H13       1.0  0.31982  0.49643  0.96957  1.0000
  H   H14       1.0  0.14009999999999997  0.38079  0.9792  1.0000
  H   H15       1.0  0.0017700000000000122  0.7107300000000001  0.01071  1.0000
  H   H16       1.0  0.185  0.82461  0.00082  1.0000
  H   H17       1.0  0.79014  0.6994  0.11158999999999998  1.0000
  H   H18       1.0  0.85381  0.75752  0.19636  1.0000
  H   H19       1.0  0.7087300000000001  0.0882  0.18292999999999995  1.0000
  H   H20       1.0  0.64977  0.03178  0.09770999999999998  1.0000
  H   H21       1.0  0.8145  0.77923  0.27448  1.0000
  H   H22       1.0  0.8660600000000002  0.8410700000000001  0.36047999999999997  1.0000
  H   H23       1.0  0.87584  0.21205  0.31962  1.0000
  H   H24       1.0  0.83652  0.15289  0.23243999999999998  1.0000
  H   H25       1.0  0.81892  0.49036  0.53058  1.0000
  H   H26       1.0  0.63804  0.37807  0.52087  1.0000
  H   H27       1.0  0.50535  0.71108  0.4893899999999999  1.0000
  H   H28       1.0  0.68983  0.82161  0.4991499999999999  1.0000
  H   H29       1.0  0.29256  0.70211  0.38871999999999995  1.0000
  H   H30       1.0  0.3547  0.7591500000000001  0.30366  1.0000
  H   H31       1.0  0.20856  0.08964  0.31775  1.0000
  H   H32       1.0  0.1516  0.03381  0.40334  1.0000
  H   H33       1.0  0.31566  0.78091  0.22585  1.0000
  H   H34       1.0  0.36455  0.8424200000000001  0.13959  1.0000
  H   H35       1.0  0.37173  0.21361000000000002  0.1807  1.0000
  H   H36       1.0  0.33498000000000006  0.15452000000000002  0.26803  1.0000
  H   H37       1.0  0.6801800000000001  0.50357  0.03043  1.0000
  H   H38       1.0  0.8599000000000002  0.6192  0.0208  1.0000
  H   H39       1.0  0.99823  0.28926  0.98929  1.0000
  H   H40       1.0  0.815  0.17539  0.9991799999999998  1.0000
  H   H41       1.0  0.20987000000000003  0.3006  0.8884099999999999  1.0000
  H   H42       1.0  0.14619  0.24247  0.8036399999999998  1.0000
  H   H43       1.0  0.29128  0.9118  0.81707  1.0000
  H   H44       1.0  0.35024  0.96822  0.90229  1.0000
  H   H45       1.0  0.1855100000000001  0.22077000000000002  0.7255199999999998  1.0000
  H   H46       1.0  0.13394  0.15893  0.63952  1.0000
  H   H47       1.0  0.12415000000000001  0.78795  0.6803799999999999  1.0000
  H   H48       1.0  0.16349  0.8471000000000001  0.76756  1.0000
  C   C1        1.0  0.12041  0.27244  0.48078  1.0000
  C   C2        1.0  0.23301000000000002  0.33691  0.4852299999999999  1.0000
  C   C3        1.0  0.25014  0.46219  0.47893999999999987  1.0000
  C   C4        1.0  0.35384000000000004  0.52507  0.4844299999999999  1.0000
  C   C5        1.0  0.44498  0.46575000000000005  0.49661  1.0000
  C   C6        1.0  0.42685000000000006  0.33915  0.5019  1.0000
  C   C7        1.0  0.32298  0.2757200000000001  0.49635  1.0000
  C   C8        1.0  0.8207600000000002  0.17195  0.54949  1.0000
  C   C9        1.0  0.78169  0.1356  0.59909  1.0000
  C   C10       1.0  0.72422  0.21293000000000004  0.6273099999999998  1.0000
  C   C11       1.0  0.6904900000000002  0.18079  0.6749499999999998  1.0000
  C   C12       1.0  0.7134100000000001  0.07096  0.69566  1.0000
  C   C13       1.0  0.77052  0.9940800000000002  0.6666299999999998  1.0000
  C   C14       1.0  0.80418  0.02543  0.61891  1.0000
  C   C15       1.0  0.6805100000000002  0.03682  0.7466899999999999  1.0000
  C   C16       1.0  0.66944  0.12398000000000002  0.7834599999999999  1.0000
  C   C17       1.0  0.64321  0.09024  0.83199  1.0000
  C   C18       1.0  0.63035  0.9682300000000001  0.84523  1.0000
  C   C19       1.0  0.63939  0.88072  0.80873  1.0000
  C   C20       1.0  0.6619400000000002  0.91445  0.7601  1.0000
  C   C21       1.0  0.60988  0.9295700000000001  0.89746  1.0000
  C   C22       1.0  0.37673  0.7331700000000001  0.98078  1.0000
  C   C23       1.0  0.26458  0.6676700000000001  0.98517  1.0000
  C   C24       1.0  0.24960000000000002  0.54228  0.97894  1.0000
  C   C25       1.0  0.14678  0.47761  0.9844599999999998  1.0000
  C   C26       1.0  0.05454  0.53519  0.99662  1.0000
  C   C27       1.0  0.0705  0.66188  0.00194  1.0000
  C   C28       1.0  0.17351  0.7272  0.99631  1.0000
  C   C29       1.0  0.67735  0.8252800000000002  0.04981  1.0000
  C   C30       1.0  0.716  0.86187  0.09958  1.0000
  C   C31       1.0  0.7734  0.7845100000000002  0.12768  1.0000
  C   C32       1.0  0.80783  0.8169500000000001  0.17522999999999997  1.0000
  C   C33       1.0  0.7857  0.92703  0.19614  1.0000
  C   C34       1.0  0.7284  0.0037699999999999995  0.16734999999999997  1.0000
  C   C35       1.0  0.69393  0.97222  0.11970999999999997  1.0000
  C   C36       1.0  0.81991  0.9614500000000001  0.24700999999999998  1.0000
  C   C37       1.0  0.8308800000000002  0.87437  0.28367  1.0000
  C   C38       1.0  0.8582300000000002  0.9081700000000001  0.3321  1.0000
  C   C39       1.0  0.872  0.03027  0.34534  1.0000
  C   C40       1.0  0.8635  0.11771  0.30895  1.0000
  C   C41       1.0  0.83985  0.08389  0.26041  1.0000
  C   C42       1.0  0.89216  0.06949  0.39755  1.0000
  C   C43       1.0  0.8796  0.72756  0.51922  1.0000
  C   C44       1.0  0.76699  0.66309  0.51477  1.0000
  C   C45       1.0  0.7498700000000001  0.5378  0.52106  1.0000
  C   C46       1.0  0.64617  0.47493000000000013  0.51557  1.0000
  C   C47       1.0  0.55503  0.53425  0.50339  1.0000
  C   C48       1.0  0.57316  0.66085  0.4981  1.0000
  C   C49       1.0  0.67702  0.72428  0.50365  1.0000
  C   C50       1.0  0.17924000000000004  0.8280500000000001  0.45051  1.0000
  C   C51       1.0  0.21832000000000001  0.86439  0.4009199999999999  1.0000
  C   C52       1.0  0.2757899999999999  0.78707  0.3727  1.0000
  C   C53       1.0  0.3095200000000001  0.81921  0.32504999999999995  1.0000
  C   C54       1.0  0.2866  0.92904  0.30434  1.0000
  C   C55       1.0  0.22948  0.00592  0.33336999999999994  1.0000
  C   C56       1.0  0.19583  0.97456  0.3810899999999999  1.0000
  C   C57       1.0  0.3195  0.96318  0.25331  1.0000
  C   C58       1.0  0.33057000000000003  0.87602  0.21653999999999995  1.0000
  C   C59       1.0  0.35679  0.90976  0.16800999999999996  1.0000
  C   C60       1.0  0.36965  0.03176  0.15476999999999996  1.0000
  C   C61       1.0  0.36061  0.11928000000000002  0.19127  1.0000
  C   C62       1.0  0.3380600000000001  0.08554  0.2399  1.0000
  C   C63       1.0  0.39012  0.07043  0.10253999999999999  1.0000
  C   C64       1.0  0.6232700000000001  0.26683  0.019219999999999998  1.0000
  C   C65       1.0  0.73542  0.33233  0.01483  1.0000
  C   C66       1.0  0.7504000000000001  0.45772000000000007  0.02106  1.0000
  C   C67       1.0  0.8532200000000002  0.5223900000000001  0.015539999999999997  1.0000
  C   C68       1.0  0.94547  0.46481  0.0033799999999999993  1.0000
  C   C69       1.0  0.9295000000000002  0.33812  0.9980599999999997  1.0000
  C   C70       1.0  0.8265  0.2728  0.0037  1.0000
  C   C71       1.0  0.32265  0.17471  0.9501899999999998  1.0000
  C   C72       1.0  0.284  0.13813  0.90042  1.0000
  C   C73       1.0  0.22661000000000006  0.21549000000000001  0.87233  1.0000
  C   C74       1.0  0.19217000000000004  0.18304000000000006  0.8247699999999998  1.0000
  C   C75       1.0  0.21431000000000003  0.07296  0.80386  1.0000
  C   C76       1.0  0.27161  0.9962300000000001  0.83265  1.0000
  C   C77       1.0  0.30607  0.02777  0.88029  1.0000
  C   C78       1.0  0.1801  0.03855000000000001  0.75299  1.0000
  C   C79       1.0  0.16913  0.12563  0.71633  1.0000
  C   C80       1.0  0.14176  0.09183  0.66791  1.0000
  C   C81       1.0  0.12799000000000005  0.96973  0.65466  1.0000
  C   C82       1.0  0.13650000000000004  0.8822900000000001  0.69106  1.0000
  C   C83       1.0  0.16016  0.91611  0.7395899999999997  1.0000
  C   C84       1.0  0.10785000000000004  0.9305100000000001  0.60245  1.0000
  O   O1        1.0  0.79391  0.26816  0.52945  1.0000
  O   O2        1.0  0.8844900000000001  0.10952  0.5249  1.0000
  O   O3        1.0  0.63477  0.8231100000000001  0.9077999999999999  1.0000
  O   O4        1.0  0.04226  0.33916  0.47525  1.0000
  O   O5        1.0  0.57102  0.99948  0.92779  1.0000
  O   O6        1.0  0.10528000000000001  0.15808  0.4826  1.0000
  O   O7        1.0  0.7036200000000001  0.7283800000000001  0.029789999999999994  1.0000
  O   O8        1.0  0.61438  0.88812  0.02504  1.0000
  O   O9        1.0  0.8675000000000002  0.17619  0.40776999999999997  1.0000
  O   O10       1.0  0.4552300000000001  0.66693  0.97516  1.0000
  O   O11       1.0  0.9305100000000003  0.99989  0.42801  1.0000
  O   O12       1.0  0.39118  0.8475  0.98273  1.0000
  O   O13       1.0  0.2061  0.73184  0.47056  1.0000
  O   O14       1.0  0.11551  0.89047  0.4751  1.0000
  O   O15       1.0  0.36523  0.17688000000000004  0.09219999999999999  1.0000
  O   O16       1.0  0.95775  0.66084  0.52475  1.0000
  O   O17       1.0  0.42898000000000003  0.00051  0.07221  1.0000
  O   O18       1.0  0.89472  0.84192  0.5174099999999999  1.0000
  O   O19       1.0  0.29638  0.27161  0.9702099999999998  1.0000
  O   O20       1.0  0.3856300000000001  0.11187  0.97496  1.0000
  O   O21       1.0  0.13253  0.82382  0.59223  1.0000
  O   O22       1.0  0.54478  0.33307  0.02484  1.0000
  O   O23       1.0  0.06948  0.00010000000000000028  0.572  1.0000
  O   O24       1.0  0.60882  0.1525  0.01727  1.0000
