data_image0
_chemical_formula_structural       Mg8H36C96O32
_chemical_formula_sum              "Mg8 H36 C96 O32"
_cell_length_a       12.17072
_cell_length_b       15.87811
_cell_length_c       23.10696
_cell_angle_alpha    90.0
_cell_angle_beta     96.06145999999998
_cell_angle_gamma    90.0

_symmetry_space_group_name_H-M    'P 1'
_symmetry_Int_Tables_number       1

loop_
  _symmetry_equiv_pos_as_xyz
  'x,y,z'

loop_
  _atom_site_type_symbol
  _atom_site_label
  _atom_site_symmetry_multiplicity
  _atom_site_fract_x
  _atom_site_fract_y
  _atom_site_fract_z
  _atom_site_occupancy
  Mg  Mg1       1.0  0.37063999999999997  0.8506999999999998  0.26202000000000003  1.0000
  Mg  Mg2       1.0  0.6293599999999999  0.14929  0.73798  1.0000
  Mg  Mg3       1.0  0.5304500000000001  0.5113199999999998  0.85136  1.0000
  Mg  Mg4       1.0  0.53045  0.9886799999999998  0.35135000000000005  1.0000
  Mg  Mg5       1.0  0.46955  0.4886799999999999  0.14865000000000003  1.0000
  Mg  Mg6       1.0  0.46955  0.011319999999999997  0.6486500000000001  1.0000
  Mg  Mg7       1.0  0.62936  0.3507099999999999  0.23798000000000002  1.0000
  Mg  Mg8       1.0  0.37063999999999997  0.6492899999999998  0.76202  1.0000
  H   H1        1.0  0.39772000000000013  0.58859  0.9936000000000001  1.0000
  H   H2        1.0  0.22909000000000002  0.20961999999999995  0.6076300000000001  1.0000
  H   H3        1.0  0.25678  0.6144399999999998  0.52819  1.0000
  H   H4        1.0  0.80365  0.97032  0.8431800000000003  1.0000
  H   H5        1.0  0.17189999999999997  0.7547099999999998  0.38579  1.0000
  H   H6        1.0  0.25678  0.8855499999999997  0.02819  1.0000
  H   H7        1.0  0.029869999999999997  0.23992999999999995  0.58942  1.0000
  H   H8        1.0  0.7432199999999999  0.3855599999999999  0.47181  1.0000
  H   H9        1.0  0.39772  0.9113999999999998  0.49359  1.0000
  H   H10       1.0  0.17746  0.7466799999999998  0.57276  1.0000
  H   H11       1.0  0.43999  0.18569999999999995  0.2509  1.0000
  H   H12       1.0  0.8281  0.24527999999999994  0.61421  1.0000
  H   H13       1.0  0.82254  0.2533199999999999  0.4272400000000001  1.0000
  H   H14       1.0  0.17746  0.7533199999999998  0.07276000000000002  1.0000
  H   H15       1.0  0.43999  0.3142999999999999  0.7509000000000002  1.0000
  H   H16       1.0  0.7432199999999999  0.11443999999999997  0.9718100000000002  1.0000
  H   H17       1.0  0.7709099999999999  0.70962  0.8923700000000001  1.0000
  H   H18       1.0  0.8281  0.2547199999999999  0.11421000000000002  1.0000
  H   H19       1.0  0.80365  0.5296799999999998  0.34318  1.0000
  H   H20       1.0  0.60228  0.4113999999999999  0.00641  1.0000
  H   H21       1.0  0.72375  0.9745799999999998  0.92862  1.0000
  H   H22       1.0  0.9701199999999999  0.7600699999999998  0.41058000000000006  1.0000
  H   H23       1.0  0.27625  0.025419999999999995  0.07139  1.0000
  H   H24       1.0  0.82254  0.24667999999999995  0.9272400000000001  1.0000
  H   H25       1.0  0.56001  0.8143  0.7491000000000001  1.0000
  H   H26       1.0  0.97013  0.7399299999999998  0.9105900000000002  1.0000
  H   H27       1.0  0.72375  0.5254199999999998  0.42862000000000006  1.0000
  H   H28       1.0  0.7709099999999999  0.7903799999999997  0.39237  1.0000
  H   H29       1.0  0.02987  0.2600699999999999  0.08942  1.0000
  H   H30       1.0  0.60228  0.08859999999999997  0.5064100000000001  1.0000
  H   H31       1.0  0.27625000000000005  0.4745799999999999  0.5713900000000001  1.0000
  H   H32       1.0  0.17189999999999997  0.7452799999999998  0.8858  1.0000
  H   H33       1.0  0.19635  0.4703199999999999  0.65682  1.0000
  H   H34       1.0  0.19635  0.029679999999999995  0.15682  1.0000
  H   H35       1.0  0.22909  0.2903799999999999  0.10763  1.0000
  H   H36       1.0  0.56001  0.6856999999999998  0.24910000000000004  1.0000
  C   C1        1.0  0.34125  0.6393199999999998  0.09886  1.0000
  C   C2        1.0  0.8141700000000001  0.4274599999999999  0.4741400000000001  1.0000
  C   C3        1.0  0.6339  0.9758299999999998  0.76089  1.0000
  C   C4        1.0  0.79652  0.22306999999999994  0.57118  1.0000
  C   C5        1.0  0.19634000000000001  0.49420999999999987  0.55031  1.0000
  C   C6        1.0  0.23635  0.40933999999999987  0.66212  1.0000
  C   C7        1.0  0.65875  0.13933  0.40114  1.0000
  C   C8        1.0  0.07072000000000003  0.81852  0.9703300000000002  1.0000
  C   C9        1.0  0.6640500000000001  0.7467899999999997  0.31833000000000006  1.0000
  C   C10       1.0  0.9163800000000001  0.10010999999999998  0.00443  1.0000
  C   C11       1.0  0.32375  0.40045  0.7059200000000002  1.0000
  C   C12       1.0  0.10527  0.43663999999999986  0.54799  1.0000
  C   C13       1.0  0.33218  0.8646899999999997  0.4891900000000001  1.0000
  C   C14       1.0  0.33911  0.8632499999999997  0.38099  1.0000
  C   C15       1.0  0.70807  0.3319799999999999  0.96083  1.0000
  C   C16       1.0  0.76365  0.9093299999999997  0.83788  1.0000
  C   C17       1.0  0.20733999999999997  0.77168  0.53344  1.0000
  C   C18       1.0  0.89473  0.9366399999999998  0.9520200000000001  1.0000
  C   C19       1.0  0.71011  0.16431999999999994  0.56596  1.0000
  C   C20       1.0  0.20095  0.3422  0.62509  1.0000
  C   C21       1.0  0.89473  0.56336  0.4520200000000001  1.0000
  C   C22       1.0  0.8893499999999999  0.64156  0.4216  1.0000
  C   C23       1.0  0.16081  0.7446799999999998  0.47822  1.0000
  C   C24       1.0  0.79905  0.8421999999999997  0.87491  1.0000
  C   C25       1.0  0.23635000000000003  0.09066  0.16212  1.0000
  C   C26       1.0  0.2898800000000001  0.6643199999999998  0.9340400000000002  1.0000
  C   C27       1.0  0.6339  0.52417  0.26089000000000007  1.0000
  C   C28       1.0  0.74808  0.7365999999999998  0.36442  1.0000
  C   C29       1.0  0.08362000000000006  0.8998899999999997  0.9955700000000001  1.0000
  C   C30       1.0  0.7101200000000001  0.33567999999999987  0.06596  1.0000
  C   C31       1.0  0.74808  0.7633899999999998  0.86442  1.0000
  C   C32       1.0  0.80365  0.9942099999999998  0.9496900000000001  1.0000
  C   C33       1.0  0.28988  0.8356799999999998  0.4340400000000001  1.0000
  C   C34       1.0  0.00556  0.04101999999999999  0.012940000000000002  1.0000
  C   C35       1.0  0.08362  0.6001099999999998  0.49557  1.0000
  C   C36       1.0  0.024459999999999992  0.3003899999999999  0.56705  1.0000
  C   C37       1.0  0.25192000000000003  0.2633999999999999  0.6355800000000001  1.0000
  C   C38       1.0  0.33595  0.2532099999999999  0.6816800000000001  1.0000
  C   C39       1.0  0.62717  0.8218599999999998  0.78355  1.0000
  C   C40       1.0  0.70807  0.16801999999999995  0.46082  1.0000
  C   C41       1.0  0.6678200000000001  0.13530999999999996  0.51081  1.0000
  C   C42       1.0  0.76365  0.5906599999999997  0.33788  1.0000
  C   C43       1.0  0.65875  0.3606799999999999  0.9011400000000003  1.0000
  C   C44       1.0  0.60527  0.8283999999999998  0.30796  1.0000
  C   C45       1.0  0.97554  0.6996099999999997  0.43295000000000006  1.0000
  C   C46       1.0  0.67625  0.9004499999999998  0.79409  1.0000
  C   C47       1.0  0.66089  0.3632499999999999  0.11901000000000003  1.0000
  C   C48       1.0  0.3661  0.47582999999999986  0.73911  1.0000
  C   C49       1.0  0.02446  0.19960999999999995  0.06705  1.0000
  C   C50       1.0  0.79905  0.6577899999999998  0.37491  1.0000
  C   C51       1.0  0.25192  0.23659999999999995  0.13558  1.0000
  C   C52       1.0  0.33218  0.6353099999999998  0.98919  1.0000
  C   C53       1.0  0.99444  0.5410199999999997  0.48706  1.0000
  C   C54       1.0  0.005559999999999994  0.4589799999999999  0.51294  1.0000
  C   C55       1.0  0.60527  0.6715899999999998  0.8079600000000002  1.0000
  C   C56       1.0  0.33911  0.63675  0.8809900000000003  1.0000
  C   C57       1.0  0.20095  0.15779  0.12509000000000003  1.0000
  C   C58       1.0  0.19634000000000001  0.005789999999999998  0.05031  1.0000
  C   C59       1.0  0.20733999999999997  0.7283199999999997  0.033440000000000004  1.0000
  C   C60       1.0  0.66089  0.13674999999999995  0.61902  1.0000
  C   C61       1.0  0.07072000000000003  0.6814799999999998  0.47033000000000014  1.0000
  C   C62       1.0  0.81417  0.07254  0.97414  1.0000
  C   C63       1.0  0.92928  0.3185199999999999  0.52968  1.0000
  C   C64       1.0  0.79652  0.27693  0.07118  1.0000
  C   C65       1.0  0.39473  0.32841  0.19205000000000005  1.0000
  C   C66       1.0  0.83919  0.24467999999999995  0.02178  1.0000
  C   C67       1.0  0.16081  0.7553199999999998  0.9782200000000001  1.0000
  C   C68       1.0  0.2919300000000001  0.8319799999999998  0.5391800000000001  1.0000
  C   C69       1.0  0.3661  0.024169999999999994  0.23911  1.0000
  C   C70       1.0  0.37283  0.17813999999999994  0.21645000000000006  1.0000
  C   C71       1.0  0.80365  0.50579  0.44969  1.0000
  C   C72       1.0  0.67625  0.59955  0.2940900000000001  1.0000
  C   C73       1.0  0.10527  0.06335999999999997  0.04799  1.0000
  C   C74       1.0  0.20348000000000002  0.7769299999999998  0.4288200000000001  1.0000
  C   C75       1.0  0.18583  0.5725399999999998  0.52586  1.0000
  C   C76       1.0  0.79266  0.27167999999999987  0.9665600000000002  1.0000
  C   C77       1.0  0.92928  0.18147999999999995  0.02967  1.0000
  C   C78       1.0  0.97554  0.8003899999999998  0.9329500000000002  1.0000
  C   C79       1.0  0.79266  0.22831999999999994  0.4665600000000001  1.0000
  C   C80       1.0  0.88935  0.8584399999999999  0.9216  1.0000
  C   C81       1.0  0.6678200000000001  0.3646899999999999  0.01081  1.0000
  C   C82       1.0  0.6640500000000001  0.75321  0.8183300000000002  1.0000
  C   C83       1.0  0.39473  0.17158999999999994  0.69205  1.0000
  C   C84       1.0  0.83918  0.2553199999999999  0.5217800000000001  1.0000
  C   C85       1.0  0.18583  0.9274599999999997  0.025860000000000005  1.0000
  C   C86       1.0  0.33595  0.24678999999999995  0.18167  1.0000
  C   C87       1.0  0.29193  0.66802  0.039180000000000006  1.0000
  C   C88       1.0  0.37283  0.32186  0.71645  1.0000
  C   C89       1.0  0.9163800000000001  0.3998899999999999  0.50444  1.0000
  C   C90       1.0  0.20348000000000005  0.72307  0.9288200000000002  1.0000
  C   C91       1.0  0.62717  0.67814  0.2835500000000001  1.0000
  C   C92       1.0  0.11065000000000001  0.35843999999999987  0.5784000000000001  1.0000
  C   C93       1.0  0.11065  0.14155999999999994  0.0784  1.0000
  C   C94       1.0  0.34125  0.8606699999999998  0.59887  1.0000
  C   C95       1.0  0.32375  0.09954999999999997  0.20591  1.0000
  C   C96       1.0  0.99444  0.9589799999999998  0.9870600000000003  1.0000
  O   O1        1.0  0.47464  0.3296499999999999  0.23352  1.0000
  O   O2        1.0  0.32427  0.8201899999999998  0.64323  1.0000
  O   O3        1.0  0.6757299999999999  0.1798  0.35678  1.0000
  O   O4        1.0  0.5253599999999998  0.6703499999999998  0.76648  1.0000
  O   O5        1.0  0.41222999999999993  0.9208299999999998  0.38497000000000003  1.0000
  O   O6        1.0  0.63307  0.6084399999999999  0.83992  1.0000
  O   O7        1.0  0.58777  0.07916999999999998  0.6150300000000001  1.0000
  O   O8        1.0  0.69451  0.17490999999999995  0.6672200000000001  1.0000
  O   O9        1.0  0.58777  0.42082999999999987  0.11503000000000001  1.0000
  O   O10       1.0  0.6757300000000002  0.3202  0.8567800000000002  1.0000
  O   O11       1.0  0.55621  0.9671699999999998  0.7200700000000001  1.0000
  O   O12       1.0  0.67817  0.04697  0.7770900000000001  1.0000
  O   O13       1.0  0.69451  0.3250899999999999  0.16722000000000004  1.0000
  O   O14       1.0  0.44377999999999995  0.46716999999999986  0.7799300000000001  1.0000
  O   O15       1.0  0.40027  0.9290999999999998  0.5972800000000001  1.0000
  O   O16       1.0  0.47464  0.17034999999999995  0.73352  1.0000
  O   O17       1.0  0.30549  0.6749099999999998  0.83278  1.0000
  O   O18       1.0  0.59973  0.42909999999999987  0.9027200000000001  1.0000
  O   O19       1.0  0.59973  0.07089999999999998  0.40272000000000013  1.0000
  O   O20       1.0  0.67817  0.4530299999999999  0.27709000000000006  1.0000
  O   O21       1.0  0.52536  0.8296499999999998  0.26648000000000005  1.0000
  O   O22       1.0  0.44379  0.03283  0.27993  1.0000
  O   O23       1.0  0.3218300000000001  0.5469699999999997  0.7229100000000003  1.0000
  O   O24       1.0  0.55621  0.53282  0.22007000000000004  1.0000
  O   O25       1.0  0.32182  0.9530299999999998  0.22291  1.0000
  O   O26       1.0  0.40027  0.5708999999999997  0.09728000000000003  1.0000
  O   O27       1.0  0.30549  0.82509  0.33278  1.0000
  O   O28       1.0  0.3669299999999999  0.3915599999999999  0.16008  1.0000
  O   O29       1.0  0.32427  0.6797999999999997  0.14322  1.0000
  O   O30       1.0  0.63307  0.89156  0.33992  1.0000
  O   O31       1.0  0.3669299999999999  0.10843999999999997  0.66008  1.0000
  O   O32       1.0  0.41222999999999993  0.57917  0.88497  1.0000
