data_image0
_chemical_formula_structural       Gd4H48C84O24
_chemical_formula_sum              "Gd4 H48 C84 O24"
_cell_length_a       8.99759
_cell_length_b       15.02269
_cell_length_c       18.52522
_cell_angle_alpha    59.3448
_cell_angle_beta     76.28405
_cell_angle_gamma    72.23013

_symmetry_space_group_name_H-M    'P 1'
_symmetry_Int_Tables_number       1

loop_
  _symmetry_equiv_pos_as_xyz
  'x,y,z'

loop_
  _atom_site_type_symbol
  _atom_site_label
  _atom_site_symmetry_multiplicity
  _atom_site_fract_x
  _atom_site_fract_y
  _atom_site_fract_z
  _atom_site_occupancy
  Gd  Gd1       1.0  0.9280300000000002  0.7239499999999999  0.77915  1.0000
  Gd  Gd2       1.0  0.42928000000000016  0.7811799999999997  0.71743  1.0000
  Gd  Gd3       1.0  0.07196000000000002  0.2760499999999999  0.22085  1.0000
  Gd  Gd4       1.0  0.57072  0.21882  0.28257  1.0000
  H   H1        1.0  0.028579999999999977  0.45716999999999997  0.69814  1.0000
  H   H2        1.0  0.04214000000000003  0.34341  0.63409  1.0000
  H   H3        1.0  0.5971199999999998  0.5312000000000001  0.5372699999999998  1.0000
  H   H4        1.0  0.5852099999999999  0.64287  0.60177  1.0000
  H   H5        1.0  0.07018000000000012  0.3261299999999998  0.51411  1.0000
  H   H6        1.0  0.05994000000000004  0.2332399999999999  0.43712  1.0000
  H   H7        1.0  0.56056  0.27703  0.49684  1.0000
  H   H8        1.0  0.56878  0.37226  0.57239  1.0000
  H   H9        1.0  0.5686400000000001  0.47269000000000005  0.77839  1.0000
  H   H10       1.0  0.6645200000000001  0.32847  0.73997  1.0000
  H   H11       1.0  0.19632000000000002  0.2730200000000001  0.8011799999999998  1.0000
  H   H12       1.0  0.10202000000000004  0.42166  0.8364  1.0000
  H   H13       1.0  0.18119000000000005  0.044830000000000016  0.80304  1.0000
  H   H14       1.0  0.016409999999999952  0.15736000000000006  0.86828  1.0000
  H   H15       1.0  0.6662799999999999  0.9709700000000001  0.96115  1.0000
  H   H16       1.0  0.8305399999999997  0.8626900000000002  0.8935899999999998  1.0000
  H   H17       1.0  0.9050800000000001  0.17596999999999993  0.98804  1.0000
  H   H18       1.0  0.72297  0.26676  0.06574  1.0000
  H   H19       1.0  0.32983  0.22077  0.00545  1.0000
  H   H20       1.0  0.51044  0.1283100000000001  0.9282699999999998  1.0000
  H   H21       1.0  0.8164000000000001  0.030529999999999998  0.71803  1.0000
  H   H22       1.0  0.7323500000000001  0.17309999999999995  0.75798  1.0000
  H   H23       1.0  0.26324  0.23103000000000004  0.70148  1.0000
  H   H24       1.0  0.34935  0.08399999999999999  0.66463  1.0000
  H   H25       1.0  0.9714200000000001  0.54283  0.30186  1.0000
  H   H26       1.0  0.95786  0.65659  0.36591  1.0000
  H   H27       1.0  0.40287  0.46879999999999994  0.46273  1.0000
  H   H28       1.0  0.4147799999999999  0.35713000000000006  0.39822999999999986  1.0000
  H   H29       1.0  0.92981  0.6738699999999997  0.48589  1.0000
  H   H30       1.0  0.94005  0.76676  0.56288  1.0000
  H   H31       1.0  0.4394399999999997  0.72297  0.50315  1.0000
  H   H32       1.0  0.4312099999999999  0.62774  0.42761  1.0000
  H   H33       1.0  0.4313600000000001  0.52731  0.22159999999999994  1.0000
  H   H34       1.0  0.33547  0.67153  0.26003  1.0000
  H   H35       1.0  0.80368  0.7269799999999998  0.19880999999999993  1.0000
  H   H36       1.0  0.8979799999999999  0.57834  0.16359  1.0000
  H   H37       1.0  0.8188  0.95517  0.19696  1.0000
  H   H38       1.0  0.98359  0.84264  0.13172  1.0000
  H   H39       1.0  0.33371  0.02902999999999999  0.03885  1.0000
  H   H40       1.0  0.16945  0.13731  0.10641  1.0000
  H   H41       1.0  0.09490999999999998  0.82403  0.01195  1.0000
  H   H42       1.0  0.27701999999999993  0.73324  0.9342599999999998  1.0000
  H   H43       1.0  0.6701599999999999  0.77923  0.99454  1.0000
  H   H44       1.0  0.48955  0.87169  0.07173  1.0000
  H   H45       1.0  0.18359  0.96947  0.28197  1.0000
  H   H46       1.0  0.26763999999999993  0.8268999999999999  0.24201999999999996  1.0000
  H   H47       1.0  0.73676  0.7689700000000002  0.29852  1.0000
  H   H48       1.0  0.6506400000000001  0.916  0.33537  1.0000
  C   C1        1.0  0.78955  0.62455  0.69396  1.0000
  C   C2        1.0  0.8040099999999999  0.5557199999999998  0.65544  1.0000
  C   C3        1.0  0.9339700000000003  0.4717  0.66361  1.0000
  C   C4        1.0  0.9416600000000002  0.4089899999999999  0.62689  1.0000
  C   C5        1.0  0.8193800000000003  0.42771  0.5820099999999998  1.0000
  C   C6        1.0  0.69198  0.5140199999999998  0.57256  1.0000
  C   C7        1.0  0.6846  0.57702  0.60844  1.0000
  C   C8        1.0  0.8192500000000001  0.3606000000000001  0.5452699999999998  1.0000
  C   C9        1.0  0.9582700000000001  0.31518999999999997  0.51095  1.0000
  C   C10       1.0  0.9528399999999999  0.2639500000000001  0.46694999999999987  1.0000
  C   C11       1.0  0.80833  0.25461000000000006  0.4580399999999999  1.0000
  C   C12       1.0  0.6708800000000001  0.29033000000000003  0.49936999999999987  1.0000
  C   C13       1.0  0.6761800000000001  0.34388999999999975  0.54129  1.0000
  C   C14       1.0  0.79851  0.21908  0.39782  1.0000
  C   C15       1.0  0.26883000000000007  0.55703  0.81508  1.0000
  C   C16       1.0  0.32918  0.45805999999999997  0.80728  1.0000
  C   C17       1.0  0.4883300000000001  0.4284700000000002  0.7829499999999998  1.0000
  C   C18       1.0  0.54132  0.34695000000000015  0.7616099999999998  1.0000
  C   C19       1.0  0.4362300000000001  0.2923600000000002  0.7640299999999998  1.0000
  C   C20       1.0  0.2781600000000001  0.31784999999999997  0.79444  1.0000
  C   C21       1.0  0.22488000000000005  0.3994599999999999  0.81581  1.0000
  C   C22       1.0  0.10753000000000013  0.88098  0.8032  1.0000
  C   C23       1.0  0.013859999999999938  0.94844  0.84282  1.0000
  C   C24       1.0  0.06688000000000002  0.030999999999999972  0.83668  1.0000
  C   C25       1.0  0.9747799999999999  0.09277000000000003  0.87425  1.0000
  C   C26       1.0  0.8271  0.07409999999999997  0.91849  1.0000
  C   C27       1.0  0.7780999999999999  0.98879  0.92615  1.0000
  C   C28       1.0  0.8696300000000001  0.92733  0.88886  1.0000
  C   C29       1.0  0.72183  0.1401499999999999  0.95614  1.0000
  C   C30       1.0  0.7792599999999998  0.1855600000000001  0.9912199999999998  1.0000
  C   C31       1.0  0.67737  0.23565  0.03584  1.0000
  C   C32       1.0  0.51509  0.24364999999999995  0.04493  1.0000
  C   C33       1.0  0.45604  0.20829  0.00273  1.0000
  C   C34       1.0  0.5578900000000001  0.1561500000000002  0.9600299999999998  1.0000
  C   C35       1.0  0.40757  0.27729  0.10556  1.0000
  C   C36       1.0  0.6319299999999999  0.94783  0.68253  1.0000
  C   C37       1.0  0.58731  0.04603000000000004  0.69134  1.0000
  C   C38       1.0  0.69536  0.07450000000000001  0.71489  1.0000
  C   C39       1.0  0.64733  0.15539  0.73691  1.0000
  C   C40       1.0  0.4895400000000001  0.21058000000000007  0.73607  1.0000
  C   C41       1.0  0.38415999999999983  0.18611000000000003  0.70667  1.0000
  C   C42       1.0  0.4318600000000001  0.10520999999999996  0.68454  1.0000
  C   C43       1.0  0.21045  0.37545  0.30604  1.0000
  C   C44       1.0  0.19599000000000003  0.44428  0.34456  1.0000
  C   C45       1.0  0.0660200000000001  0.5282999999999998  0.33639  1.0000
  C   C46       1.0  0.0583299999999999  0.5910100000000001  0.3731  1.0000
  C   C47       1.0  0.18061999999999998  0.5722900000000001  0.41798999999999986  1.0000
  C   C48       1.0  0.30801  0.48598000000000013  0.4274399999999999  1.0000
  C   C49       1.0  0.3154000000000002  0.42297999999999986  0.3915599999999999  1.0000
  C   C50       1.0  0.18074000000000004  0.6394  0.45472  1.0000
  C   C51       1.0  0.0417199999999998  0.6848100000000001  0.48905  1.0000
  C   C52       1.0  0.047160000000000125  0.7360499999999998  0.53305  1.0000
  C   C53       1.0  0.1916599999999999  0.7454000000000001  0.54196  1.0000
  C   C54       1.0  0.3291100000000002  0.7096699999999999  0.50062  1.0000
  C   C55       1.0  0.32382000000000005  0.65611  0.4587  1.0000
  C   C56       1.0  0.2014800000000002  0.7809200000000001  0.6021799999999998  1.0000
  C   C57       1.0  0.73116  0.44297  0.18492  1.0000
  C   C58       1.0  0.6708199999999999  0.5419400000000001  0.19271999999999995  1.0000
  C   C59       1.0  0.5116600000000001  0.5715299999999999  0.21704999999999994  1.0000
  C   C60       1.0  0.4586800000000001  0.6530499999999998  0.23838  1.0000
  C   C61       1.0  0.5637700000000001  0.7076399999999999  0.23597  1.0000
  C   C62       1.0  0.7218300000000001  0.68215  0.20556  1.0000
  C   C63       1.0  0.77512  0.60054  0.18419  1.0000
  C   C64       1.0  0.89247  0.11901999999999999  0.1968  1.0000
  C   C65       1.0  0.9861299999999998  0.051560000000000036  0.15717999999999993  1.0000
  C   C66       1.0  0.9331100000000001  0.969  0.16332  1.0000
  C   C67       1.0  0.025210000000000014  0.90723  0.12574  1.0000
  C   C68       1.0  0.1729000000000001  0.9258999999999997  0.08151  1.0000
  C   C69       1.0  0.22190000000000001  0.011209999999999994  0.07385  1.0000
  C   C70       1.0  0.13037  0.07267  0.11114  1.0000
  C   C71       1.0  0.27816000000000013  0.8598499999999998  0.04386  1.0000
  C   C72       1.0  0.22073000000000012  0.8144399999999998  0.00878  1.0000
  C   C73       1.0  0.32262  0.7643499999999999  0.96416  1.0000
  C   C74       1.0  0.48489999999999994  0.75635  0.95507  1.0000
  C   C75       1.0  0.5439500000000002  0.7917099999999999  0.99727  1.0000
  C   C76       1.0  0.44210000000000005  0.84385  0.039969999999999985  1.0000
  C   C77       1.0  0.5924300000000001  0.7227099999999999  0.89444  1.0000
  C   C78       1.0  0.36806000000000005  0.05217999999999999  0.31747  1.0000
  C   C79       1.0  0.41267999999999994  0.9539700000000001  0.30865999999999993  1.0000
  C   C80       1.0  0.30463999999999997  0.9255  0.28511  1.0000
  C   C81       1.0  0.35267000000000015  0.8446099999999997  0.2630899999999999  1.0000
  C   C82       1.0  0.51045  0.78942  0.26393  1.0000
  C   C83       1.0  0.61583  0.81389  0.29332999999999987  1.0000
  C   C84       1.0  0.5681299999999999  0.89479  0.3154499999999999  1.0000
  O   O1        1.0  0.8923200000000001  0.6032  0.74076  1.0000
  O   O2        1.0  0.6733300000000001  0.7047299999999996  0.67659  1.0000
  O   O3        1.0  0.9191599999999999  0.21275  0.34645  1.0000
  O   O4        1.0  0.66895  0.20150000000000007  0.39634999999999987  1.0000
  O   O5        1.0  0.12515000000000004  0.57817  0.84237  1.0000
  O   O6        1.0  0.36192  0.61909  0.79003  1.0000
  O   O7        1.0  0.23681000000000016  0.9009200000000002  0.7590699999999998  1.0000
  O   O8        1.0  0.053749999999999874  0.8033400000000002  0.81695  1.0000
  O   O9        1.0  0.46736  0.2823999999999999  0.15907  1.0000
  O   O10       1.0  0.25930000000000003  0.29435  0.10520999999999997  1.0000
  O   O11       1.0  0.5345100000000003  0.92884  0.6546599999999998  1.0000
  O   O12       1.0  0.7627400000000001  0.88416  0.70753  1.0000
  O   O13       1.0  0.10767999999999997  0.39680000000000004  0.25923  1.0000
  O   O14       1.0  0.3266699999999999  0.2952699999999999  0.32341  1.0000
  O   O15       1.0  0.08083000000000007  0.7872499999999999  0.65355  1.0000
  O   O16       1.0  0.3310399999999999  0.7985  0.60365  1.0000
  O   O17       1.0  0.87484  0.42184  0.15763  1.0000
  O   O18       1.0  0.63807  0.38091  0.20997  1.0000
  O   O19       1.0  0.7631800000000001  0.09908000000000003  0.24092999999999995  1.0000
  O   O20       1.0  0.9462399999999999  0.19667  0.18305  1.0000
  O   O21       1.0  0.53264  0.7175999999999998  0.84093  1.0000
  O   O22       1.0  0.7407000000000002  0.7056499999999999  0.89478  1.0000
  O   O23       1.0  0.46548000000000006  0.07115999999999999  0.34534  1.0000
  O   O24       1.0  0.23726  0.11583999999999997  0.29246  1.0000
