data_image0
_chemical_formula_structural       Ba4H60C108O24
_chemical_formula_sum              "Ba4 H60 C108 O24"
_cell_length_a       7.2598
_cell_length_b       19.35885
_cell_length_c       26.19765
_cell_angle_alpha    89.99955999999999
_cell_angle_beta     89.97727999999998
_cell_angle_gamma    90.00677

_space_group_name_H-M_alt    "P 1"
_space_group_IT_number       1

loop_
  _space_group_symop_operation_xyz
  'x, y, z'

loop_
  _atom_site_type_symbol
  _atom_site_label
  _atom_site_symmetry_multiplicity
  _atom_site_fract_x
  _atom_site_fract_y
  _atom_site_fract_z
  _atom_site_occupancy
  Ba  Ba1       1.0  0.16694999999999993  0.31432  0.8948800000000001  1.0000
  Ba  Ba2       1.0  0.8327799999999997  0.68579  0.39585  1.0000
  Ba  Ba3       1.0  0.66685  0.18558  0.8948900000000002  1.0000
  Ba  Ba4       1.0  0.3328399999999999  0.81427  0.3958  1.0000
  H   H1        1.0  0.30054  0.10128  0.76265  1.0000
  H   H2        1.0  0.22798999999999994  0.9857000000000001  0.72492  1.0000
  H   H3        1.0  0.9483999999999998  0.9288500000000001  0.8639500000000002  1.0000
  H   H4        1.0  0.014629999999999997  0.04482  0.89988  1.0000
  H   H5        1.0  0.5991499999999997  0.9208599999999999  0.55934  1.0000
  H   H6        1.0  0.7225299999999998  0.9217600000000001  0.64857  1.0000
  H   H7        1.0  0.7911  0.71339  0.53949  1.0000
  H   H8        1.0  0.9222199999999998  0.71406  0.62673  1.0000
  H   H9        1.0  0.10056  0.52282  0.7942000000000002  1.0000
  H   H10       1.0  0.07413  0.63082  0.74237  1.0000
  H   H11       1.0  0.9166899999999999  0.74257  0.8780500000000002  1.0000
  H   H12       1.0  0.94728  0.63392  0.92895  1.0000
  H   H13       1.0  0.8643699999999997  0.70937  0.70972  1.0000
  H   H14       1.0  0.9701199999999998  0.92718  0.6953400000000002  1.0000
  H   H15       1.0  0.07958  0.82391  0.8372  1.0000
  H   H16       1.0  0.6995999999999998  0.89862  0.26269  1.0000
  H   H17       1.0  0.7719399999999997  0.014189999999999998  0.22504000000000005  1.0000
  H   H18       1.0  0.05152  0.07113  0.36394000000000004  1.0000
  H   H19       1.0  0.98547  0.9552000000000002  0.3998800000000001  1.0000
  H   H20       1.0  0.4012999999999999  0.079  0.059240000000000015  1.0000
  H   H21       1.0  0.27764999999999995  0.0783  0.14835  1.0000
  H   H22       1.0  0.20905999999999997  0.28656  0.03932  1.0000
  H   H23       1.0  0.07809999999999997  0.28581  0.1265  1.0000
  H   H24       1.0  0.8990899999999997  0.47720999999999997  0.29406000000000004  1.0000
  H   H25       1.0  0.92595  0.36919  0.24240000000000006  1.0000
  H   H26       1.0  0.08329  0.25757  0.37803  1.0000
  H   H27       1.0  0.05250999999999999  0.36615  0.42886000000000013  1.0000
  H   H28       1.0  0.1357  0.29065  0.20969000000000002  1.0000
  H   H29       1.0  0.029869999999999994  0.07282  0.19533  1.0000
  H   H30       1.0  0.92036  0.17608  0.33722000000000013  1.0000
  H   H31       1.0  0.8005799999999997  0.39883  0.76261  1.0000
  H   H32       1.0  0.72793  0.5144  0.7249  1.0000
  H   H33       1.0  0.4485099999999999  0.57114  0.8639500000000002  1.0000
  H   H34       1.0  0.5148499999999998  0.45522  0.89988  1.0000
  H   H35       1.0  0.09921  0.57915  0.55933  1.0000
  H   H36       1.0  0.22233999999999995  0.57824  0.64858  1.0000
  H   H37       1.0  0.2910899999999999  0.78665  0.53949  1.0000
  H   H38       1.0  0.42218  0.78603  0.6267700000000003  1.0000
  H   H39       1.0  0.60063  0.97723  0.79414  1.0000
  H   H40       1.0  0.5741699999999997  0.86918  0.7423500000000002  1.0000
  H   H41       1.0  0.41685  0.7575  0.8780300000000001  1.0000
  H   H42       1.0  0.4474599999999999  0.8662  0.9289200000000002  1.0000
  H   H43       1.0  0.3643299999999999  0.79068  0.7097600000000002  1.0000
  H   H44       1.0  0.47019  0.57289  0.6953200000000002  1.0000
  H   H45       1.0  0.5796199999999998  0.67616  0.8372  1.0000
  H   H46       1.0  0.19951999999999995  0.60127  0.26264  1.0000
  H   H47       1.0  0.27200999999999986  0.48572  0.22504000000000005  1.0000
  H   H48       1.0  0.5513899999999998  0.42889  0.36395000000000005  1.0000
  H   H49       1.0  0.4852599999999999  0.54475  0.3998800000000001  1.0000
  H   H50       1.0  0.9012399999999998  0.42102  0.059240000000000015  1.0000
  H   H51       1.0  0.77781  0.42169  0.14838  1.0000
  H   H52       1.0  0.7090799999999998  0.21341  0.03933000000000001  1.0000
  H   H53       1.0  0.57816  0.2141  0.12653  1.0000
  H   H54       1.0  0.3990299999999999  0.02272  0.29400000000000004  1.0000
  H   H55       1.0  0.42591  0.13079  0.24239000000000002  1.0000
  H   H56       1.0  0.5831199999999997  0.24233000000000002  0.3780100000000001  1.0000
  H   H57       1.0  0.5523399999999998  0.13372  0.42883  1.0000
  H   H58       1.0  0.6357299999999998  0.20929  0.20973000000000006  1.0000
  H   H59       1.0  0.5297999999999998  0.4271  0.19531  1.0000
  H   H60       1.0  0.42031  0.32383  0.33722000000000013  1.0000
  C   C1        1.0  0.18147  0.15231  0.85231  1.0000
  C   C2        1.0  0.15785  0.0804  0.8327900000000003  1.0000
  C   C3        1.0  0.22169  0.06314  0.7838900000000002  1.0000
  C   C4        1.0  0.18099999999999994  0.99886  0.76316  1.0000
  C   C5        1.0  0.08194  0.94949  0.7917900000000002  1.0000
  C   C6        1.0  0.02803  0.96598  0.8419  1.0000
  C   C7        1.0  0.06280999999999998  0.03108  0.86192  1.0000
  C   C8        1.0  0.028689999999999993  0.88301  0.76907  1.0000
  C   C9        1.0  0.5979299999999997  0.81643  0.49287000000000003  1.0000
  C   C10       1.0  0.6901099999999998  0.81771  0.54397  1.0000
  C   C11       1.0  0.67211  0.8765700000000001  0.57495  1.0000
  C   C12       1.0  0.7418799999999998  0.87661  0.6243800000000003  1.0000
  C   C13       1.0  0.77934  0.75922  0.56324  1.0000
  C   C14       1.0  0.8490999999999997  0.75923  0.6126500000000001  1.0000
  C   C15       1.0  0.042349999999999985  0.5068  0.89464  1.0000
  C   C16       1.0  0.026889999999999994  0.57223  0.8642600000000001  1.0000
  C   C17       1.0  0.059079999999999994  0.57144  0.8114900000000003  1.0000
  C   C18       1.0  0.04296  0.63164  0.783  1.0000
  C   C19       1.0  0.9932499999999997  0.69442  0.8065  1.0000
  C   C20       1.0  0.9594799999999998  0.69474  0.85964  1.0000
  C   C21       1.0  0.97545  0.63442  0.8881300000000002  1.0000
  C   C22       1.0  0.9794299999999998  0.75847  0.7764300000000001  1.0000
  C   C23       1.0  0.9167699999999998  0.75739  0.72567  1.0000
  C   C24       1.0  0.9089999999999998  0.81807  0.69616  1.0000
  C   C25       1.0  0.9711799999999998  0.88008  0.71802  1.0000
  C   C26       1.0  0.029349999999999998  0.82203  0.7981300000000002  1.0000
  C   C27       1.0  0.83272  0.81783  0.6440300000000001  1.0000
  C   C28       1.0  0.8178499999999997  0.84775  0.35321  1.0000
  C   C29       1.0  0.84247  0.91937  0.33293  1.0000
  C   C30       1.0  0.7787299999999998  0.9366100000000002  0.28399  1.0000
  C   C31       1.0  0.8191199999999997  0.00097  0.26325  1.0000
  C   C32       1.0  0.9180599999999998  0.05046  0.2918  1.0000
  C   C33       1.0  0.9721199999999998  0.03397  0.34188000000000013  1.0000
  C   C34       1.0  0.93757  0.96884  0.3619  1.0000
  C   C35       1.0  0.9712099999999998  0.11698000000000001  0.26906  1.0000
  C   C36       1.0  0.4013699999999999  0.18353  0.99225  1.0000
  C   C37       1.0  0.3102299999999999  0.1823  0.043630000000000016  1.0000
  C   C38       1.0  0.32865  0.12349000000000002  0.0747  1.0000
  C   C39       1.0  0.25868  0.12344999999999999  0.12415000000000002  1.0000
  C   C40       1.0  0.22113999999999995  0.24075999999999997  0.06307  1.0000
  C   C41       1.0  0.15138999999999994  0.24067  0.11249000000000003  1.0000
  C   C42       1.0  0.9588999999999998  0.49282  0.3954000000000001  1.0000
  C   C43       1.0  0.9728899999999999  0.42793  0.3644500000000001  1.0000
  C   C44       1.0  0.9405899999999998  0.42877000000000004  0.3116300000000001  1.0000
  C   C45       1.0  0.9569  0.36855  0.28307000000000004  1.0000
  C   C46       1.0  0.00673  0.30566  0.30645  1.0000
  C   C47       1.0  0.04033999999999999  0.30534  0.35959000000000013  1.0000
  C   C48       1.0  0.02418999999999999  0.36562  0.38808  1.0000
  C   C49       1.0  0.020609999999999993  0.24154000000000003  0.27639  1.0000
  C   C50       1.0  0.08332999999999997  0.24259  0.2256  1.0000
  C   C51       1.0  0.09116999999999999  0.18192  0.19607  1.0000
  C   C52       1.0  0.028879999999999992  0.11994  0.21799  1.0000
  C   C53       1.0  0.9705999999999998  0.17797  0.29813000000000006  1.0000
  C   C54       1.0  0.16761  0.18213  0.14388  1.0000
  C   C55       1.0  0.6817599999999998  0.34766  0.8522  1.0000
  C   C56       1.0  0.6581  0.4196599999999999  0.8327700000000001  1.0000
  C   C57       1.0  0.72176  0.43697  0.78385  1.0000
  C   C58       1.0  0.68101  0.50125  0.76315  1.0000
  C   C59       1.0  0.5820699999999998  0.55061  0.7918  1.0000
  C   C60       1.0  0.5281199999999998  0.53404  0.8419  1.0000
  C   C61       1.0  0.563  0.4689400000000001  0.86192  1.0000
  C   C62       1.0  0.5287299999999999  0.61707  0.7691  1.0000
  C   C63       1.0  0.09793  0.68338  0.49285  1.0000
  C   C64       1.0  0.19031999999999993  0.68224  0.5439500000000002  1.0000
  C   C65       1.0  0.17223  0.62342  0.57496  1.0000
  C   C66       1.0  0.24176999999999996  0.62341  0.62441  1.0000
  C   C67       1.0  0.2793899999999999  0.74081  0.56324  1.0000
  C   C68       1.0  0.3490199999999999  0.74084  0.6126700000000003  1.0000
  C   C69       1.0  0.54281  0.99316  0.8946  1.0000
  C   C70       1.0  0.52679  0.92781  0.86421  1.0000
  C   C71       1.0  0.5591  0.92863  0.8114500000000002  1.0000
  C   C72       1.0  0.5430699999999999  0.86841  0.78298  1.0000
  C   C73       1.0  0.49329  0.80565  0.80647  1.0000
  C   C74       1.0  0.45962999999999987  0.80531  0.85961  1.0000
  C   C75       1.0  0.4755  0.86563  0.8880900000000002  1.0000
  C   C76       1.0  0.4794099999999999  0.7416  0.77641  1.0000
  C   C77       1.0  0.41673999999999994  0.74264  0.72567  1.0000
  C   C78       1.0  0.4089699999999999  0.68195  0.6961800000000001  1.0000
  C   C79       1.0  0.47119  0.61996  0.71804  1.0000
  C   C80       1.0  0.52935  0.67807  0.79814  1.0000
  C   C81       1.0  0.33262999999999987  0.68221  0.6440500000000002  1.0000
  C   C82       1.0  0.3175999999999999  0.6522  0.35321  1.0000
  C   C83       1.0  0.3422399999999999  0.58058  0.33294  1.0000
  C   C84       1.0  0.27866  0.56332  0.28398  1.0000
  C   C85       1.0  0.31909999999999994  0.49895  0.26326  1.0000
  C   C86       1.0  0.4179199999999999  0.44945  0.2918200000000001  1.0000
  C   C87       1.0  0.4720199999999999  0.46601000000000004  0.3418700000000001  1.0000
  C   C88       1.0  0.4374  0.53112  0.36191  1.0000
  C   C89       1.0  0.4711499999999999  0.38293  0.26909  1.0000
  C   C90       1.0  0.9009699999999998  0.31656  0.99217  1.0000
  C   C91       1.0  0.81016  0.31772  0.043620000000000006  1.0000
  C   C92       1.0  0.82862  0.37652  0.07471000000000001  1.0000
  C   C93       1.0  0.75879  0.37653  0.12418000000000003  1.0000
  C   C94       1.0  0.72118  0.25923  0.06306  1.0000
  C   C95       1.0  0.6514799999999997  0.25926  0.1125  1.0000
  C   C96       1.0  0.45861  0.007170000000000001  0.39538  1.0000
  C   C97       1.0  0.4729299999999999  0.07201  0.36441  1.0000
  C   C98       1.0  0.4405699999999999  0.07114  0.31159  1.0000
  C   C99       1.0  0.4567999999999999  0.13138  0.28305  1.0000
  C   C100      1.0  0.5066899999999998  0.19425  0.30643000000000004  1.0000
  C   C101      1.0  0.5402199999999999  0.19458  0.35956  1.0000
  C   C102      1.0  0.52414  0.13431  0.38805  1.0000
  C   C103      1.0  0.52062  0.25837  0.27638  1.0000
  C   C104      1.0  0.5833599999999998  0.25737  0.22561000000000006  1.0000
  C   C105      1.0  0.5911999999999997  0.31805  0.19608000000000003  1.0000
  C   C106      1.0  0.52885  0.38001  0.21801000000000006  1.0000
  C   C107      1.0  0.47059  0.32193  0.29814  1.0000
  C   C108      1.0  0.6676799999999999  0.31783  0.14390000000000003  1.0000
  O   O1        1.0  0.63118  0.76685  0.46186  1.0000
  O   O2        1.0  0.48101  0.86362  0.48319000000000006  1.0000
  O   O3        1.0  0.12848  0.45500999999999997  0.8757400000000002  1.0000
  O   O4        1.0  0.9658599999999998  0.50551  0.93794  1.0000
  O   O5        1.0  0.04819  0.17745  0.8782500000000001  1.0000
  O   O6        1.0  0.32837  0.18531  0.8416200000000001  1.0000
  O   O7        1.0  0.3678799999999999  0.23304  0.9611  1.0000
  O   O8        1.0  0.51806  0.13642  0.9821300000000001  1.0000
  O   O9        1.0  0.8698299999999998  0.54442  0.37752000000000013  1.0000
  O   O10       1.0  0.03920999999999998  0.4939799999999999  0.4381500000000001  1.0000
  O   O11       1.0  0.9506599999999997  0.82292  0.3795  1.0000
  O   O12       1.0  0.6705999999999998  0.81472  0.34283  1.0000
  O   O13       1.0  0.13118  0.73301  0.46187000000000006  1.0000
  O   O14       1.0  0.98077  0.63626  0.48324  1.0000
  O   O15       1.0  0.62873  0.04498  0.8756600000000002  1.0000
  O   O16       1.0  0.46761999999999987  0.9946  0.93804  1.0000
  O   O17       1.0  0.54869  0.32246  0.8782  1.0000
  O   O18       1.0  0.8284799999999998  0.31465  0.84137  1.0000
  O   O19       1.0  0.8676899999999997  0.26691  0.96112  1.0000
  O   O20       1.0  0.017279999999999993  0.36381  0.9821  1.0000
  O   O21       1.0  0.3702299999999999  0.95552  0.37727  1.0000
  O   O22       1.0  0.53778  0.00606  0.4383200000000001  1.0000
  O   O23       1.0  0.4503199999999999  0.67712  0.3795  1.0000
  O   O24       1.0  0.17032  0.68519  0.34282  1.0000
