data_image0
_chemical_formula_structural       Cd6H68C108N4O24
_chemical_formula_sum              "Cd6 H68 C108 N4 O24"
_cell_length_a       9.51269
_cell_length_b       13.43117
_cell_length_c       23.40473
_cell_angle_alpha    94.54427000000001
_cell_angle_beta     90.0
_cell_angle_gamma    90.0

_space_group_name_H-M_alt    "P 1"
_space_group_IT_number       1

loop_
  _space_group_symop_operation_xyz
  'x, y, z'

loop_
  _atom_site_type_symbol
  _atom_site_label
  _atom_site_symmetry_multiplicity
  _atom_site_fract_x
  _atom_site_fract_y
  _atom_site_fract_z
  _atom_site_occupancy
  Cd  Cd1       1.0  0.34882  0.028929999999999994  0.9547199999999999  1.0000
  Cd  Cd2       1.0  0.34882  0.4710699999999998  0.54528  1.0000
  Cd  Cd3       1.0  0.65118  0.97107  0.04528  1.0000
  Cd  Cd4       1.0  0.65118  0.52893  0.45472  1.0000
  Cd  Cd5       1.0  0.0  0.4999999999999999  0.5  1.0000
  Cd  Cd6       1.0  0.0  0.0  0.0  1.0000
  H   H1        1.0  0.1663  0.33173999999999987  0.72595  1.0000
  H   H2        1.0  0.9880200000000001  0.33267  0.8043199999999999  1.0000
  H   H3        1.0  0.72014  0.51804  0.7098699999999999  1.0000
  H   H4        1.0  0.89764  0.51571  0.63136  1.0000
  H   H5        1.0  0.63129  0.4428699999999999  0.78962  1.0000
  H   H6        1.0  0.97586  0.55395  0.8301299999999999  1.0000
  H   H7        1.0  0.9996199999999998  0.71424  0.8915199999999998  1.0000
  H   H8        1.0  0.55987  0.7090399999999999  0.92972  1.0000
  H   H9        1.0  0.5341  0.5487699999999998  0.8685699999999997  1.0000
  H   H10       1.0  0.54369  0.28933999999999993  0.8071799999999999  1.0000
  H   H11       1.0  0.52287  0.15152999999999994  0.87068  1.0000
  H   H12       1.0  0.89453  0.25677  0.96161  1.0000
  H   H13       1.0  0.90771  0.40068  0.90095  1.0000
  H   H14       1.0  0.59063  0.9348199999999998  0.86703  1.0000
  H   H15       1.0  0.60361  0.83326  0.7724499999999997  1.0000
  H   H16       1.0  0.1758  0.7407399999999997  0.8010799999999999  1.0000
  H   H17       1.0  0.18129  0.84631  0.89387  1.0000
  H   H18       1.0  0.1663  0.16825999999999994  0.77406  1.0000
  H   H19       1.0  0.9880200000000001  0.16733  0.6956799999999999  1.0000
  H   H20       1.0  0.72014  0.98196  0.7901299999999998  1.0000
  H   H21       1.0  0.89764  0.98429  0.86864  1.0000
  H   H22       1.0  0.63129  0.05712999999999999  0.71039  1.0000
  H   H23       1.0  0.97586  0.9460499999999998  0.66987  1.0000
  H   H24       1.0  0.9996199999999998  0.78576  0.60848  1.0000
  H   H25       1.0  0.55987  0.7909599999999998  0.57028  1.0000
  H   H26       1.0  0.5341  0.9512399999999998  0.63143  1.0000
  H   H27       1.0  0.54369  0.21065999999999993  0.69282  1.0000
  H   H28       1.0  0.52287  0.3484699999999999  0.62932  1.0000
  H   H29       1.0  0.89453  0.24323999999999996  0.53839  1.0000
  H   H30       1.0  0.90771  0.09932999999999997  0.59905  1.0000
  H   H31       1.0  0.59063  0.5651899999999997  0.63297  1.0000
  H   H32       1.0  0.60361  0.6667499999999998  0.7275499999999999  1.0000
  H   H33       1.0  0.1758  0.7592599999999999  0.69892  1.0000
  H   H34       1.0  0.18129  0.65369  0.60613  1.0000
  H   H35       1.0  0.8337  0.6682599999999997  0.27405  1.0000
  H   H36       1.0  0.01198  0.6673299999999998  0.19568  1.0000
  H   H37       1.0  0.27986  0.48195999999999994  0.29013  1.0000
  H   H38       1.0  0.10236  0.4842899999999999  0.36864  1.0000
  H   H39       1.0  0.36871  0.55713  0.21039  1.0000
  H   H40       1.0  0.02414  0.4460499999999999  0.16987  1.0000
  H   H41       1.0  0.00038  0.28576  0.10847999999999998  1.0000
  H   H42       1.0  0.4401300000000001  0.29095999999999994  0.07028  1.0000
  H   H43       1.0  0.46591  0.45124  0.13143  1.0000
  H   H44       1.0  0.45631000000000005  0.71066  0.19281999999999996  1.0000
  H   H45       1.0  0.47714  0.84847  0.12932  1.0000
  H   H46       1.0  0.10547000000000001  0.74324  0.03839  1.0000
  H   H47       1.0  0.09229  0.5993299999999998  0.09904999999999999  1.0000
  H   H48       1.0  0.40937  0.06518  0.13297  1.0000
  H   H49       1.0  0.39639  0.16675  0.22754999999999997  1.0000
  H   H50       1.0  0.82421  0.25925999999999993  0.19892  1.0000
  H   H51       1.0  0.81872  0.15369  0.10612999999999999  1.0000
  H   H52       1.0  0.8337  0.8317399999999999  0.22594999999999998  1.0000
  H   H53       1.0  0.01198  0.8326699999999999  0.30432  1.0000
  H   H54       1.0  0.27986  0.01803999999999999  0.20986999999999997  1.0000
  H   H55       1.0  0.10236  0.01571  0.13136  1.0000
  H   H56       1.0  0.36871  0.9428699999999999  0.28962  1.0000
  H   H57       1.0  0.02414  0.05394999999999999  0.33013  1.0000
  H   H58       1.0  0.00038  0.21423999999999996  0.3915199999999999  1.0000
  H   H59       1.0  0.4401300000000001  0.20904  0.42972  1.0000
  H   H60       1.0  0.46591  0.04876999999999999  0.36857  1.0000
  H   H61       1.0  0.45631000000000005  0.78934  0.30718  1.0000
  H   H62       1.0  0.47714  0.65153  0.37068  1.0000
  H   H63       1.0  0.10547000000000001  0.7567699999999998  0.46161  1.0000
  H   H64       1.0  0.09229  0.90068  0.4009499999999999  1.0000
  H   H65       1.0  0.40937  0.4348199999999999  0.36702999999999997  1.0000
  H   H66       1.0  0.39639  0.3332599999999999  0.27245  1.0000
  H   H67       1.0  0.82421  0.24074  0.30108  1.0000
  H   H68       1.0  0.81872  0.34631  0.39387  1.0000
  C   C1        1.0  0.15079  0.4244799999999999  0.62822  1.0000
  C   C2        1.0  0.04236  0.42261999999999994  0.6739  1.0000
  C   C3        1.0  0.06762  0.37199  0.72293  1.0000
  C   C4        1.0  0.96815  0.3735199999999999  0.7668499999999999  1.0000
  C   C5        1.0  0.84252  0.42674  0.7625599999999999  1.0000
  C   C6        1.0  0.81783  0.4767999999999999  0.71315  1.0000
  C   C7        1.0  0.9159  0.47522  0.66915  1.0000
  C   C8        1.0  0.73469  0.43988  0.81055  1.0000
  C   C9        1.0  0.75349  0.5401799999999999  0.8454399999999999  1.0000
  C   C10       1.0  0.8845200000000001  0.5876099999999999  0.8519299999999997  1.0000
  C   C11       1.0  0.8981900000000002  0.67747  0.8857699999999998  1.0000
  C   C12       1.0  0.78112  0.7213799999999998  0.91387  1.0000
  C   C13       1.0  0.64972  0.6742799999999999  0.90742  1.0000
  C   C14       1.0  0.63623  0.58506  0.87334  1.0000
  C   C15       1.0  0.79421  0.81659  0.9516099999999998  1.0000
  C   C16       1.0  0.72826  0.3537499999999999  0.84901  1.0000
  C   C17       1.0  0.6209  0.2823399999999999  0.8409999999999999  1.0000
  C   C18       1.0  0.60957  0.20413999999999993  0.87654  1.0000
  C   C19       1.0  0.70863  0.19441999999999993  0.9201499999999999  1.0000
  C   C20       1.0  0.81801  0.2646599999999999  0.9277199999999999  1.0000
  C   C21       1.0  0.82626  0.34422999999999987  0.89313  1.0000
  C   C22       1.0  0.69877  0.11297999999999998  0.95936  1.0000
  C   C23       1.0  0.50178  0.8902599999999998  0.85048  1.0000
  C   C24       1.0  0.50826  0.8333299999999998  0.7981599999999999  1.0000
  C   C25       1.0  0.38938  0.7792599999999997  0.7781599999999997  1.0000
  C   C26       1.0  0.27001  0.7829799999999998  0.8136199999999998  1.0000
  C   C27       1.0  0.27251  0.8408499999999998  0.86565  1.0000
  C   C28       1.0  0.15079  0.07551999999999996  0.8717799999999999  1.0000
  C   C29       1.0  0.04236  0.07738  0.8261  1.0000
  C   C30       1.0  0.06762  0.12801  0.77707  1.0000
  C   C31       1.0  0.96815  0.12647999999999998  0.73315  1.0000
  C   C32       1.0  0.84252  0.07325999999999999  0.7374399999999999  1.0000
  C   C33       1.0  0.81783  0.0232  0.78686  1.0000
  C   C34       1.0  0.9159  0.024779999999999972  0.83085  1.0000
  C   C35       1.0  0.73469  0.060119999999999986  0.68945  1.0000
  C   C36       1.0  0.75349  0.9598199999999998  0.65456  1.0000
  C   C37       1.0  0.8845200000000001  0.9123899999999998  0.64807  1.0000
  C   C38       1.0  0.8981900000000002  0.8225399999999998  0.61423  1.0000
  C   C39       1.0  0.78112  0.7786199999999999  0.58613  1.0000
  C   C40       1.0  0.64972  0.82573  0.59258  1.0000
  C   C41       1.0  0.63623  0.91494  0.62667  1.0000
  C   C42       1.0  0.79421  0.68341  0.54839  1.0000
  C   C43       1.0  0.72826  0.14626  0.65099  1.0000
  C   C44       1.0  0.6209  0.21766999999999992  0.6589999999999999  1.0000
  C   C45       1.0  0.60957  0.29586  0.62347  1.0000
  C   C46       1.0  0.70863  0.3055799999999999  0.57985  1.0000
  C   C47       1.0  0.81801  0.23533999999999988  0.57228  1.0000
  C   C48       1.0  0.82626  0.15577  0.60687  1.0000
  C   C49       1.0  0.69877  0.38701999999999986  0.54064  1.0000
  C   C50       1.0  0.50178  0.60975  0.64952  1.0000
  C   C51       1.0  0.50826  0.6666699999999998  0.7018399999999998  1.0000
  C   C52       1.0  0.38938  0.7207399999999998  0.7218399999999999  1.0000
  C   C53       1.0  0.27001  0.7170199999999998  0.6863799999999999  1.0000
  C   C54       1.0  0.27251  0.65915  0.63435  1.0000
  C   C55       1.0  0.84921  0.5755199999999999  0.37177999999999994  1.0000
  C   C56       1.0  0.95765  0.57738  0.32609999999999995  1.0000
  C   C57       1.0  0.9323799999999999  0.62801  0.27707  1.0000
  C   C58       1.0  0.03185  0.62648  0.23314999999999997  1.0000
  C   C59       1.0  0.15748  0.5732599999999998  0.23744  1.0000
  C   C60       1.0  0.18217  0.5232  0.28685  1.0000
  C   C61       1.0  0.08411  0.5247799999999999  0.33085  1.0000
  C   C62       1.0  0.26532  0.56012  0.18945  1.0000
  C   C63       1.0  0.24651  0.45982  0.15456  1.0000
  C   C64       1.0  0.11548  0.4123899999999999  0.14807  1.0000
  C   C65       1.0  0.10181  0.32254  0.11422999999999998  1.0000
  C   C66       1.0  0.21889  0.27862  0.08612999999999998  1.0000
  C   C67       1.0  0.35028  0.3257199999999999  0.09257999999999998  1.0000
  C   C68       1.0  0.36378  0.4149399999999999  0.12666  1.0000
  C   C69       1.0  0.2058  0.18341  0.048389999999999996  1.0000
  C   C70       1.0  0.27174  0.6462599999999997  0.15099  1.0000
  C   C71       1.0  0.3791  0.7176699999999999  0.15899999999999997  1.0000
  C   C72       1.0  0.39043  0.7958599999999999  0.12347  1.0000
  C   C73       1.0  0.29137  0.8055799999999997  0.07985  1.0000
  C   C74       1.0  0.182  0.7353399999999998  0.07228  1.0000
  C   C75       1.0  0.17374  0.6557699999999999  0.10687  1.0000
  C   C76       1.0  0.30123  0.8870199999999999  0.04064  1.0000
  C   C77       1.0  0.49821999999999994  0.10974  0.14952  1.0000
  C   C78       1.0  0.49174999999999996  0.16667  0.20184  1.0000
  C   C79       1.0  0.61062  0.22073999999999996  0.22184  1.0000
  C   C80       1.0  0.72999  0.21702  0.18637999999999996  1.0000
  C   C81       1.0  0.7275  0.15914999999999999  0.13435  1.0000
  C   C82       1.0  0.84921  0.92448  0.12822  1.0000
  C   C83       1.0  0.95765  0.9226299999999997  0.1739  1.0000
  C   C84       1.0  0.9323799999999999  0.8719999999999999  0.22292999999999996  1.0000
  C   C85       1.0  0.03185  0.87352  0.26685  1.0000
  C   C86       1.0  0.15748  0.92675  0.26256  1.0000
  C   C87       1.0  0.18217  0.9768  0.21315  1.0000
  C   C88       1.0  0.08411  0.9752199999999999  0.16915  1.0000
  C   C89       1.0  0.26532  0.93988  0.31054999999999994  1.0000
  C   C90       1.0  0.24651  0.04018  0.34544  1.0000
  C   C91       1.0  0.11548  0.08760999999999995  0.3519299999999999  1.0000
  C   C92       1.0  0.10181  0.17746  0.38577  1.0000
  C   C93       1.0  0.21889  0.22137999999999997  0.41387  1.0000
  C   C94       1.0  0.35028  0.17428  0.40742  1.0000
  C   C95       1.0  0.36378  0.08505999999999998  0.37334  1.0000
  C   C96       1.0  0.2058  0.31658999999999987  0.45161  1.0000
  C   C97       1.0  0.27174  0.8537499999999998  0.34901  1.0000
  C   C98       1.0  0.3791  0.78234  0.341  1.0000
  C   C99       1.0  0.39043  0.7041399999999998  0.37653  1.0000
  C   C100      1.0  0.29137  0.6944199999999999  0.42015  1.0000
  C   C101      1.0  0.182  0.7646599999999998  0.42771999999999993  1.0000
  C   C102      1.0  0.17374  0.8442299999999997  0.39313  1.0000
  C   C103      1.0  0.30123  0.61299  0.45935999999999994  1.0000
  C   C104      1.0  0.49821999999999994  0.39026  0.35047999999999996  1.0000
  C   C105      1.0  0.49174999999999996  0.33333  0.29816  1.0000
  C   C106      1.0  0.61062  0.27926  0.27816  1.0000
  C   C107      1.0  0.72999  0.28297999999999995  0.31362  1.0000
  C   C108      1.0  0.7275  0.34085  0.36565  1.0000
  N   N1        1.0  0.38584  0.8950899999999998  0.88363  1.0000
  N   N2        1.0  0.38584  0.60492  0.61637  1.0000
  N   N3        1.0  0.61416  0.10491999999999997  0.11637  1.0000
  N   N4        1.0  0.61416  0.3950799999999999  0.38363  1.0000
  O   O1        1.0  0.11856999999999998  0.46971  0.58297  1.0000
  O   O2        1.0  0.27185  0.3888999999999999  0.63471  1.0000
  O   O3        1.0  0.59028  0.05569  0.95872  1.0000
  O   O4        1.0  0.79848  0.10144999999999997  0.9947499999999999  1.0000
  O   O5        1.0  0.90889  0.8655499999999998  0.9485099999999999  1.0000
  O   O6        1.0  0.68796  0.8389199999999998  0.98305  1.0000
  O   O7        1.0  0.11856999999999998  0.03029999999999999  0.91703  1.0000
  O   O8        1.0  0.27185  0.11109999999999998  0.8652899999999999  1.0000
  O   O9        1.0  0.59028  0.4443199999999999  0.54128  1.0000
  O   O10       1.0  0.79848  0.39855  0.50526  1.0000
  O   O11       1.0  0.90889  0.6344499999999997  0.55149  1.0000
  O   O12       1.0  0.68796  0.6610799999999999  0.51696  1.0000
  O   O13       1.0  0.88143  0.5303  0.4170299999999999  1.0000
  O   O14       1.0  0.72815  0.6111  0.36529  1.0000
  O   O15       1.0  0.40972  0.9443199999999998  0.04128  1.0000
  O   O16       1.0  0.20153  0.8985599999999998  0.00526  1.0000
  O   O17       1.0  0.09111  0.13445  0.05149  1.0000
  O   O18       1.0  0.31204  0.16108  0.01696  1.0000
  O   O19       1.0  0.88143  0.9697099999999997  0.08297  1.0000
  O   O20       1.0  0.72815  0.8889099999999998  0.13471  1.0000
  O   O21       1.0  0.40972  0.5556899999999998  0.45871999999999996  1.0000
  O   O22       1.0  0.20153  0.60145  0.49475  1.0000
  O   O23       1.0  0.09111  0.36555  0.44851  1.0000
  O   O24       1.0  0.31204  0.3389199999999999  0.48305  1.0000
