data_image0
_chemical_formula_structural       Mg12H24C72O48
_chemical_formula_sum              "Mg12 H24 C72 O48"
_cell_length_a       11.94506
_cell_length_b       17.072349999999997
_cell_length_c       18.7944
_cell_angle_alpha    112.96916
_cell_angle_beta     90.00271000000001
_cell_angle_gamma    89.94316

_symmetry_space_group_name_H-M    'P 1'
_symmetry_Int_Tables_number       1

loop_
  _symmetry_equiv_pos_as_xyz
  'x,y,z'

loop_
  _atom_site_type_symbol
  _atom_site_label
  _atom_site_symmetry_multiplicity
  _atom_site_fract_x
  _atom_site_fract_y
  _atom_site_fract_z
  _atom_site_occupancy
  Mg  Mg1       1.0  0.58366  0.70464  0.97483  1.0000
  Mg  Mg2       1.0  0.4818  0.73585  0.82437  1.0000
  Mg  Mg3       1.0  0.80595  0.8441400000000001  0.12617  1.0000
  Mg  Mg4       1.0  0.08263  0.29573  0.52537  1.0000
  Mg  Mg5       1.0  0.98181  0.26393  0.67587  1.0000
  Mg  Mg6       1.0  0.30481  0.15499  0.37359  1.0000
  Mg  Mg7       1.0  0.41633  0.29535  0.02516  1.0000
  Mg  Mg8       1.0  0.51819  0.26414  0.17562  1.0000
  Mg  Mg9       1.0  0.19403  0.15584999999999996  0.87383  1.0000
  Mg  Mg10      1.0  0.91735  0.7042599999999999  0.47462999999999994  1.0000
  Mg  Mg11      1.0  0.01818  0.7360699999999998  0.32412  1.0000
  Mg  Mg12      1.0  0.69518  0.8450000000000001  0.62641  1.0000
  H   H1        1.0  0.7205199999999999  0.71863  0.74944  1.0000
  H   H2        1.0  0.91334  0.52239  0.57814  1.0000
  H   H3        1.0  0.79673  0.48785999999999996  0.78117  1.0000
  H   H4        1.0  0.68634  0.81999  0.87643  1.0000
  H   H5        1.0  0.67835  0.05735  0.0726  1.0000
  H   H6        1.0  0.53879  0.04213999999999999  0.85662  1.0000
  H   H7        1.0  0.21975  0.28195  0.75021  1.0000
  H   H8        1.0  0.41213999999999995  0.47794  0.92162  1.0000
  H   H9        1.0  0.29877  0.51212  0.71797  1.0000
  H   H10       1.0  0.18802  0.17994  0.62511  1.0000
  H   H11       1.0  0.1776  0.9437099999999999  0.42799  1.0000
  H   H12       1.0  0.03658  0.9586999999999999  0.64362  1.0000
  H   H13       1.0  0.27947  0.28137  0.25055  1.0000
  H   H14       1.0  0.08665  0.47759999999999997  0.42185  1.0000
  H   H15       1.0  0.20326  0.5121299999999999  0.21883  1.0000
  H   H16       1.0  0.31365  0.18  0.12357000000000001  1.0000
  H   H17       1.0  0.32163  0.94264  0.9274000000000001  1.0000
  H   H18       1.0  0.4612  0.95786  0.14338  1.0000
  H   H19       1.0  0.78024  0.7180399999999998  0.24978  1.0000
  H   H20       1.0  0.58785  0.52206  0.07838  1.0000
  H   H21       1.0  0.70122  0.4878799999999999  0.28203  1.0000
  H   H22       1.0  0.81197  0.82005  0.37489  1.0000
  H   H23       1.0  0.82239  0.056290000000000055  0.572  1.0000
  H   H24       1.0  0.96341  0.041300000000000024  0.35638  1.0000
  C   C1        1.0  0.8191299999999999  0.6275  0.66033  1.0000
  C   C2        1.0  0.7593900000000001  0.65634  0.72986  1.0000
  C   C3        1.0  0.75178  0.60678  0.7738  1.0000
  C   C4        1.0  0.86782  0.54611  0.63269  1.0000
  C   C5        1.0  0.6922200000000001  0.6398999999999999  0.84881  1.0000
  C   C6        1.0  0.82817  0.6856899999999999  0.618  1.0000
  C   C7        1.0  0.8018199999999999  0.52643  0.74698  1.0000
  C   C8        1.0  0.8575000000000002  0.49512  0.67574  1.0000
  C   C9        1.0  0.9077499999999998  0.40763  0.64842  1.0000
  C   C10       1.0  0.73848  0.8947899999999998  0.0296  1.0000
  C   C11       1.0  0.66418  0.8869799999999997  0.90127  1.0000
  C   C12       1.0  0.6893199999999999  0.9344299999999998  0.97894  1.0000
  C   C13       1.0  0.60986  0.92492  0.85664  1.0000
  C   C14       1.0  0.66064  0.020599999999999993  0.01199  1.0000
  C   C15       1.0  0.5641  0.14852999999999997  0.01047  1.0000
  C   C16       1.0  0.58169  0.011669999999999995  0.89011  1.0000
  C   C17       1.0  0.60538  0.05909  0.96841  1.0000
  C   C18       1.0  0.58045  0.8695999999999997  0.77431  1.0000
  C   C19       1.0  0.31782  0.3729899999999999  0.83944  1.0000
  C   C20       1.0  0.25875  0.34412  0.7697  1.0000
  C   C21       1.0  0.25211  0.39343  0.72551  1.0000
  C   C22       1.0  0.36736  0.4538799999999999  0.86684  1.0000
  C   C23       1.0  0.19235  0.3598  0.65068  1.0000
  C   C24       1.0  0.32442  0.31517  0.88211  1.0000
  C   C25       1.0  0.30283  0.47347999999999996  0.75217  1.0000
  C   C26       1.0  0.3584  0.50454  0.82348  1.0000
  C   C27       1.0  0.40915  0.59177  0.85105  1.0000
  C   C28       1.0  0.23908  0.10502999999999997  0.47087999999999997  1.0000
  C   C29       1.0  0.16562  0.11304000000000004  0.59973  1.0000
  C   C30       1.0  0.1906  0.06568  0.52198  1.0000
  C   C31       1.0  0.1101  0.07513999999999994  0.64385  1.0000
  C   C32       1.0  0.16037  0.9799299999999999  0.48873999999999995  1.0000
  C   C33       1.0  0.06108000000000001  0.85294  0.48967  1.0000
  C   C34       1.0  0.08046  0.9888099999999999  0.61025  1.0000
  C   C35       1.0  0.10399  0.94162  0.53198  1.0000
  C   C36       1.0  0.0805  0.13035000000000005  0.72594  1.0000
  C   C37       1.0  0.18086  0.37249  0.33967  1.0000
  C   C38       1.0  0.2406  0.34365  0.27013  1.0000
  C   C39       1.0  0.24821  0.39321  0.2262  1.0000
  C   C40       1.0  0.13217  0.45387999999999984  0.36731  1.0000
  C   C41       1.0  0.30777  0.36009  0.15119  1.0000
  C   C42       1.0  0.17182  0.3143  0.38199  1.0000
  C   C43       1.0  0.19817  0.47356  0.25301  1.0000
  C   C44       1.0  0.14249  0.50487  0.32426  1.0000
  C   C45       1.0  0.09223999999999999  0.59236  0.35158  1.0000
  C   C46       1.0  0.26151  0.10520999999999991  0.9703899999999999  1.0000
  C   C47       1.0  0.33580999999999994  0.11302000000000001  0.09873  1.0000
  C   C48       1.0  0.31067  0.06556  0.02106  1.0000
  C   C49       1.0  0.39013000000000003  0.07507  0.14335  1.0000
  C   C50       1.0  0.33935  0.97939  0.98801  1.0000
  C   C51       1.0  0.43589  0.85146  0.98953  1.0000
  C   C52       1.0  0.41830000000000006  0.9883200000000001  0.10989  1.0000
  C   C53       1.0  0.39461000000000007  0.9409000000000001  0.03159  1.0000
  C   C54       1.0  0.41953999999999997  0.13039  0.22569  1.0000
  C   C55       1.0  0.68217  0.627  0.16056  1.0000
  C   C56       1.0  0.7412399999999999  0.65587  0.2303  1.0000
  C   C57       1.0  0.7478799999999999  0.60657  0.27448  1.0000
  C   C58       1.0  0.63263  0.54611  0.13316  1.0000
  C   C59       1.0  0.80764  0.6402  0.34932  1.0000
  C   C60       1.0  0.67557  0.68482  0.11789000000000001  1.0000
  C   C61       1.0  0.69716  0.52651  0.24783  1.0000
  C   C62       1.0  0.64159  0.49545  0.17652  1.0000
  C   C63       1.0  0.59083  0.40822  0.14895  1.0000
  C   C64       1.0  0.76091  0.89496  0.52911  1.0000
  C   C65       1.0  0.83437  0.88695  0.40026  1.0000
  C   C66       1.0  0.80939  0.9343199999999999  0.47801999999999994  1.0000
  C   C67       1.0  0.88989  0.92485  0.35614  1.0000
  C   C68       1.0  0.83962  0.02005999999999999  0.51126  1.0000
  C   C69       1.0  0.9389099999999999  0.14705  0.51033  1.0000
  C   C70       1.0  0.91953  0.01117999999999999  0.38974  1.0000
  C   C71       1.0  0.896  0.05836999999999997  0.46801999999999994  1.0000
  C   C72       1.0  0.9194900000000001  0.86964  0.27406  1.0000
  O   O1        1.0  0.62255  0.7037199999999999  0.86195  1.0000
  O   O2        1.0  0.89427  0.6661799999999999  0.56117  1.0000
  O   O3        1.0  0.70651  0.61117  0.90012  1.0000
  O   O4        1.0  0.9540199999999999  0.37721  0.58252  1.0000
  O   O5        1.0  0.76739  0.7532  0.64369  1.0000
  O   O6        1.0  0.9004599999999999  0.36993  0.69593  1.0000
  O   O7        1.0  0.7397  0.81335  0.01069  1.0000
  O   O8        1.0  0.77784  0.9437  0.09561  1.0000
  O   O9        1.0  0.58834  0.18255  0.08247  1.0000
  O   O10       1.0  0.50523  0.18340000000000004  0.97465  1.0000
  O   O11       1.0  0.53325  0.79788  0.76033  1.0000
  O   O12       1.0  0.60573  0.8963400000000001  0.72178  1.0000
  O   O13       1.0  0.12247  0.29643  0.6383  1.0000
  O   O14       1.0  0.38971000000000006  0.33354999999999996  0.9391299999999999  1.0000
  O   O15       1.0  0.20647  0.38794  0.5989  1.0000
  O   O16       1.0  0.45506  0.62233  0.91707  1.0000
  O   O17       1.0  0.26153  0.24893  0.8562  1.0000
  O   O18       1.0  0.40192  0.62922  0.80335  1.0000
  O   O19       1.0  0.24453999999999998  0.18649999999999997  0.49132  1.0000
  O   O20       1.0  0.27352  0.05596000000000001  0.40333  1.0000
  O   O21       1.0  0.08318000000000002  0.82014  0.41736  1.0000
  O   O22       1.0  0.00318  0.81742  0.52541  1.0000
  O   O23       1.0  0.0334  0.20211000000000007  0.73988  1.0000
  O   O24       1.0  0.10578  0.10350000000000001  0.77841  1.0000
  O   O25       1.0  0.37744  0.29628  0.13804  1.0000
  O   O26       1.0  0.10571000000000001  0.33381  0.43883  1.0000
  O   O27       1.0  0.29348  0.38882  0.09988  1.0000
  O   O28       1.0  0.04596999999999999  0.62278  0.41748  1.0000
  O   O29       1.0  0.23260000000000003  0.24679999999999996  0.3563  1.0000
  O   O30       1.0  0.09953  0.63006  0.30406  1.0000
  O   O31       1.0  0.26029  0.18664  0.98931  1.0000
  O   O32       1.0  0.22214999999999996  0.05628999999999998  0.90439  1.0000
  O   O33       1.0  0.41165  0.81744  0.91753  1.0000
  O   O34       1.0  0.49476  0.81659  0.02534  1.0000
  O   O35       1.0  0.46674  0.20211  0.23966999999999997  1.0000
  O   O36       1.0  0.39426  0.10365000000000003  0.27822  1.0000
  O   O37       1.0  0.87752  0.7035699999999999  0.36169  1.0000
  O   O38       1.0  0.61028  0.6664399999999999  0.06085999999999999  1.0000
  O   O39       1.0  0.79352  0.61206  0.4011  1.0000
  O   O40       1.0  0.54493  0.3776599999999999  0.08292  1.0000
  O   O41       1.0  0.73846  0.75107  0.14379  1.0000
  O   O42       1.0  0.59807  0.37078  0.19665  1.0000
  O   O43       1.0  0.75545  0.8135  0.50868  1.0000
  O   O44       1.0  0.72647  0.94403  0.59666  1.0000
  O   O45       1.0  0.91681  0.17985  0.58264  1.0000
  O   O46       1.0  0.99681  0.18256999999999998  0.47458999999999996  1.0000
  O   O47       1.0  0.96659  0.79788  0.26012  1.0000
  O   O48       1.0  0.8942099999999998  0.89649  0.22158  1.0000
