data_image0
_chemical_formula_structural       Mn6H60W4C104N44
_chemical_formula_sum              "Mn6 H60 W4 C104 N44"
_cell_length_a       12.66124
_cell_length_b       13.35043
_cell_length_c       26.60595
_cell_angle_alpha    82.40433000000002
_cell_angle_beta     68.25323
_cell_angle_gamma    61.431599999999996

_symmetry_space_group_name_H-M    'P 1'
_symmetry_Int_Tables_number       1

loop_
  _symmetry_equiv_pos_as_xyz
  'x,y,z'

loop_
  _atom_site_type_symbol
  _atom_site_label
  _atom_site_symmetry_multiplicity
  _atom_site_fract_x
  _atom_site_fract_y
  _atom_site_fract_z
  _atom_site_occupancy
  Mn  Mn1       1.0  0.8142999999999999  0.0004000000000000012  0.21692  1.0000
  Mn  Mn2       1.0  0.8609500000000001  0.94605  0.69294  1.0000
  Mn  Mn3       1.0  0.18723000000000015  0.9934  0.28645  1.0000
  Mn  Mn4       1.0  0.9805000000000005  0.027419999999999976  0.9895999999999998  1.0000
  Mn  Mn5       1.0  0.17510000000000012  0.97498  0.8041499999999998  1.0000
  Mn  Mn6       1.0  0.9862400000000001  0.03327000000000001  0.51386  1.0000
  H   H1        1.0  0.7342500000000001  0.24342999999999998  0.8116  1.0000
  H   H2        1.0  0.6223500000000003  0.33305  0.9341599999999998  1.0000
  H   H3        1.0  0.6689700000000001  0.55474  0.6782899999999998  1.0000
  H   H4        1.0  0.4721700000000001  0.40132000000000007  0.23105  1.0000
  H   H5        1.0  0.9762200000000002  0.53618  0.6865999999999998  1.0000
  H   H6        1.0  0.12620999999999993  0.61371  0.54712  1.0000
  H   H7        1.0  0.09829999999999998  0.52548  0.31903  1.0000
  H   H8        1.0  0.39512000000000014  0.54867  0.31576999999999994  1.0000
  H   H9        1.0  0.7361400000000005  0.27561  0.52303  1.0000
  H   H10       1.0  0.66131  0.23572  0.24063999999999994  1.0000
  H   H11       1.0  0.07314000000000001  0.15863  0.55598  1.0000
  H   H12       1.0  0.4295100000000003  0.95187  0.8202799999999998  1.0000
  H   H13       1.0  0.7675700000000002  0.6149899999999999  0.5297199999999999  1.0000
  H   H14       1.0  0.11136  0.22141  0.26424  1.0000
  H   H15       1.0  0.63853  0.024979999999999995  0.14631  1.0000
  H   H16       1.0  0.6991800000000001  0.47533  0.5222  1.0000
  H   H17       1.0  0.3301400000000001  0.03069999999999999  0.36023999999999995  1.0000
  H   H18       1.0  0.2887100000000001  0.7217299999999999  0.15079  1.0000
  H   H19       1.0  0.4834700000000002  0.49475  0.9416899999999998  1.0000
  H   H20       1.0  0.7474600000000002  0.79601  0.53374  1.0000
  H   H21       1.0  0.76004  0.97387  0.53422  1.0000
  H   H22       1.0  0.0848899999999999  0.78818  0.95244  1.0000
  H   H23       1.0  0.9779100000000001  0.27126  0.9896899999999997  1.0000
  H   H24       1.0  0.92958  0.41088  0.69579  1.0000
  H   H25       1.0  0.009780000000000007  0.03913000000000001  0.6964  1.0000
  H   H26       1.0  0.12722000000000008  0.79597  0.5437599999999999  1.0000
  H   H27       1.0  0.6395500000000003  0.43690000000000007  0.8027799999999998  1.0000
  H   H28       1.0  0.2739300000000001  0.74156  0.81405  1.0000
  H   H29       1.0  0.3806600000000003  0.52871  0.17848999999999995  1.0000
  H   H30       1.0  0.7713500000000001  0.57986  0.8081  1.0000
  H   H31       1.0  0.8202500000000004  0.47135  0.98363  1.0000
  H   H32       1.0  0.8612200000000004  0.74244  0.21603  1.0000
  H   H33       1.0  0.9935699999999998  0.72384  0.33081  1.0000
  H   H34       1.0  0.6566699999999999  0.39390000000000003  0.6690699999999999  1.0000
  H   H35       1.0  0.35938000000000003  0.19268999999999997  0.37548  1.0000
  H   H36       1.0  0.04981999999999997  0.55145  0.20376  1.0000
  H   H37       1.0  0.6025100000000004  0.7558100000000001  0.67278  1.0000
  H   H38       1.0  0.4691800000000001  0.78644  0.95836  1.0000
  H   H39       1.0  0.11099000000000031  0.23708999999999997  0.8287599999999998  1.0000
  H   H40       1.0  0.7791900000000003  0.14547  0.9444099999999999  1.0000
  H   H41       1.0  0.4735599999999999  0.5685  0.80656  1.0000
  H   H42       1.0  0.04753999999999997  0.34835  0.55935  1.0000
  H   H43       1.0  0.6481299999999999  0.91776  0.66663  1.0000
  H   H44       1.0  0.3918200000000001  0.7368600000000001  0.30338  1.0000
  H   H45       1.0  0.6240100000000001  0.6076900000000001  0.9663699999999998  1.0000
  H   H46       1.0  0.1336300000000001  0.3872  0.27421999999999996  1.0000
  H   H47       1.0  0.2739  0.60444  0.94295  1.0000
  H   H48       1.0  0.02622000000000008  0.50621  0.5483  1.0000
  H   H49       1.0  0.006390000000000047  0.90302  0.31821  1.0000
  H   H50       1.0  0.6396900000000003  0.7849100000000001  0.81186  1.0000
  H   H51       1.0  0.353  0.38649000000000006  0.3403899999999999  1.0000
  H   H52       1.0  0.66857  0.20431  0.66431  1.0000
  H   H53       1.0  0.2733800000000002  0.96517  0.9639799999999998  1.0000
  H   H54       1.0  0.4459700000000001  0.18513000000000002  0.13261  1.0000
  H   H55       1.0  0.9342299999999999  0.4253  0.8224199999999999  1.0000
  H   H56       1.0  0.006530000000000068  0.70576  0.6808  1.0000
  H   H57       1.0  0.01662000000000006  0.2182  0.69902  1.0000
  H   H58       1.0  0.9178000000000004  0.06551999999999998  0.81736  1.0000
  H   H59       1.0  0.25352000000000013  0.38634  0.17070999999999995  1.0000
  H   H60       1.0  0.09356000000000005  0.90257  0.16238  1.0000
  W   W1        1.0  0.8110300000000004  0.8498700000000001  0.89786  1.0000
  W   W2        1.0  0.71311  0.15101  0.4003  1.0000
  W   W3        1.0  0.34282000000000007  0.8526800000000001  0.5959899999999999  1.0000
  W   W4        1.0  0.13312000000000002  0.14474  0.10835  1.0000
  C   C1        1.0  0.24929000000000007  0.30691999999999997  0.32603999999999994  1.0000
  C   C2        1.0  0.80333  0.29554  0.53033  1.0000
  C   C3        1.0  0.06360000000000009  0.6275  0.19525999999999993  1.0000
  C   C4        1.0  0.35764999999999997  0.74733  0.8128299999999999  1.0000
  C   C5        1.0  0.3907800000000001  0.67683  0.9505399999999999  1.0000
  C   C6        1.0  0.28812  0.11119999999999998  0.34179999999999994  1.0000
  C   C7        1.0  0.27919000000000005  0.68141  0.94793  1.0000
  C   C8        1.0  0.25163  0.96688  0.08476999999999997  1.0000
  C   C9        1.0  0.8371100000000001  0.91728  0.95928  1.0000
  C   C10       1.0  0.61316  0.22694999999999999  0.2163  1.0000
  C   C11       1.0  0.5105199999999999  0.7911100000000001  0.5256  1.0000
  C   C12       1.0  0.47046000000000043  0.65057  0.8087099999999999  1.0000
  C   C13       1.0  0.8345500000000005  0.32374  0.68643  1.0000
  C   C14       1.0  0.19630000000000009  0.72129  0.16621999999999998  1.0000
  C   C15       1.0  0.09763000000000001  0.27884  0.15854  1.0000
  C   C16       1.0  0.5780099999999999  0.66009  0.8081  1.0000
  C   C17       1.0  0.2756600000000002  0.9129099999999999  0.6781999999999999  1.0000
  C   C18       1.0  0.74157  0.21185999999999994  0.6734199999999999  1.0000
  C   C19       1.0  0.04206  0.69078  0.54443  1.0000
  C   C20       1.0  0.043419999999999896  0.79399  0.54275  1.0000
  C   C21       1.0  0.44361999999999985  0.70637  0.63518  1.0000
  C   C22       1.0  0.8187200000000003  0.35161  0.8137999999999997  1.0000
  C   C23       1.0  0.08519999999999998  0.7214  0.32363  1.0000
  C   C24       1.0  0.18724999999999994  0.61929  0.17894999999999997  1.0000
  C   C25       1.0  0.69186  0.74143  0.6759399999999999  1.0000
  C   C26       1.0  0.8167200000000003  0.24634  0.81389  1.0000
  C   C27       1.0  0.5987199999999999  0.10968  0.16448  1.0000
  C   C28       1.0  0.9190400000000002  0.14599  0.81787  1.0000
  C   C29       1.0  0.9754200000000003  0.33919  0.55032  1.0000
  C   C30       1.0  0.73575  0.31735  0.6760399999999999  1.0000
  C   C31       1.0  0.71687  0.83294  0.6729299999999999  1.0000
  C   C32       1.0  0.7836800000000005  0.63059  0.68145  1.0000
  C   C33       1.0  0.9330500000000002  0.11871000000000001  0.69066  1.0000
  C   C34       1.0  0.9354300000000002  0.68661  0.54124  1.0000
  C   C35       1.0  0.7247099999999999  0.77316  0.96393  1.0000
  C   C36       1.0  0.03207999999999999  0.08835  0.07966  1.0000
  C   C37       1.0  0.08635000000000013  0.82418  0.17241  1.0000
  C   C38       1.0  0.48980000000000007  0.19975999999999997  0.15745  1.0000
  C   C39       1.0  0.30519999999999997  0.20267  0.34971  1.0000
  C   C40       1.0  0.17725999999999997  0.31182  0.29534  1.0000
  C   C41       1.0  0.4739199999999999  0.90173  0.6039  1.0000
  C   C42       1.0  0.71915  0.06276  0.33657999999999993  1.0000
  C   C43       1.0  0.8973800000000002  0.28911  0.97777  1.0000
  C   C44       1.0  0.7768800000000003  0.97402  0.41549  1.0000
  C   C45       1.0  0.7141900000000003  0.45102  0.8065699999999998  1.0000
  C   C46       1.0  0.38759000000000027  0.78176  0.9561199999999997  1.0000
  C   C47       1.0  0.8643000000000004  0.70262  0.85182  1.0000
  C   C48       1.0  0.8727700000000003  0.09198  0.42661  1.0000
  C   C49       1.0  0.09114  0.8233  0.31694999999999995  1.0000
  C   C50       1.0  0.3030100000000002  0.51461  0.17790999999999996  1.0000
  C   C51       1.0  0.8396100000000001  0.89229  0.5366899999999999  1.0000
  C   C52       1.0  0.78765  0.21845000000000003  0.95228  1.0000
  C   C53       1.0  0.24362000000000025  0.91856  0.5391099999999999  1.0000
  C   C54       1.0  0.8865600000000001  0.12236  0.33398  1.0000
  C   C55       1.0  0.87075  0.43244  0.53975  1.0000
  C   C56       1.0  0.7045700000000003  0.42296000000000006  0.9586499999999999  1.0000
  C   C57       1.0  0.75828  0.5357  0.68352  1.0000
  C   C58       1.0  0.9785000000000003  0.8710200000000001  0.8558499999999998  1.0000
  C   C59       1.0  0.9865600000000001  0.1222  0.17407  1.0000
  C   C60       1.0  0.8100100000000002  0.90124  0.81828  1.0000
  C   C61       1.0  0.30563  0.73046  0.30907999999999997  1.0000
  C   C62       1.0  0.69529  0.56409  0.80688  1.0000
  C   C63       1.0  0.8093000000000001  0.40098999999999996  0.97369  1.0000
  C   C64       1.0  0.27651999999999993  0.8834900000000001  0.96  1.0000
  C   C65       1.0  0.3238000000000002  0.40556999999999993  0.17587999999999995  1.0000
  C   C66       1.0  0.60781  0.53989  0.95716  1.0000
  C   C67       1.0  0.64384  0.16664  0.48684999999999995  1.0000
  C   C68       1.0  0.30688000000000015  0.62488  0.31599999999999995  1.0000
  C   C69       1.0  0.4406000000000001  0.30905  0.18069999999999997  1.0000
  C   C70       1.0  0.9399400000000006  0.57539  0.54266  1.0000
  C   C71       1.0  0.17143000000000008  0.7854399999999999  0.95309  1.0000
  C   C72       1.0  0.18478999999999995  0.16058  0.022839999999999996  1.0000
  C   C73       1.0  0.16511999999999996  0.21718  0.28895  1.0000
  C   C74       1.0  0.84265  0.42591  0.68985  1.0000
  C   C75       1.0  0.31206  0.14793  0.08001  1.0000
  C   C76       1.0  0.4444500000000001  0.8658500000000001  0.8155399999999998  1.0000
  C   C77       1.0  0.5061100000000004  0.3208  0.2104  1.0000
  C   C78       1.0  0.97127  0.29515  0.10052  1.0000
  C   C79       1.0  0.8995300000000003  0.61859  0.68316  1.0000
  C   C80       1.0  0.49829  0.56499  0.94861  1.0000
  C   C81       1.0  0.02646999999999996  0.24287  0.8240499999999998  1.0000
  C   C82       1.0  0.9176900000000006  0.7130800000000002  0.6800999999999999  1.0000
  C   C83       1.0  0.9909  0.22993  0.54875  1.0000
  C   C84       1.0  0.56173  0.77225  0.8109999999999999  1.0000
  C   C85       1.0  0.9713900000000001  0.71007  0.9150299999999999  1.0000
  C   C86       1.0  0.34339999999999987  0.70979  0.56604  1.0000
  C   C87       1.0  0.8530400000000001  0.54928  0.53751  1.0000
  C   C88       1.0  0.9277699999999999  0.34738  0.8203799999999998  1.0000
  C   C89       1.0  0.9351600000000001  0.2201  0.6931199999999998  1.0000
  C   C90       1.0  0.6974400000000005  0.32685  0.94694  1.0000
  C   C91       1.0  0.6195300000000002  0.28147  0.3522699999999999  1.0000
  C   C92       1.0  0.16150000000000003  0.8557500000000001  0.6386599999999999  1.0000
  C   C93       1.0  0.6225400000000002  0.8997999999999999  0.8999299999999998  1.0000
  C   C94       1.0  0.21627000000000005  0.05697999999999999  0.16900999999999997  1.0000
  C   C95       1.0  0.19489  0.61768  0.32219999999999993  1.0000
  C   C96       1.0  0.1854900000000001  0.51248  0.32418  1.0000
  C   C97       1.0  0.2530300000000001  0.034439999999999985  0.5978999999999999  1.0000
  C   C98       1.0  0.95753  0.73428  0.20167  1.0000
  C   C99       1.0  0.26837000000000016  0.40455  0.33128999999999986  1.0000
  C   C100      1.0  0.7139699999999999  0.032120000000000024  0.90067  1.0000
  C   C101      1.0  0.7174400000000001  0.30137  0.41517  1.0000
  C   C102      1.0  0.5258000000000002  0.16501999999999997  0.4280099999999999  1.0000
  C   C103      1.0  0.8326600000000001  0.79133  0.5371999999999999  1.0000
  C   C104      1.0  0.78243  0.40781  0.53071  1.0000
  N   N1        1.0  0.8957700000000004  0.6224  0.82537  1.0000
  N   N2        1.0  0.2202400000000001  0.11641  0.3113  1.0000
  N   N3        1.0  0.33265000000000006  0.636  0.55241  1.0000
  N   N4        1.0  0.4113800000000001  0.14865  0.06584  1.0000
  N   N5        1.0  0.9786600000000001  0.05624  0.06300999999999998  1.0000
  N   N6        1.0  0.7266000000000002  0.3812  0.4228699999999999  1.0000
  N   N7        1.0  0.49789  0.62724  0.65754  1.0000
  N   N8        1.0  0.05857999999999993  0.86287  0.66107  1.0000
  N   N9        1.0  0.2023900000000001  0.16458999999999996  0.9761599999999999  1.0000
  N   N10       1.0  0.5667900000000002  0.35045  0.32569  1.0000
  N   N11       1.0  0.6631499999999999  0.13212  0.89877  1.0000
  N   N12       1.0  0.9110200000000004  0.09434  0.20394999999999996  1.0000
  N   N13       1.0  0.99198  0.09153  0.30273999999999995  1.0000
  N   N14       1.0  0.81298  0.9323  0.7745999999999998  1.0000
  N   N15       1.0  0.5193400000000004  0.93324  0.8985599999999998  1.0000
  N   N16       1.0  0.65991  0.12143999999999999  0.19408  1.0000
  N   N17       1.0  0.9664700000000004  0.8332500000000002  0.19151  1.0000
  N   N18       1.0  0.94377  0.89515  0.5390299999999999  1.0000
  N   N19       1.0  0.6089099999999998  0.74946  0.4891199999999999  1.0000
  N   N20       1.0  0.20014000000000026  0.83  0.30854  1.0000
  N   N21       1.0  0.025180000000000025  0.14152  0.82191  1.0000
  N   N22       1.0  0.8867300000000002  0.1975  0.9679299999999997  1.0000
  N   N23       1.0  0.16785000000000003  0.88658  0.95958  1.0000
  N   N24       1.0  0.20062000000000008  0.13494  0.6021699999999999  1.0000
  N   N25       1.0  0.31124  0.8674400000000001  0.07532  1.0000
  N   N26       1.0  0.42310000000000014  0.17141  0.44137999999999994  1.0000
  N   N27       1.0  0.25172000000000005  0.008080000000000004  0.20444  1.0000
  N   N28       1.0  0.8273800000000001  0.82025  0.67544  1.0000
  N   N29       1.0  0.06609000000000008  0.89028  0.83526  1.0000
  N   N30       1.0  0.82162  0.87458  0.41982  1.0000
  N   N31       1.0  0.8795500000000002  0.37438000000000005  0.09563  1.0000
  N   N32       1.0  0.8383800000000001  0.11221000000000002  0.6810799999999999  1.0000
  N   N33       1.0  0.62105  0.17002  0.53385  1.0000
  N   N34       1.0  0.5387000000000001  0.93483  0.61069  1.0000
  N   N35       1.0  0.06351000000000016  0.6369  0.9223099999999997  1.0000
  N   N36       1.0  0.8693100000000004  0.9573400000000001  0.9840699999999998  1.0000
  N   N37       1.0  0.6798199999999999  0.7235000000000001  0.9974  1.0000
  N   N38       1.0  0.9602100000000005  0.05731  0.44158  1.0000
  N   N39       1.0  0.90782  0.20598  0.53822  1.0000
  N   N40       1.0  0.08282000000000007  0.35053999999999996  0.18571  1.0000
  N   N41       1.0  0.17079999999999998  0.9585100000000001  0.51573  1.0000
  N   N42       1.0  0.3425300000000001  0.8549100000000001  0.8163899999999998  1.0000
  N   N43       1.0  0.23252000000000006  0.94971  0.72305  1.0000
  N   N44       1.0  0.7330300000000001  0.01367  0.2991  1.0000
