data_image0
_chemical_formula_structural       La4H44C84O24
_chemical_formula_sum              "La4 H44 C84 O24"
_cell_length_a       13.49645
_cell_length_b       14.49788
_cell_length_c       17.94456
_cell_angle_alpha    98.65955999999998
_cell_angle_beta     111.76537999999998
_cell_angle_gamma    90.06052999999999

_symmetry_space_group_name_H-M    'P 1'
_symmetry_Int_Tables_number       1

loop_
  _symmetry_equiv_pos_as_xyz
  'x,y,z'

loop_
  _atom_site_type_symbol
  _atom_site_label
  _atom_site_symmetry_multiplicity
  _atom_site_fract_x
  _atom_site_fract_y
  _atom_site_fract_z
  _atom_site_occupancy
  La  La1       1.0  0.51066  0.034590000000000024  0.61363  1.0000
  La  La2       1.0  0.8981699999999999  0.46322  0.38598  1.0000
  La  La3       1.0  0.48934  0.96541  0.38637  1.0000
  La  La4       1.0  0.10182999999999999  0.53678  0.61402  1.0000
  H   H1        1.0  0.78475  0.19623  0.4572  1.0000
  H   H2        1.0  0.03686000000000002  0.29542  0.68668  1.0000
  H   H3        1.0  0.80973  0.07431  0.66743  1.0000
  H   H4        1.0  0.14784  0.21452999999999997  0.7704  1.0000
  H   H5        1.0  0.25509  0.18550000000000005  0.90705  1.0000
  H   H6        1.0  0.9693099999999999  0.09157000000000003  0.93474  1.0000
  H   H7        1.0  0.86144  0.12423999999999998  0.79933  1.0000
  H   H8        1.0  0.32776000000000005  0.08564000000000004  0.9816300000000001  1.0000
  H   H9        1.0  0.4321900000000001  0.02543  0.1088  1.0000
  H   H10       1.0  0.1655  0.05294  0.18406  1.0000
  H   H11       1.0  0.06273  0.11978000000000003  0.0607  1.0000
  H   H12       1.0  0.32578  0.30366000000000004  0.54382  1.0000
  H   H13       1.0  0.3517  0.2035200000000001  0.31442  1.0000
  H   H14       1.0  0.14341  0.4242  0.33301  1.0000
  H   H15       1.0  0.37759  0.28369  0.22822000000000006  1.0000
  H   H16       1.0  0.348  0.31314000000000003  0.09130000000000003  1.0000
  H   H17       1.0  0.03581  0.40647  0.06642  1.0000
  H   H18       1.0  0.06338  0.3735400000000001  0.20189  1.0000
  H   H19       1.0  0.34619  0.41383  0.01667  1.0000
  H   H20       1.0  0.3229  0.4765800000000001  0.89017  1.0000
  H   H21       1.0  0.98241  0.44852  0.81778  1.0000
  H   H22       1.0  0.0035500000000000076  0.3790100000000001  0.94038  1.0000
  H   H23       1.0  0.21525  0.80377  0.54279  1.0000
  H   H24       1.0  0.96314  0.7045900000000003  0.31332  1.0000
  H   H25       1.0  0.19027  0.92569  0.33257  1.0000
  H   H26       1.0  0.85216  0.7854700000000002  0.22960000000000005  1.0000
  H   H27       1.0  0.74491  0.81451  0.09295  1.0000
  H   H28       1.0  0.03069  0.9084300000000002  0.06525  1.0000
  H   H29       1.0  0.13856000000000002  0.8757600000000002  0.20067000000000002  1.0000
  H   H30       1.0  0.67224  0.9143600000000002  0.01837  1.0000
  H   H31       1.0  0.5678099999999999  0.9745800000000001  0.8912  1.0000
  H   H32       1.0  0.8345  0.9470600000000002  0.81593  1.0000
  H   H33       1.0  0.9372700000000002  0.8802199999999999  0.9393  1.0000
  H   H34       1.0  0.6742199999999999  0.6963400000000002  0.45618  1.0000
  H   H35       1.0  0.6483  0.79648  0.68558  1.0000
  H   H36       1.0  0.8565900000000001  0.5758  0.66699  1.0000
  H   H37       1.0  0.62241  0.7163200000000004  0.77178  1.0000
  H   H38       1.0  0.652  0.6868600000000002  0.9087  1.0000
  H   H39       1.0  0.96419  0.59353  0.93358  1.0000
  H   H40       1.0  0.93662  0.62646  0.79811  1.0000
  H   H41       1.0  0.65381  0.58617  0.9833300000000001  1.0000
  H   H42       1.0  0.6771  0.52342  0.10983  1.0000
  H   H43       1.0  0.017589999999999998  0.55148  0.18221  1.0000
  H   H44       1.0  0.99645  0.6209900000000002  0.05962000000000001  1.0000
  C   C1        1.0  0.69149  0.06758  0.50678  1.0000
  C   C2        1.0  0.7874  0.12992  0.55809  1.0000
  C   C3        1.0  0.82514  0.19316  0.52152  1.0000
  C   C4        1.0  0.91418  0.25354  0.56906  1.0000
  C   C5        1.0  0.96783  0.2474  0.65145  1.0000
  C   C6        1.0  0.9334400000000003  0.18188000000000001  0.6883000000000002  1.0000
  C   C7        1.0  0.84012  0.12496  0.64086  1.0000
  C   C8        1.0  0.9519300000000002  0.32630000000000003  0.53355  1.0000
  C   C9        1.0  0.99613  0.1707600000000001  0.7733700000000002  1.0000
  C   C10       1.0  0.10786999999999994  0.18876  0.80654  1.0000
  C   C11       1.0  0.1689700000000001  0.17102  0.88392  1.0000
  C   C12       1.0  0.12145999999999997  0.13424  0.93187  1.0000
  C   C13       1.0  0.009219999999999999  0.12021000000000005  0.89986  1.0000
  C   C14       1.0  0.94781  0.13793  0.82244  1.0000
  C   C15       1.0  0.18602  0.10529  0.01019  1.0000
  C   C16       1.0  0.29220000000000007  0.08035  0.026310000000000007  1.0000
  C   C17       1.0  0.3508200000000001  0.04561000000000001  0.09689000000000003  1.0000
  C   C18       1.0  0.30448  0.03314  0.15322  1.0000
  C   C19       1.0  0.20016999999999996  0.06064000000000001  0.1393  1.0000
  C   C20       1.0  0.14248  0.097  0.06939  1.0000
  C   C21       1.0  0.36398  0.9898100000000002  0.22557  1.0000
  C   C22       1.0  0.18353000000000003  0.43169000000000013  0.49349000000000004  1.0000
  C   C23       1.0  0.22896  0.36899000000000004  0.44255  1.0000
  C   C24       1.0  0.303  0.3061800000000001  0.4794  1.0000
  C   C25       1.0  0.34580000000000005  0.24614000000000008  0.4322000000000001  1.0000
  C   C26       1.0  0.31745  0.2516100000000001  0.34951  1.0000
  C   C27       1.0  0.24593  0.3163400000000001  0.3122  1.0000
  C   C28       1.0  0.19975  0.3735  0.35965  1.0000
  C   C29       1.0  0.42049  0.17486  0.4684  1.0000
  C   C30       1.0  0.22352  0.32707  0.22677  1.0000
  C   C31       1.0  0.30165  0.30931  0.19269  1.0000
  C   C32       1.0  0.28532  0.32729  0.11513  1.0000
  C   C33       1.0  0.19024  0.36409  0.06784  1.0000
  C   C34       1.0  0.11037  0.37778  0.10068  1.0000
  C   C35       1.0  0.12642000000000006  0.35982000000000003  0.17825  1.0000
  C   C36       1.0  0.17657999999999996  0.39384  0.98958  1.0000
  C   C37       1.0  0.2661200000000001  0.4195000000000001  0.9728000000000002  1.0000
  C   C38       1.0  0.2539300000000001  0.4556300000000001  0.90261  1.0000
  C   C39       1.0  0.15155  0.46887  0.84745  1.0000
  C   C40       1.0  0.06165  0.44038999999999995  0.86179  1.0000
  C   C41       1.0  0.07412000000000014  0.40253  0.9312300000000002  1.0000
  C   C42       1.0  0.13893999999999998  0.51309  0.77548  1.0000
  C   C43       1.0  0.30851  0.93242  0.49322  1.0000
  C   C44       1.0  0.2126  0.87008  0.4419  1.0000
  C   C45       1.0  0.17486  0.80684  0.47848  1.0000
  C   C46       1.0  0.08582  0.7464600000000002  0.43094  1.0000
  C   C47       1.0  0.03218000000000001  0.7526000000000003  0.34855  1.0000
  C   C48       1.0  0.06656000000000002  0.81812  0.3117  1.0000
  C   C49       1.0  0.15988  0.8750500000000001  0.35914  1.0000
  C   C50       1.0  0.04807999999999997  0.6737000000000002  0.46645  1.0000
  C   C51       1.0  0.003869999999999994  0.82924  0.22662  1.0000
  C   C52       1.0  0.89213  0.81124  0.19346  1.0000
  C   C53       1.0  0.83103  0.82899  0.11608  1.0000
  C   C54       1.0  0.8785400000000001  0.86576  0.06813  1.0000
  C   C55       1.0  0.99078  0.8797900000000001  0.10014000000000003  1.0000
  C   C56       1.0  0.05219000000000001  0.86207  0.17756  1.0000
  C   C57       1.0  0.81398  0.89471  0.98981  1.0000
  C   C58       1.0  0.7078  0.9196500000000001  0.97369  1.0000
  C   C59       1.0  0.6491800000000001  0.9543900000000002  0.9031100000000002  1.0000
  C   C60       1.0  0.6955200000000002  0.9668600000000004  0.8467800000000002  1.0000
  C   C61       1.0  0.79983  0.93936  0.8607  1.0000
  C   C62       1.0  0.85752  0.9030100000000001  0.93061  1.0000
  C   C63       1.0  0.63602  0.010190000000000048  0.7744300000000002  1.0000
  C   C64       1.0  0.81648  0.56832  0.50651  1.0000
  C   C65       1.0  0.77104  0.63102  0.55745  1.0000
  C   C66       1.0  0.697  0.6938200000000002  0.5206  1.0000
  C   C67       1.0  0.6542  0.7538600000000003  0.5678000000000002  1.0000
  C   C68       1.0  0.68256  0.74839  0.6504900000000002  1.0000
  C   C69       1.0  0.75407  0.6836600000000002  0.6878  1.0000
  C   C70       1.0  0.80025  0.6265  0.6403500000000002  1.0000
  C   C71       1.0  0.5795099999999997  0.82514  0.5316  1.0000
  C   C72       1.0  0.77648  0.67293  0.77323  1.0000
  C   C73       1.0  0.69835  0.69069  0.80731  1.0000
  C   C74       1.0  0.71468  0.6727100000000003  0.88487  1.0000
  C   C75       1.0  0.80976  0.63591  0.93216  1.0000
  C   C76       1.0  0.8896400000000001  0.6222200000000001  0.89932  1.0000
  C   C77       1.0  0.87358  0.64018  0.82175  1.0000
  C   C78       1.0  0.82342  0.6061600000000001  0.010420000000000004  1.0000
  C   C79       1.0  0.73388  0.5805  0.0272  1.0000
  C   C80       1.0  0.74607  0.54437  0.09739  1.0000
  C   C81       1.0  0.84846  0.53113  0.15255  1.0000
  C   C82       1.0  0.9383500000000002  0.5596100000000003  0.13821000000000003  1.0000
  C   C83       1.0  0.92588  0.59747  0.06877  1.0000
  C   C84       1.0  0.8610700000000001  0.4869100000000001  0.22452000000000005  1.0000
  O   O1        1.0  0.63076  0.036650000000000044  0.5403300000000002  1.0000
  O   O2        1.0  0.66948  0.04634000000000003  0.4307900000000001  1.0000
  O   O3        1.0  0.9004099999999999  0.3336  0.45884  1.0000
  O   O4        1.0  0.034379999999999994  0.3785000000000001  0.58077  1.0000
  O   O5        1.0  0.46426  0.9765900000000002  0.24436000000000002  1.0000
  O   O6        1.0  0.3154  0.9677100000000001  0.27076  1.0000
  O   O7        1.0  0.09027000000000003  0.46308999999999995  0.45957  1.0000
  O   O8        1.0  0.23584  0.45324999999999993  0.56955  1.0000
  O   O9        1.0  0.44128  0.16645  0.54273  1.0000
  O   O10       1.0  0.45948000000000006  0.1249  0.42213  1.0000
  O   O11       1.0  0.21985000000000005  0.52442  0.75528  1.0000
  O   O12       1.0  0.04609  0.53739  0.73187  1.0000
  O   O13       1.0  0.36924000000000007  0.9633500000000003  0.45967000000000013  1.0000
  O   O14       1.0  0.3305199999999999  0.9536700000000002  0.5692  1.0000
  O   O15       1.0  0.09959  0.6664000000000004  0.54116  1.0000
  O   O16       1.0  0.96562  0.6215000000000003  0.41923  1.0000
  O   O17       1.0  0.5357400000000002  0.023410000000000025  0.75564  1.0000
  O   O18       1.0  0.6846  0.03229  0.72924  1.0000
  O   O19       1.0  0.90973  0.53691  0.54043  1.0000
  O   O20       1.0  0.7641600000000001  0.54675  0.43045  1.0000
  O   O21       1.0  0.5587199999999998  0.8335500000000002  0.45727  1.0000
  O   O22       1.0  0.54053  0.8751  0.57787  1.0000
  O   O23       1.0  0.7801500000000001  0.47558  0.24472000000000002  1.0000
  O   O24       1.0  0.9539099999999999  0.46261  0.26813  1.0000
