data_image0
_chemical_formula_structural       Ni6H64C88N12O32
_chemical_formula_sum              "Ni6 H64 C88 N12 O32"
_cell_length_a       12.441
_cell_length_b       12.40571
_cell_length_c       18.09927
_cell_angle_alpha    92.79589
_cell_angle_beta     92.9263
_cell_angle_gamma    106.76804

_symmetry_space_group_name_H-M    'P 1'
_symmetry_Int_Tables_number       1

loop_
  _symmetry_equiv_pos_as_xyz
  'x,y,z'

loop_
  _atom_site_type_symbol
  _atom_site_label
  _atom_site_symmetry_multiplicity
  _atom_site_fract_x
  _atom_site_fract_y
  _atom_site_fract_z
  _atom_site_occupancy
  Ni  Ni1       1.0  0.71674  0.76983  0.29455  1.0000
  Ni  Ni2       1.0  0.22988999999999998  0.27809000000000006  0.20646  1.0000
  Ni  Ni3       1.0  0.28249  0.23021000000000003  0.70545  1.0000
  Ni  Ni4       1.0  0.7701  0.7170400000000001  0.79417  1.0000
  Ni  Ni5       1.0  0.99807  0.99873  0.5009  1.0000
  Ni  Ni6       1.0  0.0009399999999999757  0.9974500000000001  0.9995299999999999  1.0000
  H   H1        1.0  0.52347  0.4509400000000001  0.32047  1.0000
  H   H2        1.0  0.293  0.53413  0.46391  1.0000
  H   H3        1.0  0.64411  0.71678  0.49562999999999996  1.0000
  H   H4        1.0  0.78724  0.65359  0.49481  1.0000
  H   H5        1.0  0.87927  0.6398000000000003  0.4266  1.0000
  H   H6        1.0  0.7735  0.4707500000000001  0.3456  1.0000
  H   H7        1.0  0.67069  0.50323  0.28587  1.0000
  H   H8        1.0  0.48036  0.67074  0.28274  1.0000
  H   H9        1.0  0.69307  0.9796  0.36614  1.0000
  H   H10       1.0  0.31252  0.71471  0.33024  1.0000
  H   H11       1.0  0.53121  0.04184000000000001  0.41047  1.0000
  H   H12       1.0  0.25469  0.76067  0.46558000000000005  1.0000
  H   H13       1.0  0.33558000000000004  0.06708  0.3493  1.0000
  H   H14       1.0  0.09070999999999999  0.81377  0.51259  1.0000
  H   H15       1.0  0.17157999999999998  0.11149  0.40337  1.0000
  H   H16       1.0  0.3461699999999999  0.72924  0.61227  1.0000
  H   H17       1.0  0.54697  0.47411  0.17996  1.0000
  H   H18       1.0  0.46576000000000006  0.7065400000000002  0.03617  1.0000
  H   H19       1.0  0.28182  0.3551000000000001  0.00447  1.0000
  H   H20       1.0  0.34421  0.21235  0.00515  1.0000
  H   H21       1.0  0.3598  0.11875000000000002  0.07214  1.0000
  H   H22       1.0  0.52687  0.22325000000000003  0.15397  1.0000
  H   H23       1.0  0.49529  0.32592  0.21439  1.0000
  H   H24       1.0  0.32854  0.51476  0.21844  1.0000
  H   H25       1.0  0.02012000000000003  0.30150000000000005  0.13529  1.0000
  H   H26       1.0  0.28428999999999993  0.6831  0.17085  1.0000
  H   H27       1.0  0.95795  0.4637800000000001  0.09081  1.0000
  H   H28       1.0  0.23915999999999998  0.7416000000000001  0.03658  1.0000
  H   H29       1.0  0.93222  0.65881  0.15108  1.0000
  H   H30       1.0  0.18553000000000008  0.9052200000000002  0.9884600000000001  1.0000
  H   H31       1.0  0.88758  0.82302  0.09641  1.0000
  H   H32       1.0  0.27038000000000006  0.6545000000000001  0.88798  1.0000
  H   H33       1.0  0.47493  0.5477600000000001  0.67931  1.0000
  H   H34       1.0  0.70597  0.46518  0.53582  1.0000
  H   H35       1.0  0.35525  0.28046  0.50515  1.0000
  H   H36       1.0  0.21144999999999997  0.34530000000000005  0.5048  1.0000
  H   H37       1.0  0.11935000000000001  0.35981  0.57266  1.0000
  H   H38       1.0  0.22527  0.52832  0.65458  1.0000
  H   H39       1.0  0.32777  0.49486000000000013  0.71416  1.0000
  H   H40       1.0  0.5183  0.32863  0.71764  1.0000
  H   H41       1.0  0.30429  0.020760000000000004  0.63357  1.0000
  H   H42       1.0  0.68596  0.28339  0.67052  1.0000
  H   H43       1.0  0.46556  0.95766  0.58914  1.0000
  H   H44       1.0  0.7430999999999999  0.23772  0.53516  1.0000
  H   H45       1.0  0.66057  0.93145  0.65157  1.0000
  H   H46       1.0  0.90688  0.18383000000000005  0.48848  1.0000
  H   H47       1.0  0.82451  0.8861200000000001  0.59794  1.0000
  H   H48       1.0  0.65315  0.26807  0.38873  1.0000
  H   H49       1.0  0.45189  0.52521  0.82064  1.0000
  H   H50       1.0  0.53168  0.29128  0.9637499999999999  1.0000
  H   H51       1.0  0.71779  0.6422400000000001  0.99578  1.0000
  H   H52       1.0  0.65612  0.7860600000000001  0.99519  1.0000
  H   H53       1.0  0.64233  0.8797200000000001  0.92773  1.0000
  H   H54       1.0  0.47268  0.77281  0.8444  1.0000
  H   H55       1.0  0.50958  0.67278  0.78437  1.0000
  H   H56       1.0  0.67058  0.47990000000000005  0.78283  1.0000
  H   H57       1.0  0.97909  0.69321  0.86551  1.0000
  H   H58       1.0  0.71527  0.31139  0.82992  1.0000
  H   H59       1.0  0.041779999999999984  0.53103  0.90963  1.0000
  H   H60       1.0  0.762  0.25297  0.9646799999999999  1.0000
  H   H61       1.0  0.06784  0.33709  0.84883  1.0000
  H   H62       1.0  0.81651  0.08909  0.01165  1.0000
  H   H63       1.0  0.11347  0.17282  0.90269  1.0000
  H   H64       1.0  0.7249599999999999  0.33987  0.11162  1.0000
  C   C1        1.0  0.60245  0.58712  0.40408  1.0000
  C   C2        1.0  0.51096  0.50502  0.36606  1.0000
  C   C3        1.0  0.4010099999999999  0.48624999999999996  0.38768  1.0000
  C   C4        1.0  0.37827  0.55085  0.44681000000000004  1.0000
  C   C5        1.0  0.46807  0.63398  0.48416  1.0000
  C   C6        1.0  0.5782700000000001  0.65253  0.46324  1.0000
  C   C7        1.0  0.30585  0.39295  0.34927  1.0000
  C   C8        1.0  0.45307  0.70133  0.55014  1.0000
  C   C9        1.0  0.8052299999999999  0.66859  0.43649  1.0000
  C   C10       1.0  0.84415  0.79736  0.4317  1.0000
  C   C11       1.0  0.74418  0.53975  0.32471  1.0000
  C   C12       1.0  0.8357000000000001  0.61039  0.27796  1.0000
  C   C13       1.0  0.48756  0.75112  0.31203  1.0000
  C   C14       1.0  0.60697  0.92529  0.35777  1.0000
  C   C15       1.0  0.39488  0.7768800000000001  0.33874  1.0000
  C   C16       1.0  0.5169700000000002  0.9582100000000001  0.38338  1.0000
  C   C17       1.0  0.4080000000000001  0.8826900000000002  0.37507  1.0000
  C   C18       1.0  0.31016  0.91139  0.40427  1.0000
  C   C19       1.0  0.23874000000000015  0.8385200000000005  0.44989  1.0000
  C   C20       1.0  0.28523  0.010740000000000003  0.38696  1.0000
  C   C21       1.0  0.14811000000000005  0.8677500000000001  0.47722  1.0000
  C   C22       1.0  0.19276  0.03483  0.41595  1.0000
  C   C23       1.0  0.41123  0.39574  0.09619  1.0000
  C   C24       1.0  0.49342  0.48718  0.13423  1.0000
  C   C25       1.0  0.513  0.5976000000000001  0.11253000000000002  1.0000
  C   C26       1.0  0.44879  0.62097  0.05336  1.0000
  C   C27       1.0  0.36535  0.53128  0.01607  1.0000
  C   C28       1.0  0.34623  0.4206100000000001  0.037  1.0000
  C   C29       1.0  0.60669  0.69221  0.15122  1.0000
  C   C30       1.0  0.29819  0.5469199999999999  0.9500699999999999  1.0000
  C   C31       1.0  0.32996  0.19265000000000004  0.0633  1.0000
  C   C32       1.0  0.2018  0.15182  0.06845  1.0000
  C   C33       1.0  0.45843999999999996  0.25271  0.17526  1.0000
  C   C34       1.0  0.38898  0.16001  0.2219  1.0000
  C   C35       1.0  0.24823  0.50759  0.18927  1.0000
  C   C36       1.0  0.07426000000000002  0.38783000000000006  0.14372  1.0000
  C   C37       1.0  0.22237  0.60049  0.16256  1.0000
  C   C38       1.0  0.041319999999999996  0.47807  0.11808  1.0000
  C   C39       1.0  0.11673  0.58724  0.12628  1.0000
  C   C40       1.0  0.08803000000000008  0.6851400000000002  0.09684  1.0000
  C   C41       1.0  0.16108000000000003  0.7570700000000001  0.05161  1.0000
  C   C42       1.0  0.9884499999999999  0.7094500000000002  0.11345000000000001  1.0000
  C   C43       1.0  0.13168  0.84758  0.02379  1.0000
  C   C44       1.0  0.9643299999999999  0.8020900000000001  0.08425  1.0000
  C   C45       1.0  0.39623  0.41169000000000006  0.59574  1.0000
  C   C46       1.0  0.4877000000000001  0.4938900000000001  0.6337  1.0000
  C   C47       1.0  0.5977400000000002  0.5131200000000001  0.61205  1.0000
  C   C48       1.0  0.6207  0.44849  0.553  1.0000
  C   C49       1.0  0.5309900000000001  0.3644900000000001  0.51611  1.0000
  C   C50       1.0  0.4207600000000001  0.34575  0.53703  1.0000
  C   C51       1.0  0.69236  0.60678  0.65078  1.0000
  C   C52       1.0  0.54645  0.29493  0.45135  1.0000
  C   C53       1.0  0.19319  0.3305100000000001  0.56311  1.0000
  C   C54       1.0  0.15367000000000003  0.20180000000000006  0.56828  1.0000
  C   C55       1.0  0.25445  0.45904  0.67509  1.0000
  C   C56       1.0  0.16280000000000003  0.3889100000000001  0.7219  1.0000
  C   C57       1.0  0.51095  0.24816000000000002  0.68846  1.0000
  C   C58       1.0  0.39064  0.07438  0.64235  1.0000
  C   C59       1.0  0.60331  0.22183  0.66189  1.0000
  C   C60       1.0  0.48032  0.04101000000000001  0.61677  1.0000
  C   C61       1.0  0.58944  0.11605000000000001  0.6254  1.0000
  C   C62       1.0  0.6869100000000001  0.08693000000000001  0.5963  1.0000
  C   C63       1.0  0.75867  0.15970000000000004  0.55084  1.0000
  C   C64       1.0  0.7111600000000001  0.98738  0.6138  1.0000
  C   C65       1.0  0.8491600000000001  0.13005  0.52377  1.0000
  C   C66       1.0  0.80363  0.96289  0.58519  1.0000
  C   C67       1.0  0.58806  0.60236  0.90437  1.0000
  C   C68       1.0  0.50535  0.5116  0.86625  1.0000
  C   C69       1.0  0.48552  0.4011600000000001  0.88774  1.0000
  C   C70       1.0  0.54931  0.37703000000000003  0.9468100000000002  1.0000
  C   C71       1.0  0.63302  0.4661700000000001  0.98431  1.0000
  C   C72       1.0  0.65288  0.57695  0.9634800000000001  1.0000
  C   C73       1.0  0.39238  0.3068  0.8488  1.0000
  C   C74       1.0  0.69976  0.44909000000000004  0.05003  1.0000
  C   C75       1.0  0.67072  0.8050600000000001  0.93696  1.0000
  C   C76       1.0  0.7988399999999999  0.8438200000000002  0.93174  1.0000
  C   C77       1.0  0.54314  0.74543  0.82443  1.0000
  C   C78       1.0  0.61423  0.83962  0.77944  1.0000
  C   C79       1.0  0.75103  0.48702  0.81177  1.0000
  C   C80       1.0  0.9250800000000003  0.6068600000000001  0.85707  1.0000
  C   C81       1.0  0.77711  0.39407  0.83827  1.0000
  C   C82       1.0  0.95829  0.51669  0.88251  1.0000
  C   C83       1.0  0.88296  0.40748  0.87433  1.0000
  C   C84       1.0  0.91228  0.30979000000000007  0.9035600000000001  1.0000
  C   C85       1.0  0.8399399999999999  0.23766  0.94907  1.0000
  C   C86       1.0  0.0119  0.28593  0.88641  1.0000
  C   C87       1.0  0.86991  0.14711000000000002  0.9763400000000001  1.0000
  C   C88       1.0  0.036660000000000026  0.19333000000000006  0.91523  1.0000
  N   N1        1.0  0.5933499999999998  0.82308  0.32191  1.0000
  N   N2        1.0  0.71315  0.60472  0.38511  1.0000
  N   N3        1.0  0.12515000000000007  0.9647500000000002  0.46088000000000007  1.0000
  N   N4        1.0  0.17637  0.4015500000000001  0.1795  1.0000
  N   N5        1.0  0.39300999999999997  0.28450000000000003  0.11526  1.0000
  N   N6        1.0  0.03458000000000005  0.8701300000000002  0.03961  1.0000
  N   N7        1.0  0.4050500000000001  0.17658000000000004  0.6784  1.0000
  N   N8        1.0  0.2853900000000001  0.39418  0.61457  1.0000
  N   N9        1.0  0.8715800000000002  0.03291  0.54041  1.0000
  N   N10       1.0  0.8228400000000002  0.5930500000000001  0.82145  1.0000
  N   N11       1.0  0.6068900000000002  0.7135  0.88526  1.0000
  N   N12       1.0  0.96691  0.12484000000000003  0.9599000000000001  1.0000
  O   O1        1.0  0.8366499999999999  0.71424  0.26715  1.0000
  O   O2        1.0  0.9040600000000001  0.56581  0.25197  1.0000
  O   O3        1.0  0.81001  0.8507800000000001  0.38201  1.0000
  O   O4        1.0  0.91599  0.8450000000000001  0.4856500000000001  1.0000
  O   O5        1.0  0.32795  0.37043  0.28105  1.0000
  O   O6        1.0  0.21955999999999998  0.34855  0.38096  1.0000
  O   O7        1.0  0.34242  0.6822700000000003  0.56663  1.0000
  O   O8        1.0  0.52898  0.76781  0.58904  1.0000
  O   O9        1.0  0.28515  0.15765000000000004  0.23285  1.0000
  O   O10       1.0  0.43461  0.09226  0.24786999999999998  1.0000
  O   O11       1.0  0.14861  0.18505  0.11844000000000002  1.0000
  O   O12       1.0  0.15442  0.07962  0.014549999999999999  1.0000
  O   O13       1.0  0.6237799999999999  0.6719  0.22069  1.0000
  O   O14       1.0  0.65601  0.77646  0.1189  1.0000
  O   O15       1.0  0.31769  0.65797  0.93345  1.0000
  O   O16       1.0  0.23148000000000002  0.47109000000000006  0.91119  1.0000
  O   O17       1.0  0.16145  0.28501000000000004  0.73273  1.0000
  O   O18       1.0  0.09523000000000001  0.4342500000000001  0.74812  1.0000
  O   O19       1.0  0.18927  0.14903  0.61775  1.0000
  O   O20       1.0  0.08026999999999998  0.15354999999999996  0.5152  1.0000
  O   O21       1.0  0.67198  0.62435  0.7201  1.0000
  O   O22       1.0  0.77679  0.65574  0.61871  1.0000
  O   O23       1.0  0.65667  0.31752  0.43317  1.0000
  O   O24       1.0  0.4713800000000001  0.22335000000000002  0.4149  1.0000
  O   O25       1.0  0.71726  0.8398  0.7676  1.0000
  O   O26       1.0  0.57071  0.9101200000000002  0.75531  1.0000
  O   O27       1.0  0.8515  0.80968  0.88179  1.0000
  O   O28       1.0  0.8469699999999999  0.91576  0.9855100000000001  1.0000
  O   O29       1.0  0.37516  0.32778  0.77946  1.0000
  O   O30       1.0  0.34391  0.22202  0.88088  1.0000
  O   O31       1.0  0.67756  0.33763000000000004  0.06641  1.0000
  O   O32       1.0  0.7681399999999999  0.52367  0.08881  1.0000
