data_image0
_chemical_formula_structural       Na2Zn2H48C106N10O16
_chemical_formula_sum              "Na2 Zn2 H48 C106 N10 O16"
_cell_length_a       15.74578
_cell_length_b       17.80769
_cell_length_c       18.61811
_cell_angle_alpha    88.71736
_cell_angle_beta     84.34898
_cell_angle_gamma    80.0108

_space_group_name_H-M_alt    "P 1"
_space_group_IT_number       1

loop_
  _space_group_symop_operation_xyz
  'x, y, z'

loop_
  _atom_site_type_symbol
  _atom_site_label
  _atom_site_symmetry_multiplicity
  _atom_site_fract_x
  _atom_site_fract_y
  _atom_site_fract_z
  _atom_site_occupancy
  Na  Na1       1.0  0.07924  0.05331  0.00733  1.0000
  Na  Na2       1.0  0.92072  0.9466600000000001  0.9927599999999999  1.0000
  Zn  Zn1       1.0  0.52719  0.50048  0.18842999999999996  1.0000
  Zn  Zn2       1.0  0.47300000000000003  0.49966000000000005  0.81089  1.0000
  H   H1        1.0  0.6270700000000002  0.2011  0.16082  1.0000
  H   H2        1.0  0.45302000000000014  0.22361000000000006  0.16168  1.0000
  H   H3        1.0  0.20357  0.4652  0.16502  1.0000
  H   H4        1.0  0.19784  0.61753  0.15989  1.0000
  H   H5        1.0  0.4321  0.79937  0.18164  1.0000
  H   H6        1.0  0.6040499999999999  0.7760600000000002  0.19148  1.0000
  H   H7        1.0  0.8581900000000002  0.53388  0.16676  1.0000
  H   H8        1.0  0.86402  0.38234  0.15784  1.0000
  H   H9        1.0  0.73532  0.24921000000000001  0.04936999999999998  1.0000
  H   H10       1.0  0.8449500000000002  0.12989000000000006  0.03892999999999999  1.0000
  H   H11       1.0  0.91367  0.16287000000000001  0.25197  1.0000
  H   H12       1.0  0.80565  0.2836300000000001  0.26231  1.0000
  H   H13       1.0  0.30004  0.3598900000000001  0.0484  1.0000
  H   H14       1.0  0.19300000000000006  0.2740500000000001  0.03486  1.0000
  H   H15       1.0  0.19828000000000007  0.20902  0.25697  1.0000
  H   H16       1.0  0.30826000000000003  0.2925000000000001  0.2713  1.0000
  H   H17       1.0  0.35763999999999996  0.76876  0.06323  1.0000
  H   H18       1.0  0.2409700000000001  0.88147  0.054799999999999995  1.0000
  H   H19       1.0  0.10831999999999997  0.8162500000000003  0.25235  1.0000
  H   H20       1.0  0.22374999999999998  0.7032400000000002  0.26187  1.0000
  H   H21       1.0  0.70429  0.71462  0.07164  1.0000
  H   H22       1.0  0.8163300000000002  0.79968  0.05269  1.0000
  H   H23       1.0  0.912  0.7240200000000002  0.25395  1.0000
  H   H24       1.0  0.8052500000000001  0.63434  0.27136  1.0000
  H   H25       1.0  0.37349999999999994  0.79886  0.8392299999999999  1.0000
  H   H26       1.0  0.5476099999999999  0.77614  0.8384999999999998  1.0000
  H   H27       1.0  0.7967100000000001  0.5347600000000002  0.8345  1.0000
  H   H28       1.0  0.80215  0.38251  0.84054  1.0000
  H   H29       1.0  0.56824  0.20124  0.81811  1.0000
  H   H30       1.0  0.39647999999999994  0.2238000000000001  0.80713  1.0000
  H   H31       1.0  0.14181999999999997  0.46643  0.83272  1.0000
  H   H32       1.0  0.13674000000000003  0.6178900000000002  0.8421199999999998  1.0000
  H   H33       1.0  0.2652399999999999  0.7499500000000002  0.9510799999999999  1.0000
  H   H34       1.0  0.15656  0.86941  0.9615899999999998  1.0000
  H   H35       1.0  0.08742999999999997  0.8373200000000002  0.74817  1.0000
  H   H36       1.0  0.19438999999999995  0.7158  0.73816  1.0000
  H   H37       1.0  0.70078  0.63936  0.9512099999999999  1.0000
  H   H38       1.0  0.8064600000000001  0.72634  0.96542  1.0000
  H   H39       1.0  0.80144  0.7911900000000002  0.74285  1.0000
  H   H40       1.0  0.69266  0.70646  0.7284799999999999  1.0000
  H   H41       1.0  0.6406500000000004  0.23265000000000005  0.9366299999999997  1.0000
  H   H42       1.0  0.75685  0.12015  0.9466399999999999  1.0000
  H   H43       1.0  0.89197  0.18565  0.74981  1.0000
  H   H44       1.0  0.77602  0.29788  0.73947  1.0000
  H   H45       1.0  0.29758  0.28614  0.92852  1.0000
  H   H46       1.0  0.18712  0.19945  0.94913  1.0000
  H   H47       1.0  0.0869  0.27418  0.74905  1.0000
  H   H48       1.0  0.19335000000000002  0.36387  0.7291699999999999  1.0000
  C   C1        1.0  0.7185000000000002  0.4137200000000001  0.17199  1.0000
  C   C2        1.0  0.6931300000000001  0.3421800000000001  0.16549  1.0000
  C   C3        1.0  0.6068600000000001  0.32947  0.16489999999999994  1.0000
  C   C4        1.0  0.58263  0.25485  0.16237  1.0000
  C   C5        1.0  0.49438999999999994  0.26609  0.1631  1.0000
  C   C6        1.0  0.46446000000000004  0.3474  0.16686  1.0000
  C   C7        1.0  0.3768099999999999  0.3824400000000001  0.16750999999999994  1.0000
  C   C8        1.0  0.3462200000000001  0.46187  0.16951  1.0000
  C   C9        1.0  0.25665  0.49632  0.16628  1.0000
  C   C10       1.0  0.2538000000000001  0.57354  0.16443  1.0000
  C   C11       1.0  0.34146000000000015  0.5865  0.16846999999999995  1.0000
  C   C12       1.0  0.3670100000000002  0.65903  0.16747999999999996  1.0000
  C   C13       1.0  0.45302000000000014  0.67168  0.17043  1.0000
  C   C14       1.0  0.47669  0.7457  0.17847999999999994  1.0000
  C   C15       1.0  0.5641500000000003  0.73387  0.18326999999999993  1.0000
  C   C16       1.0  0.59447  0.65263  0.17745  1.0000
  C   C17       1.0  0.68228  0.61748  0.17935  1.0000
  C   C18       1.0  0.7136000000000002  0.53783  0.17925  1.0000
  C   C19       1.0  0.80422  0.5032900000000001  0.17106  1.0000
  C   C20       1.0  0.80723  0.42629  0.16643  1.0000
  C   C21       1.0  0.76205  0.2736  0.15742  1.0000
  C   C22       1.0  0.77388  0.23025  0.09393  1.0000
  C   C23       1.0  0.8345  0.16339  0.08801999999999999  1.0000
  C   C24       1.0  0.88311  0.13728  0.14582  1.0000
  C   C25       1.0  0.87409  0.18163000000000004  0.20818  1.0000
  C   C26       1.0  0.81437  0.24963000000000002  0.21347999999999998  1.0000
  C   C27       1.0  0.9415700000000002  0.060640000000000006  0.13494  1.0000
  C   C28       1.0  0.31177  0.33167  0.16073999999999997  1.0000
  C   C29       1.0  0.27851  0.32631000000000004  0.09404  1.0000
  C   C30       1.0  0.21908999999999998  0.2779600000000001  0.08624999999999997  1.0000
  C   C31       1.0  0.19065  0.23462  0.14453  1.0000
  C   C32       1.0  0.22214  0.24154000000000003  0.21149  1.0000
  C   C33       1.0  0.28292  0.28867  0.21945999999999996  1.0000
  C   C34       1.0  0.12825  0.18047  0.13545  1.0000
  C   C35       1.0  0.2983599999999998  0.72729  0.16303  1.0000
  C   C36       1.0  0.30309  0.7786600000000002  0.10468  1.0000
  C   C37       1.0  0.23773999999999998  0.84145  0.09943  1.0000
  C   C38       1.0  0.16675000000000004  0.85552  0.15214  1.0000
  C   C39       1.0  0.16250999999999993  0.8055700000000002  0.21108  1.0000
  C   C40       1.0  0.22738  0.74196  0.21604  1.0000
  C   C41       1.0  0.10291999999999996  0.9273700000000001  0.14144  1.0000
  C   C42       1.0  0.7470900000000001  0.66891  0.17279  1.0000
  C   C43       1.0  0.7497800000000001  0.71673  0.11151999999999998  1.0000
  C   C44       1.0  0.81134  0.7640700000000001  0.10075999999999999  1.0000
  C   C45       1.0  0.86969  0.7666200000000002  0.1524  1.0000
  C   C46       1.0  0.8668000000000005  0.72029  0.21413999999999997  1.0000
  C   C47       1.0  0.80694  0.6707900000000002  0.22378999999999993  1.0000
  C   C48       1.0  0.93338  0.8214100000000002  0.13964  1.0000
  C   C49       1.0  0.46102999999999994  0.4698  0.35047  1.0000
  C   C50       1.0  0.45004  0.4652200000000001  0.41887999999999986  1.0000
  C   C51       1.0  0.5028200000000003  0.5005  0.46075999999999995  1.0000
  C   C52       1.0  0.56206  0.53691  0.41568999999999995  1.0000
  C   C53       1.0  0.56169  0.53418  0.34751999999999994  1.0000
  C   C54       1.0  0.2821  0.58606  0.82744  1.0000
  C   C55       1.0  0.30744000000000005  0.65753  0.8344  1.0000
  C   C56       1.0  0.39366  0.67044  0.8349499999999997  1.0000
  C   C57       1.0  0.41788  0.7450800000000001  0.8375899999999997  1.0000
  C   C58       1.0  0.50612  0.7338  0.83686  1.0000
  C   C59       1.0  0.53602  0.65252  0.8329  1.0000
  C   C60       1.0  0.62367  0.6175700000000001  0.83222  1.0000
  C   C61       1.0  0.6541399999999999  0.5382300000000002  0.83015  1.0000
  C   C62       1.0  0.74361  0.50363  0.83347  1.0000
  C   C63       1.0  0.7462  0.4264700000000001  0.83573  1.0000
  C   C64       1.0  0.65838  0.4138500000000001  0.83165  1.0000
  C   C65       1.0  0.6323800000000003  0.34163  0.8326399999999998  1.0000
  C   C66       1.0  0.5465  0.32887  0.82947  1.0000
  C   C67       1.0  0.52334  0.25473  0.82115  1.0000
  C   C68       1.0  0.4359799999999999  0.2662  0.8158399999999998  1.0000
  C   C69       1.0  0.40526  0.34739000000000003  0.82189  1.0000
  C   C70       1.0  0.31738  0.38237  0.8201  1.0000
  C   C71       1.0  0.28641  0.46209  0.81978  1.0000
  C   C72       1.0  0.19591000000000008  0.49689  0.82822  1.0000
  C   C73       1.0  0.19329  0.5738  0.8331699999999997  1.0000
  C   C74       1.0  0.23849999999999996  0.7260200000000002  0.84269  1.0000
  C   C75       1.0  0.22723  0.76924  0.9062399999999999  1.0000
  C   C76       1.0  0.16703999999999997  0.8362800000000002  0.91227  1.0000
  C   C77       1.0  0.11806999999999995  0.8627100000000002  0.85483  1.0000
  C   C78       1.0  0.12694000000000003  0.81874  0.79208  1.0000
  C   C79       1.0  0.18615  0.75037  0.78669  1.0000
  C   C80       1.0  0.05854000000000003  0.9387600000000001  0.8671199999999999  1.0000
  C   C81       1.0  0.6886099999999999  0.66828  0.83917  1.0000
  C   C82       1.0  0.72166  0.6737200000000002  0.9059199999999998  1.0000
  C   C83       1.0  0.7806899999999999  0.72242  0.9138499999999998  1.0000
  C   C84       1.0  0.809  0.76573  0.85544  1.0000
  C   C85       1.0  0.7777399999999995  0.75866  0.7884  1.0000
  C   C86       1.0  0.7173399999999999  0.7112100000000002  0.78042  1.0000
  C   C87       1.0  0.8719900000000004  0.81938  0.8639399999999999  1.0000
  C   C88       1.0  0.70096  0.27367000000000014  0.83761  1.0000
  C   C89       1.0  0.6958700000000001  0.22255  0.89595  1.0000
  C   C90       1.0  0.7608  0.15952000000000002  0.9015499999999999  1.0000
  C   C91       1.0  0.8319500000000002  0.14495000000000002  0.84903  1.0000
  C   C92       1.0  0.8371400000000002  0.19552000000000005  0.79053  1.0000
  C   C93       1.0  0.77243  0.25915  0.78525  1.0000
  C   C94       1.0  0.89516  0.07233  0.8590799999999998  1.0000
  C   C95       1.0  0.2527200000000001  0.33074999999999993  0.82762  1.0000
  C   C96       1.0  0.2511900000000001  0.28339000000000003  0.8893899999999999  1.0000
  C   C97       1.0  0.19058  0.23511000000000004  0.90091  1.0000
  C   C98       1.0  0.13183000000000003  0.23152000000000003  0.84971  1.0000
  C   C99       1.0  0.13280000000000008  0.27827  0.7881399999999997  1.0000
  C   C100      1.0  0.19207  0.32823000000000013  0.77738  1.0000
  C   C101      1.0  0.07011000000000002  0.1749800000000001  0.86142  1.0000
  C   C102      1.0  0.5393  0.53045  0.64911  1.0000
  C   C103      1.0  0.54993  0.53488  0.58059  1.0000
  C   C104      1.0  0.49699  0.49953000000000003  0.53896  1.0000
  C   C105      1.0  0.43788  0.4632  0.58418  1.0000
  C   C106      1.0  0.4386  0.46607000000000004  0.6523699999999998  1.0000
  N   N1        1.0  0.53395  0.38503  0.16782  1.0000
  N   N2        1.0  0.3966  0.5176499999999999  0.17137  1.0000
  N   N3        1.0  0.52578  0.6158300000000001  0.17014  1.0000
  N   N4        1.0  0.66276  0.48247  0.17965  1.0000
  N   N5        1.0  0.51461  0.50233  0.30495999999999995  1.0000
  N   N6        1.0  0.46655  0.6149100000000001  0.83181  1.0000
  N   N7        1.0  0.6035000000000001  0.48268000000000005  0.8285099999999999  1.0000
  N   N8        1.0  0.47365000000000007  0.38449  0.8295399999999999  1.0000
  N   N9        1.0  0.33757  0.51728  0.8192  1.0000
  N   N10       1.0  0.48585000000000006  0.49791000000000013  0.69472  1.0000
  O   O1        1.0  0.94988  0.030910000000000003  0.07433  1.0000
  O   O2        1.0  0.97703  0.03282  0.19255999999999995  1.0000
  O   O3        1.0  0.11770000000000001  0.16046  0.07184  1.0000
  O   O4        1.0  0.08857  0.15647  0.19133999999999995  1.0000
  O   O5        1.0  0.12568  0.9761800000000002  0.09943  1.0000
  O   O6        1.0  0.024609999999999993  0.93304  0.17943  1.0000
  O   O7        1.0  0.92167  0.86924  0.08966  1.0000
  O   O8        1.0  0.9935900000000001  0.81346  0.18201999999999996  1.0000
  O   O9        1.0  0.049250000000000044  0.9671  0.9283499999999999  1.0000
  O   O10       1.0  0.022969999999999973  0.9667900000000003  0.80988  1.0000
  O   O11       1.0  0.88303  0.8399100000000003  0.92723  1.0000
  O   O12       1.0  0.9121400000000001  0.84224  0.8076999999999998  1.0000
  O   O13       1.0  0.8716500000000003  0.02251  0.89968  1.0000
  O   O14       1.0  0.9738899999999999  0.06713000000000002  0.822  1.0000
  O   O15       1.0  0.08802000000000003  0.12204  0.9059399999999997  1.0000
  O   O16       1.0  0.005249999999999993  0.18666000000000005  0.82383  1.0000
