data_image0
_chemical_formula_structural       Sn8H104C64O16
_chemical_formula_sum              "Sn8 H104 C64 O16"
_cell_length_a       10.25495
_cell_length_b       10.00272
_cell_length_c       23.14576
_cell_angle_alpha    90.0
_cell_angle_beta     90.0
_cell_angle_gamma    90.0

_symmetry_space_group_name_H-M    'P 1'
_symmetry_Int_Tables_number       1

loop_
  _symmetry_equiv_pos_as_xyz
  'x,y,z'

loop_
  _atom_site_type_symbol
  _atom_site_label
  _atom_site_symmetry_multiplicity
  _atom_site_fract_x
  _atom_site_fract_y
  _atom_site_fract_z
  _atom_site_occupancy
  Sn  Sn1       1.0  0.32612  0.79897  0.02674  1.0000
  Sn  Sn2       1.0  0.54961  0.67246  0.23475  1.0000
  Sn  Sn3       1.0  0.45039  0.17246  0.26525  1.0000
  Sn  Sn4       1.0  0.67388  0.29898  0.4732600000000001  1.0000
  Sn  Sn5       1.0  0.17388  0.20102000000000003  0.52674  1.0000
  Sn  Sn6       1.0  0.95039  0.32754  0.7347400000000002  1.0000
  Sn  Sn7       1.0  0.04961  0.82754  0.7652500000000001  1.0000
  Sn  Sn8       1.0  0.8261200000000001  0.70102  0.9732600000000001  1.0000
  H   H1        1.0  0.61214  0.10988  0.12517  1.0000
  H   H2        1.0  0.79886  0.8876700000000001  0.08575000000000002  1.0000
  H   H3        1.0  0.7608  0.03316  0.04654  1.0000
  H   H4        1.0  0.87843  0.92041  0.20058000000000004  1.0000
  H   H5        1.0  0.07488  0.03036  0.24112000000000003  1.0000
  H   H6        1.0  0.11529  0.27214  0.22271000000000002  1.0000
  H   H7        1.0  0.95919  0.4022  0.16205  1.0000
  H   H8        1.0  0.76126  0.29248  0.12328  1.0000
  H   H9        1.0  0.38785  0.60988  0.37483000000000005  1.0000
  H   H10       1.0  0.20113999999999999  0.38767  0.4142500000000001  1.0000
  H   H11       1.0  0.23919  0.53316  0.45346  1.0000
  H   H12       1.0  0.12156000000000002  0.42041  0.29942  1.0000
  H   H13       1.0  0.9251200000000002  0.53036  0.25888  1.0000
  H   H14       1.0  0.8847099999999999  0.77214  0.27729  1.0000
  H   H15       1.0  0.0408  0.9022000000000001  0.33795000000000003  1.0000
  H   H16       1.0  0.23874  0.79248  0.37672  1.0000
  H   H17       1.0  0.8878500000000001  0.8901200000000001  0.62517  1.0000
  H   H18       1.0  0.70113  0.11233  0.58575  1.0000
  H   H19       1.0  0.73919  0.96683  0.54653  1.0000
  H   H20       1.0  0.62156  0.07959  0.70058  1.0000
  H   H21       1.0  0.42512000000000005  0.96964  0.7411200000000002  1.0000
  H   H22       1.0  0.38471  0.72785  0.72271  1.0000
  H   H23       1.0  0.5408  0.5978  0.6620500000000001  1.0000
  H   H24       1.0  0.73874  0.70752  0.62328  1.0000
  H   H25       1.0  0.11214000000000002  0.39012  0.87483  1.0000
  H   H26       1.0  0.29886  0.61233  0.91424  1.0000
  H   H27       1.0  0.26081  0.46684  0.9534600000000001  1.0000
  H   H28       1.0  0.37844  0.57959  0.79942  1.0000
  H   H29       1.0  0.57488  0.46964  0.7588800000000001  1.0000
  H   H30       1.0  0.61529  0.22785000000000002  0.77729  1.0000
  H   H31       1.0  0.45920000000000005  0.0978  0.83795  1.0000
  H   H32       1.0  0.26126  0.20752000000000004  0.8767200000000003  1.0000
  H   H33       1.0  0.11342  0.9485300000000001  0.05431000000000001  1.0000
  H   H34       1.0  0.1484  0.83843  0.11272000000000001  1.0000
  H   H35       1.0  0.24286  0.98704  0.1035  1.0000
  H   H36       1.0  0.28107  0.84969  0.91284  1.0000
  H   H37       1.0  0.37522  0.9835499999999999  0.94334  1.0000
  H   H38       1.0  0.45308  0.83009  0.9246500000000001  1.0000
  H   H39       1.0  0.46597000000000005  0.61814  0.08922000000000001  1.0000
  H   H40       1.0  0.31264  0.54571  0.06872  1.0000
  H   H41       1.0  0.44373  0.55543  0.0178  1.0000
  H   H42       1.0  0.31878  0.62423  0.18177  1.0000
  H   H43       1.0  0.29249  0.73873  0.23973  1.0000
  H   H44       1.0  0.36057  0.79757  0.17319  1.0000
  H   H45       1.0  0.5373  0.76724  0.34521  1.0000
  H   H46       1.0  0.68541  0.67648  0.33566000000000007  1.0000
  H   H47       1.0  0.67097  0.84434  0.30901  1.0000
  H   H48       1.0  0.704  0.54946  0.15492000000000003  1.0000
  H   H49       1.0  0.73678  0.48089999999999994  0.22464  1.0000
  H   H50       1.0  0.59459  0.43057  0.18692000000000006  1.0000
  H   H51       1.0  0.68122  0.12423  0.31823000000000007  1.0000
  H   H52       1.0  0.70751  0.23873  0.26027  1.0000
  H   H53       1.0  0.63942  0.29757  0.32681000000000004  1.0000
  H   H54       1.0  0.4627  0.26724  0.15479000000000004  1.0000
  H   H55       1.0  0.31458  0.17648  0.16434  1.0000
  H   H56       1.0  0.32902  0.34434  0.19099000000000002  1.0000
  H   H57       1.0  0.296  0.04946  0.34508000000000005  1.0000
  H   H58       1.0  0.26321  0.9809  0.27536  1.0000
  H   H59       1.0  0.40541  0.9305699999999999  0.31308  1.0000
  H   H60       1.0  0.8865700000000001  0.44853  0.44569000000000003  1.0000
  H   H61       1.0  0.8516  0.33843  0.38728000000000007  1.0000
  H   H62       1.0  0.75714  0.48705  0.3965000000000001  1.0000
  H   H63       1.0  0.71892  0.34969  0.5871600000000001  1.0000
  H   H64       1.0  0.62477  0.48355  0.5566600000000002  1.0000
  H   H65       1.0  0.54691  0.33009  0.5753500000000001  1.0000
  H   H66       1.0  0.53403  0.11814000000000001  0.41078  1.0000
  H   H67       1.0  0.68736  0.04572  0.43128  1.0000
  H   H68       1.0  0.55627  0.05543000000000001  0.48220000000000013  1.0000
  H   H69       1.0  0.38658  0.05147000000000001  0.5543100000000001  1.0000
  H   H70       1.0  0.3516  0.16157  0.61272  1.0000
  H   H71       1.0  0.25714  0.01295  0.6035  1.0000
  H   H72       1.0  0.21891999999999998  0.15031  0.41284  1.0000
  H   H73       1.0  0.12477000000000002  0.01645  0.44334  1.0000
  H   H74       1.0  0.04691  0.16991  0.42465  1.0000
  H   H75       1.0  0.03403  0.38186  0.58922  1.0000
  H   H76       1.0  0.18736  0.45427999999999996  0.5687200000000001  1.0000
  H   H77       1.0  0.05627  0.44457  0.5178  1.0000
  H   H78       1.0  0.18122  0.37577  0.68177  1.0000
  H   H79       1.0  0.20751  0.26127  0.7397300000000002  1.0000
  H   H80       1.0  0.13943  0.20243  0.67319  1.0000
  H   H81       1.0  0.96269  0.23276  0.8452100000000001  1.0000
  H   H82       1.0  0.8145800000000001  0.32352  0.8356600000000001  1.0000
  H   H83       1.0  0.8290200000000001  0.15566  0.8090000000000002  1.0000
  H   H84       1.0  0.796  0.45054000000000005  0.65492  1.0000
  H   H85       1.0  0.76321  0.5191  0.72464  1.0000
  H   H86       1.0  0.90541  0.56943  0.6869200000000001  1.0000
  H   H87       1.0  0.8187800000000001  0.87576  0.8182300000000002  1.0000
  H   H88       1.0  0.79249  0.76127  0.7602700000000001  1.0000
  H   H89       1.0  0.8605700000000001  0.70243  0.8268100000000003  1.0000
  H   H90       1.0  0.0373  0.73275  0.6547900000000001  1.0000
  H   H91       1.0  0.18542  0.8235200000000001  0.66433  1.0000
  H   H92       1.0  0.17098  0.65566  0.69099  1.0000
  H   H93       1.0  0.204  0.9505400000000002  0.84507  1.0000
  H   H94       1.0  0.23679  0.0191  0.77536  1.0000
  H   H95       1.0  0.09459  0.06943  0.81308  1.0000
  H   H96       1.0  0.61342  0.55147  0.94569  1.0000
  H   H97       1.0  0.6484  0.66157  0.8872800000000002  1.0000
  H   H98       1.0  0.74286  0.51295  0.8964900000000001  1.0000
  H   H99       1.0  0.7810700000000002  0.65031  0.08716  1.0000
  H   H100      1.0  0.87522  0.51645  0.05666000000000001  1.0000
  H   H101      1.0  0.9530800000000001  0.66991  0.07535  1.0000
  H   H102      1.0  0.9659600000000002  0.8818600000000001  0.9107800000000001  1.0000
  H   H103      1.0  0.8126300000000001  0.9542800000000001  0.93128  1.0000
  H   H104      1.0  0.94373  0.9445700000000001  0.9822000000000002  1.0000
  C   C1        1.0  0.62238  0.9376599999999999  0.17762000000000003  1.0000
  C   C2        1.0  0.68546  0.0328  0.13416  1.0000
  C   C3        1.0  0.72117  0.9607899999999999  0.07776  1.0000
  C   C4        1.0  0.60842  0.88803  0.04925  1.0000
  C   C5        1.0  0.8055999999999999  0.0993  0.15975000000000003  1.0000
  C   C6        1.0  0.89566  0.02619  0.19263000000000002  1.0000
  C   C7        1.0  0.00647  0.08816  0.21528000000000005  1.0000
  C   C8        1.0  0.02942  0.22382  0.20478  1.0000
  C   C9        1.0  0.9417  0.29687  0.17102000000000003  1.0000
  C   C10       1.0  0.8303299999999999  0.23473  0.14882  1.0000
  C   C11       1.0  0.37761  0.43764999999999993  0.32238  1.0000
  C   C12       1.0  0.31454  0.5328  0.36583000000000004  1.0000
  C   C13       1.0  0.27883  0.4608  0.42224000000000006  1.0000
  C   C14       1.0  0.39158  0.38804  0.45075  1.0000
  C   C15       1.0  0.19439  0.5993  0.34025  1.0000
  C   C16       1.0  0.10434  0.52619  0.30736  1.0000
  C   C17       1.0  0.99353  0.58816  0.28472  1.0000
  C   C18       1.0  0.97057  0.72382  0.29521000000000003  1.0000
  C   C19       1.0  0.0583  0.79686  0.32898000000000005  1.0000
  C   C20       1.0  0.16967  0.73473  0.35118  1.0000
  C   C21       1.0  0.8776100000000001  0.062340000000000007  0.6776200000000001  1.0000
  C   C22       1.0  0.8145399999999999  0.9672  0.63416  1.0000
  C   C23       1.0  0.77882  0.0392  0.57776  1.0000
  C   C24       1.0  0.89158  0.11196  0.54925  1.0000
  C   C25       1.0  0.69439  0.90069  0.6597500000000001  1.0000
  C   C26       1.0  0.60434  0.97381  0.69263  1.0000
  C   C27       1.0  0.49352  0.9118400000000001  0.7152800000000002  1.0000
  C   C28       1.0  0.47058  0.77617  0.7047800000000002  1.0000
  C   C29       1.0  0.55829  0.70313  0.67102  1.0000
  C   C30       1.0  0.66967  0.76527  0.64882  1.0000
  C   C31       1.0  0.12238  0.56234  0.8223700000000003  1.0000
  C   C32       1.0  0.18546  0.46720000000000006  0.86583  1.0000
  C   C33       1.0  0.22116999999999998  0.5392  0.9222400000000002  1.0000
  C   C34       1.0  0.10842  0.61196  0.95075  1.0000
  C   C35       1.0  0.3056  0.4007  0.8402500000000002  1.0000
  C   C36       1.0  0.39566000000000007  0.47381  0.80736  1.0000
  C   C37       1.0  0.50647  0.41184  0.7847200000000001  1.0000
  C   C38       1.0  0.52942  0.27617  0.7952100000000001  1.0000
  C   C39       1.0  0.44170000000000004  0.20314  0.82898  1.0000
  C   C40       1.0  0.33033  0.26527  0.8511700000000002  1.0000
  C   C41       1.0  0.1915  0.90652  0.08098000000000001  1.0000
  C   C42       1.0  0.36303  0.87483  0.94104  1.0000
  C   C43       1.0  0.39568  0.60554  0.05405000000000001  1.0000
  C   C44       1.0  0.35621  0.71362  0.2034  1.0000
  C   C45       1.0  0.61964  0.74984  0.31607  1.0000
  C   C46       1.0  0.65999  0.51462  0.19521000000000005  1.0000
  C   C47       1.0  0.64378  0.21361999999999998  0.2966  1.0000
  C   C48       1.0  0.38036  0.24984  0.18393000000000007  1.0000
  C   C49       1.0  0.34001  0.01462  0.30479  1.0000
  C   C50       1.0  0.80849  0.40652000000000005  0.4190200000000001  1.0000
  C   C51       1.0  0.63696  0.37483  0.55895  1.0000
  C   C52       1.0  0.60432  0.10554  0.44595  1.0000
  C   C53       1.0  0.3085  0.09348  0.58097  1.0000
  C   C54       1.0  0.13697  0.12517  0.4410500000000001  1.0000
  C   C55       1.0  0.10431999999999998  0.39446  0.55405  1.0000
  C   C56       1.0  0.14379  0.28638  0.7033900000000002  1.0000
  C   C57       1.0  0.88036  0.25016  0.8160700000000001  1.0000
  C   C58       1.0  0.84001  0.48538000000000003  0.69521  1.0000
  C   C59       1.0  0.85621  0.78638  0.7966000000000001  1.0000
  C   C60       1.0  0.11964  0.75016  0.68392  1.0000
  C   C61       1.0  0.15999  0.9853800000000001  0.80479  1.0000
  C   C62       1.0  0.6915  0.59348  0.9190200000000001  1.0000
  C   C63       1.0  0.86303  0.62517  0.05895000000000001  1.0000
  C   C64       1.0  0.89568  0.8944500000000001  0.9459500000000002  1.0000
  O   O1        1.0  0.5421  0.98006  0.21462000000000006  1.0000
  O   O2        1.0  0.6565  0.8138100000000001  0.17469000000000007  1.0000
  O   O3        1.0  0.4932  0.9139100000000001  0.06802  1.0000
  O   O4        1.0  0.62999  0.80642  0.00844  1.0000
  O   O5        1.0  0.4579  0.48006  0.28538  1.0000
  O   O6        1.0  0.3435  0.31381  0.32531  1.0000
  O   O7        1.0  0.50679  0.41391  0.43198000000000003  1.0000
  O   O8        1.0  0.37  0.30642  0.49156000000000005  1.0000
  O   O9        1.0  0.9579  0.01994  0.7146200000000001  1.0000
  O   O10       1.0  0.8434900000000001  0.18619  0.67469  1.0000
  O   O11       1.0  0.0068  0.08609  0.5680200000000001  1.0000
  O   O12       1.0  0.87  0.19358  0.50843  1.0000
  O   O13       1.0  0.0421  0.51994  0.7853800000000002  1.0000
  O   O14       1.0  0.1565  0.68619  0.8253100000000002  1.0000
  O   O15       1.0  0.9932  0.58609  0.9319800000000001  1.0000
  O   O16       1.0  0.13  0.69358  0.99156  1.0000
