data_image0
_chemical_formula_structural       La2H64C80N16O16
_chemical_formula_sum              "La2 H64 C80 N16 O16"
_cell_length_a       13.31256
_cell_length_b       18.16665
_cell_length_c       18.9988
_cell_angle_alpha    89.91318
_cell_angle_beta     90.09875
_cell_angle_gamma    90.07706

_symmetry_space_group_name_H-M    'P 1'
_symmetry_Int_Tables_number       1

loop_
  _symmetry_equiv_pos_as_xyz
  'x,y,z'

loop_
  _atom_site_type_symbol
  _atom_site_label
  _atom_site_symmetry_multiplicity
  _atom_site_fract_x
  _atom_site_fract_y
  _atom_site_fract_z
  _atom_site_occupancy
  La  La1       1.0  0.047999999999999994  0.00056  0.00055  1.0000
  La  La2       1.0  0.9516999999999998  0.50023  0.4999  1.0000
  H   H1        1.0  0.08569999999999998  0.26458  0.014490000000000001  1.0000
  H   H2        1.0  0.05720999999999999  0.3665800000000001  0.929  1.0000
  H   H3        1.0  0.06411  0.20189  0.76339  1.0000
  H   H4        1.0  0.09166999999999997  0.10753  0.85644  1.0000
  H   H5        1.0  0.94034  0.03786  0.74894  1.0000
  H   H6        1.0  0.9174199999999998  0.9468600000000001  0.6524  1.0000
  H   H7        1.0  0.9888199999999998  0.27805  0.69965  1.0000
  H   H8        1.0  0.031109999999999992  0.876  0.8900400000000002  1.0000
  H   H9        1.0  0.83648  0.9990500000000001  0.89643  1.0000
  H   H10       1.0  0.65602  0.016450000000000003  0.86808  1.0000
  H   H11       1.0  0.5906399999999999  0.84352  0.01948  1.0000
  H   H12       1.0  0.7743099999999998  0.83332  0.03969  1.0000
  H   H13       1.0  0.3187699999999999  0.9461500000000002  0.15097  1.0000
  H   H14       1.0  0.5033099999999999  0.9636600000000001  0.14194000000000004  1.0000
  H   H15       1.0  0.4429  0.8568200000000001  0.0032600000000000003  1.0000
  H   H16       1.0  0.2599099999999999  0.11889  0.015300000000000001  1.0000
  H   H17       1.0  0.08631999999999998  0.7370000000000001  0.98589  1.0000
  H   H18       1.0  0.05756999999999999  0.63457  0.07078  1.0000
  H   H19       1.0  0.06402999999999999  0.79815  0.23713  1.0000
  H   H20       1.0  0.09184  0.89329  0.14501000000000003  1.0000
  H   H21       1.0  0.9403999999999998  0.9623200000000001  0.25111  1.0000
  H   H22       1.0  0.9172799999999998  0.05310000000000001  0.34778  1.0000
  H   H23       1.0  0.98889  0.72206  0.30010000000000003  1.0000
  H   H24       1.0  0.03051  0.12490000000000001  0.11052  1.0000
  H   H25       1.0  0.8352999999999999  0.0006  0.10314  1.0000
  H   H26       1.0  0.6547999999999999  0.9830499999999999  0.13143  1.0000
  H   H27       1.0  0.5893  0.15616000000000002  0.9800500000000001  1.0000
  H   H28       1.0  0.7729  0.16622  0.95995  1.0000
  H   H29       1.0  0.31991999999999987  0.0557  0.85072  1.0000
  H   H30       1.0  0.50432  0.03691  0.85875  1.0000
  H   H31       1.0  0.44206  0.14427  0.9977900000000001  1.0000
  H   H32       1.0  0.26092  0.8830799999999999  0.98667  1.0000
  H   H33       1.0  0.9141299999999998  0.23569000000000004  0.51401  1.0000
  H   H34       1.0  0.9427099999999998  0.13357  0.42898000000000003  1.0000
  H   H35       1.0  0.9362399999999997  0.29786  0.26287  1.0000
  H   H36       1.0  0.90884  0.39263000000000003  0.35511  1.0000
  H   H37       1.0  0.059409999999999984  0.46253000000000005  0.24876000000000004  1.0000
  H   H38       1.0  0.08250999999999999  0.55361  0.15212  1.0000
  H   H39       1.0  0.010679999999999997  0.22224000000000002  0.19982  1.0000
  H   H40       1.0  0.96896  0.62435  0.3893  1.0000
  H   H41       1.0  0.16425  0.50102  0.39663  1.0000
  H   H42       1.0  0.34483  0.4839  0.36882  1.0000
  H   H43       1.0  0.4095699999999999  0.6570500000000001  0.51985  1.0000
  H   H44       1.0  0.22579999999999995  0.6669  0.53935  1.0000
  H   H45       1.0  0.68154  0.55354  0.64888  1.0000
  H   H46       1.0  0.49693  0.53581  0.64055  1.0000
  H   H47       1.0  0.55717  0.6448100000000001  0.50319  1.0000
  H   H48       1.0  0.7388199999999998  0.38087  0.51344  1.0000
  H   H49       1.0  0.91424  0.76446  0.48634  1.0000
  H   H50       1.0  0.94299  0.86654  0.57142  1.0000
  H   H51       1.0  0.9366299999999999  0.7020900000000001  0.73747  1.0000
  H   H52       1.0  0.9092099999999997  0.6073800000000001  0.64507  1.0000
  H   H53       1.0  0.059999999999999984  0.5376  0.75128  1.0000
  H   H54       1.0  0.0826  0.44655  0.84802  1.0000
  H   H55       1.0  0.011539999999999996  0.77837  0.8009  1.0000
  H   H56       1.0  0.9694499999999999  0.37571  0.61039  1.0000
  H   H57       1.0  0.16464  0.49905999999999995  0.60345  1.0000
  H   H58       1.0  0.3453899999999999  0.51611  0.63119  1.0000
  H   H59       1.0  0.40858999999999995  0.34301  0.48002000000000006  1.0000
  H   H60       1.0  0.22467  0.33327000000000007  0.46063000000000004  1.0000
  H   H61       1.0  0.68088  0.44639000000000006  0.35116  1.0000
  H   H62       1.0  0.49636999999999987  0.46425  0.35933  1.0000
  H   H63       1.0  0.5565699999999999  0.35518  0.49671  1.0000
  H   H64       1.0  0.73937  0.61916  0.48661000000000004  1.0000
  C   C1        1.0  0.08058999999999997  0.25575  0.95818  1.0000
  C   C2        1.0  0.06533  0.31066  0.9094699999999999  1.0000
  C   C3        1.0  0.05719  0.2951  0.83619  1.0000
  C   C4        1.0  0.0669  0.21932999999999997  0.81812  1.0000
  C   C5        1.0  0.08384999999999998  0.1658  0.8679200000000001  1.0000
  C   C6        1.0  0.9550099999999999  0.9795100000000001  0.75553  1.0000
  C   C7        1.0  0.9431099999999998  0.92767  0.70356  1.0000
  C   C8        1.0  0.040459999999999996  0.35122  0.78383  1.0000
  C   C9        1.0  0.007179999999999999  0.33424  0.71442  1.0000
  C   C10       1.0  0.00607  0.88765  0.8367500000000001  1.0000
  C   C11       1.0  0.7771699999999999  0.96564  0.9195300000000001  1.0000
  C   C12       1.0  0.67646  0.97458  0.9063500000000001  1.0000
  C   C13       1.0  0.6015599999999998  0.93253  0.94196  1.0000
  C   C14       1.0  0.6404999999999998  0.8793000000000001  0.9898600000000001  1.0000
  C   C15       1.0  0.7418  0.87161  0.00212  1.0000
  C   C16       1.0  0.3523999999999999  0.98935  0.11931000000000001  1.0000
  C   C17       1.0  0.4541799999999999  0.0005500000000000001  0.11282  1.0000
  C   C18       1.0  0.49531999999999987  0.94414  0.9323400000000001  1.0000
  C   C19       1.0  0.4213599999999999  0.90099  0.96779  1.0000
  C   C20       1.0  0.31938  0.08840000000000003  0.04177  1.0000
  C   C21       1.0  0.08101999999999998  0.7456400000000002  0.04223  1.0000
  C   C22       1.0  0.06582999999999999  0.69037  0.09063  1.0000
  C   C23       1.0  0.05745  0.70541  0.16397  1.0000
  C   C24       1.0  0.06708999999999998  0.78113  0.18235  1.0000
  C   C25       1.0  0.08414  0.83508  0.13299  1.0000
  C   C26       1.0  0.95482  0.02074  0.24462000000000003  1.0000
  C   C27       1.0  0.94286  0.07243000000000001  0.2967  1.0000
  C   C28       1.0  0.0406  0.6490400000000001  0.21612  1.0000
  C   C29       1.0  0.007239999999999998  0.66589  0.28546  1.0000
  C   C30       1.0  0.005419999999999999  0.11297000000000001  0.16367  1.0000
  C   C31       1.0  0.7759499999999998  0.03401  0.08014  1.0000
  C   C32       1.0  0.6753  0.0252  0.09346  1.0000
  C   C33       1.0  0.6004499999999999  0.06756  0.058140000000000004  1.0000
  C   C34       1.0  0.63914  0.12055  0.00993  1.0000
  C   C35       1.0  0.7403599999999998  0.12805000000000002  0.99757  1.0000
  C   C36       1.0  0.35356  0.01236  0.8822499999999999  1.0000
  C   C37       1.0  0.45524  0.00034999999999999983  0.8882  1.0000
  C   C38       1.0  0.49429  0.05651  0.06844  1.0000
  C   C39       1.0  0.42050999999999994  0.10013000000000002  0.03332  1.0000
  C   C40       1.0  0.32028  0.9134800000000001  0.96  1.0000
  C   C41       1.0  0.9192599999999999  0.24444000000000002  0.45767  1.0000
  C   C42       1.0  0.9344  0.18942  0.40922  1.0000
  C   C43       1.0  0.94259  0.20488  0.33594  1.0000
  C   C44       1.0  0.9330799999999999  0.28064  0.31763  1.0000
  C   C45       1.0  0.91615  0.33436  0.36708  1.0000
  C   C46       1.0  0.044959999999999986  0.5209  0.25527  1.0000
  C   C47       1.0  0.05688999999999999  0.57276  0.20319  1.0000
  C   C48       1.0  0.9591899999999998  0.14875  0.28372  1.0000
  C   C49       1.0  0.9923799999999998  0.16595  0.21439000000000002  1.0000
  C   C50       1.0  0.99416  0.61274  0.33615  1.0000
  C   C51       1.0  0.22342999999999993  0.5344800000000001  0.41983  1.0000
  C   C52       1.0  0.3241699999999999  0.52583  0.4068  1.0000
  C   C53       1.0  0.39892999999999995  0.56818  0.44228000000000006  1.0000
  C   C54       1.0  0.35987  0.6211900000000001  0.49012  1.0000
  C   C55       1.0  0.25855  0.6286  0.5021300000000001  1.0000
  C   C56       1.0  0.64753  0.51036  0.61743  1.0000
  C   C57       1.0  0.5457099999999999  0.4989  0.61144  1.0000
  C   C58       1.0  0.50514  0.5571  0.43256999999999995  1.0000
  C   C59       1.0  0.57885  0.60073  0.46782  1.0000
  C   C60       1.0  0.67959  0.4113  0.53994  1.0000
  C   C61       1.0  0.9193899999999999  0.75571  0.54269  1.0000
  C   C62       1.0  0.9346399999999998  0.81067  0.5912  1.0000
  C   C63       1.0  0.94304  0.7952  0.6645  1.0000
  C   C64       1.0  0.9333999999999998  0.71939  0.6827  1.0000
  C   C65       1.0  0.9164399999999998  0.66569  0.63317  1.0000
  C   C66       1.0  0.045209999999999986  0.47926  0.74472  1.0000
  C   C67       1.0  0.056939999999999984  0.42746  0.79685  1.0000
  C   C68       1.0  0.9596299999999998  0.85142  0.71672  1.0000
  C   C69       1.0  0.9931199999999998  0.8345400000000002  0.78613  1.0000
  C   C70       1.0  0.9943999999999998  0.38734000000000013  0.66367  1.0000
  C   C71       1.0  0.22351  0.4656  0.58019  1.0000
  C   C72       1.0  0.32438  0.47425000000000006  0.59314  1.0000
  C   C73       1.0  0.3987599999999999  0.43189  0.55764  1.0000
  C   C74       1.0  0.35925  0.37893  0.50976  1.0000
  C   C75       1.0  0.25782  0.37152  0.49785  1.0000
  C   C76       1.0  0.64712  0.48969  0.38245  1.0000
  C   C77       1.0  0.54538  0.50111  0.38852  1.0000
  C   C78       1.0  0.50506  0.44286000000000003  0.56744  1.0000
  C   C79       1.0  0.5784099999999999  0.39930000000000004  0.53208  1.0000
  C   C80       1.0  0.67995  0.58881  0.45991  1.0000
  N   N1        1.0  0.09058999999999998  0.18349  0.93806  1.0000
  N   N2        1.0  0.9851199999999998  0.9601100000000001  0.8223200000000002  1.0000
  N   N3        1.0  0.8105099999999997  0.9151500000000001  0.96801  1.0000
  N   N4        1.0  0.28461999999999993  0.032630000000000006  0.08391000000000001  1.0000
  N   N5        1.0  0.09081  0.81789  0.06272  1.0000
  N   N6        1.0  0.9848499999999998  0.04038  0.17795  1.0000
  N   N7        1.0  0.8091299999999998  0.08471000000000001  0.03182  1.0000
  N   N8        1.0  0.28572999999999993  0.96963  0.9182  1.0000
  N   N9        1.0  0.9094399999999998  0.31673  0.43729000000000007  1.0000
  N   N10       1.0  0.01489  0.54025  0.32196  1.0000
  N   N11       1.0  0.18989999999999996  0.58505  0.46796000000000004  1.0000
  N   N12       1.0  0.71478  0.46719  0.58164  1.0000
  N   N13       1.0  0.9097399999999998  0.68336  0.56294  1.0000
  N   N14       1.0  0.015149999999999997  0.45985000000000004  0.67796  1.0000
  N   N15       1.0  0.18952999999999998  0.41506  0.53204  1.0000
  N   N16       1.0  0.7146699999999998  0.53281  0.41829  1.0000
  O   O1        1.0  0.11089  0.1325  0.98639  1.0000
  O   O2        1.0  0.98973  0.0118  0.87166  1.0000
  O   O3        1.0  0.9071799999999998  0.91115  0.9862600000000001  1.0000
  O   O4        1.0  0.18664999999999998  0.01842  0.08913  1.0000
  O   O5        1.0  0.11073  0.8694500000000001  0.014679999999999999  1.0000
  O   O6        1.0  0.9896199999999998  0.98867  0.12858  1.0000
  O   O7        1.0  0.90565  0.08893  0.01357  1.0000
  O   O8        1.0  0.18797999999999998  0.9851  0.9142499999999999  1.0000
  O   O9        1.0  0.8894899999999998  0.36767  0.48554  1.0000
  O   O10       1.0  0.01026  0.48855  0.37147  1.0000
  O   O11       1.0  0.09330999999999998  0.58889  0.4862000000000001  1.0000
  O   O12       1.0  0.8127999999999999  0.48163999999999996  0.5858200000000001  1.0000
  O   O13       1.0  0.8894099999999998  0.63253  0.51454  1.0000
  O   O14       1.0  0.010249999999999999  0.51156  0.62851  1.0000
  O   O15       1.0  0.09283  0.41117  0.5138  1.0000
  O   O16       1.0  0.8125799999999997  0.51814  0.41423  1.0000
