data_image0
_chemical_formula_structural       Ag12P8H48C32S24O16F16
_chemical_formula_sum              "Ag12 P8 H48 C32 S24 O16 F16"
_cell_length_a       10.55179
_cell_length_b       11.7005
_cell_length_c       18.34056
_cell_angle_alpha    91.63876
_cell_angle_beta     89.5522
_cell_angle_gamma    90.0712

_symmetry_space_group_name_H-M    'P 1'
_symmetry_Int_Tables_number       1

loop_
  _symmetry_equiv_pos_as_xyz
  'x,y,z'

loop_
  _atom_site_type_symbol
  _atom_site_label
  _atom_site_symmetry_multiplicity
  _atom_site_fract_x
  _atom_site_fract_y
  _atom_site_fract_z
  _atom_site_occupancy
  Ag  Ag1       1.0  0.6139  0.24715  0.57779  1.0000
  Ag  Ag2       1.0  0.2888899999999999  0.46594  0.85656  1.0000
  Ag  Ag3       1.0  0.39818  0.7317899999999999  0.57298  1.0000
  Ag  Ag4       1.0  0.12111999999999999  0.26239  0.92108  1.0000
  Ag  Ag5       1.0  0.78734  0.02787  0.64801  1.0000
  Ag  Ag6       1.0  0.89592  0.76838  0.9277099999999999  1.0000
  Ag  Ag7       1.0  0.38604  0.7528699999999999  0.42222  1.0000
  Ag  Ag8       1.0  0.7110999999999997  0.5340899999999998  0.14343  1.0000
  Ag  Ag9       1.0  0.60177  0.26823  0.42701  1.0000
  Ag  Ag10      1.0  0.87883  0.7376099999999999  0.07891  1.0000
  Ag  Ag11      1.0  0.21263999999999997  0.9721  0.35201  1.0000
  Ag  Ag12      1.0  0.10403999999999997  0.23160999999999998  0.0723  1.0000
  P   P1        1.0  0.30394999999999994  0.15821  0.4939  1.0000
  P   P2        1.0  0.46397  0.0030399999999999993  0.67987  1.0000
  P   P3        1.0  0.80947  0.34418  0.00629  1.0000
  P   P4        1.0  0.9659299999999997  0.49893  0.81511  1.0000
  P   P5        1.0  0.6960499999999998  0.8418  0.5061  1.0000
  P   P6        1.0  0.5360299999999999  0.99697  0.32013  1.0000
  P   P7        1.0  0.19051  0.65582  0.9937099999999999  1.0000
  P   P8        1.0  0.03405999999999999  0.50108  0.18489  1.0000
  H   H1        1.0  0.72658  0.4634399999999999  0.5462099999999999  1.0000
  H   H2        1.0  0.8117499999999999  0.55414  0.60939  1.0000
  H   H3        1.0  0.69851  0.6151299999999998  0.54902  1.0000
  H   H4        1.0  0.47796  0.25589  0.83137  1.0000
  H   H5        1.0  0.6428999999999999  0.29019  0.82737  1.0000
  H   H6        1.0  0.57332  0.20234999999999997  0.75685  1.0000
  H   H7        1.0  0.57343  0.7391999999999999  0.83963  1.0000
  H   H8        1.0  0.40737999999999996  0.71605  0.85474  1.0000
  H   H9        1.0  0.45968999999999993  0.80387  0.78146  1.0000
  H   H10       1.0  0.14654999999999999  0.45851  0.65845  1.0000
  H   H11       1.0  0.22899999999999995  0.39162  0.58281  1.0000
  H   H12       1.0  0.20545999999999998  0.54351  0.58625  1.0000
  H   H13       1.0  0.22307999999999997  0.037489999999999996  0.9534699999999999  1.0000
  H   H14       1.0  0.3093699999999999  0.94804  0.8895099999999999  1.0000
  H   H15       1.0  0.19588  0.8856  0.9500899999999999  1.0000
  H   H16       1.0  0.97813  0.24455  0.66858  1.0000
  H   H17       1.0  0.14305999999999994  0.21174999999999994  0.6731  1.0000
  H   H18       1.0  0.07069  0.29964  0.74327  1.0000
  H   H19       1.0  0.07586  0.76277  0.65991  1.0000
  H   H20       1.0  0.91023  0.78622  0.64491  1.0000
  H   H21       1.0  0.96031  0.69763  0.71761  1.0000
  H   H22       1.0  0.6443  0.03965  0.84248  1.0000
  H   H23       1.0  0.72423  0.10774999999999997  0.9179  1.0000
  H   H24       1.0  0.70218  0.95563  0.9149100000000001  1.0000
  H   H25       1.0  0.27342  0.53656  0.4537900000000001  1.0000
  H   H26       1.0  0.18824999999999997  0.44587  0.39061  1.0000
  H   H27       1.0  0.30149  0.38488  0.45098  1.0000
  H   H28       1.0  0.52204  0.7441099999999999  0.16862999999999997  1.0000
  H   H29       1.0  0.35709999999999986  0.70981  0.17263  1.0000
  H   H30       1.0  0.42668  0.79766  0.24316  1.0000
  H   H31       1.0  0.4265699999999999  0.26081  0.16037  1.0000
  H   H32       1.0  0.5926199999999999  0.28396  0.14526  1.0000
  H   H33       1.0  0.54031  0.19614  0.21854999999999997  1.0000
  H   H34       1.0  0.85345  0.5415  0.34154999999999996  1.0000
  H   H35       1.0  0.7709999999999999  0.60839  0.41719  1.0000
  H   H36       1.0  0.7945399999999999  0.45649  0.41375  1.0000
  H   H37       1.0  0.7769199999999999  0.9625199999999999  0.04653  1.0000
  H   H38       1.0  0.6906299999999999  0.05196  0.11049  1.0000
  H   H39       1.0  0.80412  0.11440999999999998  0.04991  1.0000
  H   H40       1.0  0.02187  0.75546  0.33143  1.0000
  H   H41       1.0  0.85694  0.7882499999999999  0.32689999999999997  1.0000
  H   H42       1.0  0.9293099999999999  0.70036  0.25673  1.0000
  H   H43       1.0  0.9241399999999997  0.23722999999999994  0.34009  1.0000
  H   H44       1.0  0.08976999999999999  0.21379  0.3551  1.0000
  H   H45       1.0  0.03969999999999999  0.30238  0.28239  1.0000
  H   H46       1.0  0.35569999999999996  0.96035  0.15753  1.0000
  H   H47       1.0  0.27576999999999996  0.89225  0.08209999999999999  1.0000
  H   H48       1.0  0.29782  0.04436999999999999  0.0851  1.0000
  C   C1        1.0  0.7206899999999998  0.54082  0.58184  1.0000
  C   C2        1.0  0.6154299999999999  0.52472  0.63846  1.0000
  C   C3        1.0  0.55768  0.27521  0.79474  1.0000
  C   C4        1.0  0.5278999999999999  0.38128  0.7514999999999998  1.0000
  C   C5        1.0  0.48107  0.7279899999999999  0.81293  1.0000
  C   C6        1.0  0.48691999999999996  0.62346  0.76082  1.0000
  C   C7        1.0  0.22417000000000006  0.46796  0.61895  1.0000
  C   C8        1.0  0.35018999999999995  0.4839899999999999  0.65875  1.0000
  C   C9        1.0  0.21786  0.96053  0.91752  1.0000
  C   C10       1.0  0.11332  0.97662  0.86136  1.0000
  C   C11       1.0  0.05671000000000001  0.22640999999999994  0.7055199999999999  1.0000
  C   C12       1.0  0.026669999999999996  0.12037  0.74902  1.0000
  C   C13       1.0  0.9828299999999998  0.77387  0.68665  1.0000
  C   C14       1.0  0.98759  0.8777  0.73925  1.0000
  C   C15       1.0  0.72105  0.031099999999999996  0.88199  1.0000
  C   C16       1.0  0.84811  0.015940000000000003  0.84203  1.0000
  C   C17       1.0  0.27930999999999995  0.45919  0.41816  1.0000
  C   C18       1.0  0.38456999999999997  0.47529  0.36154  1.0000
  C   C19       1.0  0.44231999999999994  0.7248  0.20526  1.0000
  C   C20       1.0  0.47209999999999996  0.61873  0.2485  1.0000
  C   C21       1.0  0.51893  0.27201  0.18707  1.0000
  C   C22       1.0  0.51309  0.37654999999999994  0.23919  1.0000
  C   C23       1.0  0.77583  0.53205  0.38105  1.0000
  C   C24       1.0  0.6498099999999998  0.51602  0.34125  1.0000
  C   C25       1.0  0.78214  0.03948  0.08249  1.0000
  C   C26       1.0  0.88668  0.023389999999999994  0.13865  1.0000
  C   C27       1.0  0.94329  0.7735899999999998  0.29449  1.0000
  C   C28       1.0  0.9733299999999999  0.8796399999999999  0.25098999999999994  1.0000
  C   C29       1.0  0.017169999999999998  0.22613  0.31336  1.0000
  C   C30       1.0  0.012419999999999999  0.1223  0.26075  1.0000
  C   C31       1.0  0.2789499999999999  0.9688999999999999  0.11802000000000001  1.0000
  C   C32       1.0  0.1519  0.9840599999999999  0.15797  1.0000
  S   S1        1.0  0.6156699999999999  0.65177  0.69733  1.0000
  S   S2        1.0  0.46859  0.50494  0.58651  1.0000
  S   S3        1.0  0.33074  0.6115  0.71802  1.0000
  S   S4        1.0  0.6594599999999999  0.39574  0.68706  1.0000
  S   S5        1.0  0.52089  0.50079  0.81868  1.0000
  S   S6        1.0  0.37651  0.3529799999999999  0.7075099999999999  1.0000
  S   S7        1.0  0.11532999999999997  0.84982  0.80217  1.0000
  S   S8        1.0  0.9653099999999999  0.9947399999999998  0.91378  1.0000
  S   S9        1.0  0.83036  0.88825  0.78272  1.0000
  S   S10       1.0  0.15757999999999997  0.10616  0.81282  1.0000
  S   S11       1.0  0.020719999999999995  0.001080000000000002  0.68173  1.0000
  S   S12       1.0  0.87473  0.14758999999999994  0.7938  1.0000
  S   S13       1.0  0.38433  0.34823  0.30267  1.0000
  S   S14       1.0  0.53141  0.49506999999999995  0.41349  1.0000
  S   S15       1.0  0.66926  0.3885  0.28198  1.0000
  S   S16       1.0  0.34054  0.60426  0.31294  1.0000
  S   S17       1.0  0.47911  0.49921  0.18132  1.0000
  S   S18       1.0  0.62349  0.64702  0.29249  1.0000
  S   S19       1.0  0.88468  0.15019  0.19783  1.0000
  S   S20       1.0  0.03469  0.005259999999999999  0.08623  1.0000
  S   S21       1.0  0.16963999999999999  0.11174999999999999  0.21728999999999998  1.0000
  S   S22       1.0  0.84242  0.89385  0.18719  1.0000
  S   S23       1.0  0.97928  0.9989299999999999  0.31828  1.0000
  S   S24       1.0  0.12526999999999996  0.8524199999999997  0.2062  1.0000
  O   O1        1.0  0.40589  0.24503999999999998  0.50869  1.0000
  O   O2        1.0  0.23785999999999993  0.14827  0.42231  1.0000
  O   O3        1.0  0.43716  0.8813299999999997  0.66165  1.0000
  O   O4        1.0  0.57521  0.06902  0.65094  1.0000
  O   O5        1.0  0.9127099999999999  0.25775  0.9931799999999998  1.0000
  O   O6        1.0  0.7372999999999998  0.3542199999999999  0.07641  1.0000
  O   O7        1.0  0.94311  0.6183  0.84042  1.0000
  O   O8        1.0  0.07662  0.42732999999999993  0.83725  1.0000
  O   O9        1.0  0.5941099999999999  0.75497  0.49130999999999997  1.0000
  O   O10       1.0  0.76214  0.85173  0.5776899999999999  1.0000
  O   O11       1.0  0.56285  0.11867  0.33835  1.0000
  O   O12       1.0  0.42478999999999995  0.93099  0.34906  1.0000
  O   O13       1.0  0.08728  0.7422599999999999  0.00682  1.0000
  O   O14       1.0  0.26269  0.64579  0.9235899999999999  1.0000
  O   O15       1.0  0.05688999999999999  0.3817  0.15958  1.0000
  O   O16       1.0  0.9233799999999999  0.57267  0.16276  1.0000
  F   F1        1.0  0.34973  0.03486  0.51638  1.0000
  F   F2        1.0  0.19914  0.18202  0.55625  1.0000
  F   F3        1.0  0.46886  0.016919999999999994  0.7675199999999999  1.0000
  F   F4        1.0  0.34320999999999996  0.08  0.66902  1.0000
  F   F5        1.0  0.85641  0.46807  0.9852699999999999  1.0000
  F   F6        1.0  0.7107899999999999  0.32066  0.94181  1.0000
  F   F7        1.0  0.96842  0.49705  0.7271699999999999  1.0000
  F   F8        1.0  0.84354  0.4229199999999999  0.82543  1.0000
  F   F9        1.0  0.6502699999999999  0.9651399999999998  0.48362  1.0000
  F   F10       1.0  0.80086  0.8179899999999999  0.4437499999999999  1.0000
  F   F11       1.0  0.5311399999999998  0.9830799999999998  0.23248000000000002  1.0000
  F   F12       1.0  0.6567899999999999  0.9199999999999999  0.33098  1.0000
  F   F13       1.0  0.14358  0.53193  0.01473  1.0000
  F   F14       1.0  0.28919999999999996  0.6793499999999999  0.05818999999999999  1.0000
  F   F15       1.0  0.03157999999999998  0.50296  0.27283  1.0000
  F   F16       1.0  0.15645999999999996  0.57708  0.17457  1.0000
