data_image0
_chemical_formula_structural       Zn4H68C68N20O16
_chemical_formula_sum              "Zn4 H68 C68 N20 O16"
_cell_length_a       12.01774
_cell_length_b       12.01902
_cell_length_c       15.89354
_cell_angle_alpha    102.41823
_cell_angle_beta     107.97283
_cell_angle_gamma    108.18811999999998

_symmetry_space_group_name_H-M    'P 1'
_symmetry_Int_Tables_number       1

loop_
  _symmetry_equiv_pos_as_xyz
  'x,y,z'

loop_
  _atom_site_type_symbol
  _atom_site_label
  _atom_site_symmetry_multiplicity
  _atom_site_fract_x
  _atom_site_fract_y
  _atom_site_fract_z
  _atom_site_occupancy
  Zn  Zn1       1.0  0.6944300000000001  0.81165  0.37086000000000013  1.0000
  Zn  Zn2       1.0  0.9392800000000001  0.32251  0.12862  1.0000
  Zn  Zn3       1.0  0.3055700000000001  0.18834000000000004  0.62913  1.0000
  Zn  Zn4       1.0  0.06073000000000019  0.6774800000000001  0.8713800000000003  1.0000
  H   H1        1.0  0.17882000000000003  0.66234  0.07753000000000003  1.0000
  H   H2        1.0  0.36681000000000014  0.8132900000000001  0.06535  1.0000
  H   H3        1.0  0.5876200000000003  0.8737000000000001  0.18657000000000007  1.0000
  H   H4        1.0  0.7013500000000001  0.55091  0.38515  1.0000
  H   H5        1.0  0.9762000000000003  0.8524900000000001  0.36619  1.0000
  H   H6        1.0  0.05054999999999997  0.65382  0.34885  1.0000
  H   H7        1.0  0.8868700000000003  0.40317  0.3022500000000001  1.0000
  H   H8        1.0  0.7925400000000002  0.38979000000000014  0.3691800000000001  1.0000
  H   H9        1.0  0.9964300000000003  0.37277  0.4504100000000001  1.0000
  H   H10       1.0  0.0864200000000001  0.51595  0.4452200000000001  1.0000
  H   H11       1.0  0.5568800000000002  0.79612  0.5155900000000001  1.0000
  H   H12       1.0  0.79667  0.11261000000000004  0.4869400000000001  1.0000
  H   H13       1.0  0.72199  0.19284999999999997  0.63083  1.0000
  H   H14       1.0  0.4831400000000002  0.8935100000000001  0.6322600000000003  1.0000
  H   H15       1.0  0.5318200000000002  0.056480000000000107  0.6740300000000002  1.0000
  H   H16       1.0  0.61342  0.97091  0.8006  1.0000
  H   H17       1.0  0.7350000000000002  0.09010000000000008  0.7924400000000001  1.0000
  H   H18       1.0  0.08376000000000004  0.10078000000000002  0.4204800000000001  1.0000
  H   H19       1.0  0.24737  0.30174  0.43373  1.0000
  H   H20       1.0  0.18611000000000005  0.40125  0.31282  1.0000
  H   H21       1.0  0.6641500000000001  0.31673  0.11508  1.0000
  H   H22       1.0  0.9857  0.6089600000000001  0.13307000000000002  1.0000
  H   H23       1.0  0.8054700000000001  0.70207  0.15106  1.0000
  H   H24       1.0  0.6010400000000001  0.5858700000000002  0.19777  1.0000
  H   H25       1.0  0.5202300000000001  0.4241800000000001  0.13073000000000007  1.0000
  H   H26       1.0  0.4217600000000002  0.54568  0.04896000000000001  1.0000
  H   H27       1.0  0.57052  0.64156  0.05494  1.0000
  H   H28       1.0  0.7796600000000002  0.04005000000000008  0.9837800000000002  1.0000
  H   H29       1.0  0.12485000000000003  0.30998  0.01362  1.0000
  H   H30       1.0  0.06156000000000009  0.09080000000000008  0.86964  1.0000
  H   H31       1.0  0.7598500000000002  0.8496  0.8663400000000002  1.0000
  H   H32       1.0  0.88158  0.85678  0.8253  1.0000
  H   H33       1.0  0.6693000000000002  0.8124500000000002  0.6982300000000002  1.0000
  H   H34       1.0  0.79763  0.9423800000000001  0.7076000000000001  1.0000
  H   H35       1.0  0.8211900000000002  0.3376600000000002  0.9224600000000001  1.0000
  H   H36       1.0  0.6331900000000003  0.1867100000000001  0.9346400000000002  1.0000
  H   H37       1.0  0.41239000000000003  0.12630000000000002  0.81342  1.0000
  H   H38       1.0  0.29865  0.44909  0.61485  1.0000
  H   H39       1.0  0.023800000000000085  0.14750000000000008  0.6338100000000002  1.0000
  H   H40       1.0  0.9494600000000003  0.3461800000000001  0.6511400000000003  1.0000
  H   H41       1.0  0.1131300000000001  0.5968200000000001  0.6977400000000002  1.0000
  H   H42       1.0  0.20746000000000006  0.6102  0.63082  1.0000
  H   H43       1.0  0.0035800000000000168  0.62723  0.54959  1.0000
  H   H44       1.0  0.91359  0.48405  0.55478  1.0000
  H   H45       1.0  0.44312  0.20388  0.48441  1.0000
  H   H46       1.0  0.20334000000000013  0.88739  0.51306  1.0000
  H   H47       1.0  0.27801000000000003  0.8071500000000001  0.36917  1.0000
  H   H48       1.0  0.51686  0.10649000000000004  0.36774000000000007  1.0000
  H   H49       1.0  0.46818000000000015  0.9435100000000001  0.3259700000000001  1.0000
  H   H50       1.0  0.3865800000000001  0.029080000000000036  0.19940000000000005  1.0000
  H   H51       1.0  0.26500000000000007  0.9099  0.20755  1.0000
  H   H52       1.0  0.9162500000000002  0.8992200000000002  0.5795200000000003  1.0000
  H   H53       1.0  0.75263  0.6982600000000002  0.5662700000000003  1.0000
  H   H54       1.0  0.8138900000000003  0.5987500000000001  0.6871800000000001  1.0000
  H   H55       1.0  0.33585000000000015  0.6832700000000002  0.8849200000000003  1.0000
  H   H56       1.0  0.014300000000000118  0.39104000000000017  0.8669300000000002  1.0000
  H   H57       1.0  0.19454000000000018  0.29792000000000013  0.8489400000000002  1.0000
  H   H58       1.0  0.3989600000000001  0.4141300000000001  0.80223  1.0000
  H   H59       1.0  0.47977000000000003  0.57582  0.86927  1.0000
  H   H60       1.0  0.5782500000000003  0.4543200000000001  0.9510400000000002  1.0000
  H   H61       1.0  0.4294800000000001  0.3584300000000001  0.9450500000000002  1.0000
  H   H62       1.0  0.22035  0.95994  0.01622  1.0000
  H   H63       1.0  0.8751500000000004  0.6900100000000001  0.9863700000000002  1.0000
  H   H64       1.0  0.9384500000000002  0.9092000000000001  0.13036  1.0000
  H   H65       1.0  0.24015  0.1504  0.13366  1.0000
  H   H66       1.0  0.11842  0.14322  0.1747  1.0000
  H   H67       1.0  0.33071000000000006  0.18754000000000004  0.30177  1.0000
  H   H68       1.0  0.20238000000000012  0.05762000000000005  0.2924000000000001  1.0000
  C   C1        1.0  0.45665000000000006  0.60019  0.32854  1.0000
  C   C2        1.0  0.18342  0.5546  0.21204000000000006  1.0000
  C   C3        1.0  0.423  0.66577  0.25827  1.0000
  C   C4        1.0  0.2963900000000001  0.63508  0.19821000000000005  1.0000
  C   C5        1.0  0.27614  0.68742  0.12705  1.0000
  C   C6        1.0  0.3804000000000001  0.7714900000000002  0.12010000000000003  1.0000
  C   C7        1.0  0.5034800000000001  0.8040500000000002  0.1861  1.0000
  C   C8        1.0  0.7861400000000002  0.60648  0.37823  1.0000
  C   C9        1.0  0.93186  0.7615100000000001  0.3697800000000001  1.0000
  C   C10       1.0  0.97096  0.66543  0.36236  1.0000
  C   C11       1.0  0.8825700000000002  0.44813  0.36824  1.0000
  C   C12       1.0  0.9985600000000001  0.46559000000000006  0.45297  1.0000
  C   C13       1.0  0.6119700000000001  0.89252  0.52695  1.0000
  C   C14       1.0  0.73626  0.05982000000000003  0.51528  1.0000
  C   C15       1.0  0.69906  0.09966999999999995  0.58571  1.0000
  C   C16       1.0  0.5668400000000001  0.98298  0.6628600000000001  1.0000
  C   C17       1.0  0.66518  0.99274  0.75589  1.0000
  C   C18       1.0  0.7692600000000003  0.12766  0.16982000000000005  1.0000
  C   C19       1.0  0.8409  0.97131  0.28632  1.0000
  C   C20       1.0  0.90545  0.16452  0.24054000000000006  1.0000
  C   C21       1.0  0.9352000000000001  0.09827000000000004  0.3005100000000001  1.0000
  C   C22       1.0  0.05921  0.14909  0.37154  1.0000
  C   C23       1.0  0.15052  0.26046  0.37888  1.0000
  C   C24       1.0  0.11677000000000001  0.3175  0.31313  1.0000
  C   C25       1.0  0.7274700000000002  0.40814  0.12205  1.0000
  C   C26       1.0  0.8912200000000002  0.56152  0.12987  1.0000
  C   C27       1.0  0.80316  0.60877  0.13761  1.0000
  C   C28       1.0  0.5797700000000001  0.51516  0.13184000000000004  1.0000
  C   C29       1.0  0.5124000000000001  0.54577  0.04693  1.0000
  C   C30       1.0  0.8647100000000003  0.08399000000000006  0.9726000000000001  1.0000
  C   C31       1.0  0.04367999999999997  0.22086  0.98482  1.0000
  C   C32       1.0  0.01337000000000016  0.11300000000000011  0.9144700000000002  1.0000
  C   C33       1.0  0.8192800000000002  0.9030100000000002  0.8364300000000002  1.0000
  C   C34       1.0  0.7363800000000003  0.90889  0.74357  1.0000
  C   C35       1.0  0.5433500000000002  0.39981000000000005  0.6714500000000001  1.0000
  C   C36       1.0  0.8165900000000003  0.4454000000000002  0.7879600000000002  1.0000
  C   C37       1.0  0.5770000000000002  0.33423000000000014  0.7417200000000003  1.0000
  C   C38       1.0  0.70362  0.36492  0.8017900000000001  1.0000
  C   C39       1.0  0.7238600000000002  0.3125700000000002  0.8729400000000003  1.0000
  C   C40       1.0  0.6196100000000002  0.2285100000000001  0.8798900000000002  1.0000
  C   C41       1.0  0.4965300000000002  0.19595000000000015  0.8139000000000002  1.0000
  C   C42       1.0  0.21387000000000003  0.39352  0.62177  1.0000
  C   C43       1.0  0.06815000000000004  0.23848000000000008  0.6302200000000001  1.0000
  C   C44       1.0  0.029040000000000094  0.3345700000000001  0.6376400000000002  1.0000
  C   C45       1.0  0.11743000000000002  0.55186  0.63176  1.0000
  C   C46       1.0  0.0014400000000000532  0.5344100000000002  0.5470300000000001  1.0000
  C   C47       1.0  0.38803000000000004  0.10748000000000002  0.47305000000000014  1.0000
  C   C48       1.0  0.26375000000000015  0.9401800000000002  0.4847200000000001  1.0000
  C   C49       1.0  0.3009400000000001  0.90033  0.41428  1.0000
  C   C50       1.0  0.43316000000000016  0.017020000000000056  0.3371400000000001  1.0000
  C   C51       1.0  0.3348200000000001  0.007260000000000018  0.24411000000000005  1.0000
  C   C52       1.0  0.23074000000000008  0.8723300000000002  0.83018  1.0000
  C   C53       1.0  0.15910000000000013  0.028690000000000063  0.7136700000000002  1.0000
  C   C54       1.0  0.09455000000000013  0.83548  0.7594600000000002  1.0000
  C   C55       1.0  0.06480000000000011  0.9017200000000001  0.6994800000000002  1.0000
  C   C56       1.0  0.9407900000000002  0.8509099999999999  0.62845  1.0000
  C   C57       1.0  0.8494900000000003  0.7395400000000001  0.6211200000000002  1.0000
  C   C58       1.0  0.8832399999999999  0.6825  0.68686  1.0000
  C   C59       1.0  0.2725400000000002  0.5918600000000002  0.8779500000000002  1.0000
  C   C60       1.0  0.10879000000000015  0.43847000000000014  0.8701200000000002  1.0000
  C   C61       1.0  0.19685  0.39123  0.86238  1.0000
  C   C62       1.0  0.42023000000000016  0.4848400000000001  0.8681600000000003  1.0000
  C   C63       1.0  0.4876000000000002  0.4542300000000001  0.9530700000000002  1.0000
  C   C64       1.0  0.1353  0.91601  0.027400000000000008  1.0000
  C   C65       1.0  0.9563200000000002  0.7791400000000002  0.01517  1.0000
  C   C66       1.0  0.98664  0.887  0.08553000000000002  1.0000
  C   C67       1.0  0.18072000000000005  0.09698  0.16356  1.0000
  C   C68       1.0  0.26362  0.09111  0.25642  1.0000
  N   N1        1.0  0.52306  0.7511  0.25303  1.0000
  N   N2        1.0  0.8771399999999999  0.56791  0.3673100000000001  1.0000
  N   N3        1.0  0.8165  0.72402  0.3792500000000001  1.0000
  N   N4        1.0  0.61957  0.99209  0.59164  1.0000
  N   N5        1.0  0.6818700000000001  0.93045  0.4795  1.0000
  N   N6        1.0  0.9964700000000002  0.26978  0.24607  1.0000
  N   N7        1.0  0.70052  0.51047  0.13305  1.0000
  N   N8        1.0  0.8437300000000001  0.43671  0.12063  1.0000
  N   N9        1.0  0.8998600000000005  0.027030000000000106  0.9081800000000002  1.0000
  N   N10       1.0  0.94988  0.20179  0.020170000000000007  1.0000
  N   N11       1.0  0.47694000000000014  0.24890000000000007  0.74696  1.0000
  N   N12       1.0  0.12286000000000002  0.43209000000000003  0.63269  1.0000
  N   N13       1.0  0.18350000000000002  0.27597  0.62074  1.0000
  N   N14       1.0  0.3804400000000001  0.007900000000000061  0.4083600000000001  1.0000
  N   N15       1.0  0.3181300000000002  0.0695500000000001  0.5205000000000001  1.0000
  N   N16       1.0  0.0035300000000001606  0.7302200000000001  0.7539200000000003  1.0000
  N   N17       1.0  0.29949  0.48953  0.86694  1.0000
  N   N18       1.0  0.1562700000000002  0.5632900000000002  0.8793700000000002  1.0000
  N   N19       1.0  0.10015000000000004  0.9729700000000001  0.09182  1.0000
  N   N20       1.0  0.05012000000000001  0.79821  0.97983  1.0000
  O   O1        1.0  0.5715999999999999  0.65607  0.39314000000000004  1.0000
  O   O2        1.0  0.3740200000000002  0.4975300000000001  0.31598000000000004  1.0000
  O   O3        1.0  0.16607000000000008  0.5996600000000001  0.2832800000000001  1.0000
  O   O4        1.0  0.11103  0.45042  0.14408  1.0000
  O   O5        1.0  0.76109  0.17585  0.10425000000000002  1.0000
  O   O6        1.0  0.6787600000000001  0.0599  0.18315  1.0000
  O   O7        1.0  0.8128700000000004  0.88278  0.21427  1.0000
  O   O8        1.0  0.8062400000000002  0.96687  0.3547500000000001  1.0000
  O   O9        1.0  0.4284000000000003  0.3439200000000001  0.6068600000000002  1.0000
  O   O10       1.0  0.6259800000000001  0.5024700000000002  0.6840200000000002  1.0000
  O   O11       1.0  0.8339400000000002  0.4003400000000002  0.7167100000000002  1.0000
  O   O12       1.0  0.8889700000000005  0.5495800000000002  0.8559100000000002  1.0000
  O   O13       1.0  0.23892000000000008  0.82415  0.8957500000000003  1.0000
  O   O14       1.0  0.3212500000000002  0.9401000000000002  0.8168400000000002  1.0000
  O   O15       1.0  0.18713000000000005  0.11722000000000009  0.78573  1.0000
  O   O16       1.0  0.19377000000000014  0.03313000000000005  0.6452400000000001  1.0000
