data_image0
_chemical_formula_structural       Cd4H80C68N32
_chemical_formula_sum              "Cd4 H80 C68 N32"
_cell_length_a       11.62613
_cell_length_b       12.89367
_cell_length_c       13.88601
_cell_angle_alpha    90.01265
_cell_angle_beta     83.45681
_cell_angle_gamma    89.98222

_symmetry_space_group_name_H-M    'P 1'
_symmetry_Int_Tables_number       1

loop_
  _symmetry_equiv_pos_as_xyz
  'x,y,z'

loop_
  _atom_site_type_symbol
  _atom_site_label
  _atom_site_symmetry_multiplicity
  _atom_site_fract_x
  _atom_site_fract_y
  _atom_site_fract_z
  _atom_site_occupancy
  Cd  Cd1       1.0  0.38972  0.18637  0.9997400000000001  1.0000
  Cd  Cd2       1.0  0.6105  0.68638  0.50014  1.0000
  Cd  Cd3       1.0  0.61012  0.81362  7e-05  1.0000
  Cd  Cd4       1.0  0.38965999999999995  0.31336  0.50012  1.0000
  H   H1        1.0  0.49577  0.24990999999999997  0.30383  1.0000
  H   H2        1.0  0.49617  0.97957  0.13301  1.0000
  H   H3        1.0  0.71251  0.06683  0.10339000000000002  1.0000
  H   H4        1.0  0.69816  0.29765  0.28511  1.0000
  H   H5        1.0  0.80258  0.20887  0.23376  1.0000
  H   H6        1.0  0.7301  0.23962  0.00576  1.0000
  H   H7        1.0  0.8431699999999999  0.19307  0.06819  1.0000
  H   H8        1.0  0.04726  0.24501  0.02091  1.0000
  H   H9        1.0  0.7886099999999998  0.39344  0.8786000000000003  1.0000
  H   H10       1.0  0.0031500000000000052  0.4212600000000001  0.77273  1.0000
  H   H11       1.0  0.92656  0.45594  0.4807700000000001  1.0000
  H   H12       1.0  0.9815999999999998  0.33546  0.3160000000000001  1.0000
  H   H13       1.0  0.7254799999999999  0.55887  0.26601  1.0000
  H   H14       1.0  0.8775799999999999  0.46229  0.11233000000000003  1.0000
  H   H15       1.0  0.94282  0.35006  0.15232  1.0000
  H   H16       1.0  0.6310699999999999  0.44700000000000006  0.18334000000000006  1.0000
  H   H17       1.0  0.57806  0.34395  0.11708000000000002  1.0000
  H   H18       1.0  0.7682599999999998  0.58835  0.06948  1.0000
  H   H19       1.0  0.6101799999999998  0.53167  0.81672  1.0000
  H   H20       1.0  0.55001  0.37233  0.9481400000000002  1.0000
  H   H21       1.0  0.5047799999999999  0.74949  0.1965  1.0000
  H   H22       1.0  0.5033599999999999  0.47913999999999995  0.3673300000000001  1.0000
  H   H23       1.0  0.28724  0.56681  0.39650000000000013  1.0000
  H   H24       1.0  0.30241  0.7977899999999999  0.21496  1.0000
  H   H25       1.0  0.19772999999999996  0.70909  0.26598  1.0000
  H   H26       1.0  0.26998  0.73957  0.49407  1.0000
  H   H27       1.0  0.15696999999999997  0.6930799999999999  0.4315800000000001  1.0000
  H   H28       1.0  0.9527099999999997  0.74497  0.4791400000000001  1.0000
  H   H29       1.0  0.2114  0.89361  0.6213  1.0000
  H   H30       1.0  0.99693  0.92145  0.72724  1.0000
  H   H31       1.0  0.07399999999999998  0.95659  0.01933  1.0000
  H   H32       1.0  0.018730000000000004  0.8361  0.18399  1.0000
  H   H33       1.0  0.27454  0.05938  0.23448  1.0000
  H   H34       1.0  0.12233999999999998  0.96233  0.3878500000000001  1.0000
  H   H35       1.0  0.05732999999999999  0.85017  0.34745000000000004  1.0000
  H   H36       1.0  0.3691  0.94696  0.31679  1.0000
  H   H37       1.0  0.4219  0.84394  0.38319  1.0000
  H   H38       1.0  0.23139  0.08835  0.43071  1.0000
  H   H39       1.0  0.38968  0.03204  0.68341  1.0000
  H   H40       1.0  0.44992999999999994  0.87259  0.55207  1.0000
  H   H41       1.0  0.50423  0.75009  0.69619  1.0000
  H   H42       1.0  0.5038199999999999  0.02047  0.8669300000000001  1.0000
  H   H43       1.0  0.2874799999999999  0.93321  0.8966200000000002  1.0000
  H   H44       1.0  0.3018399999999999  0.7024  0.7148700000000001  1.0000
  H   H45       1.0  0.19742999999999997  0.7912000000000001  0.7662100000000002  1.0000
  H   H46       1.0  0.2698499999999999  0.76035  0.9942800000000003  1.0000
  H   H47       1.0  0.15687999999999996  0.8070199999999998  0.9318400000000002  1.0000
  H   H48       1.0  0.9526399999999999  0.75516  0.9790800000000002  1.0000
  H   H49       1.0  0.21111999999999997  0.60649  0.12144  1.0000
  H   H50       1.0  0.9965499999999999  0.57886  0.22722  1.0000
  H   H51       1.0  0.07351999999999999  0.544  0.51923  1.0000
  H   H52       1.0  0.018470000000000014  0.66458  0.68392  1.0000
  H   H53       1.0  0.27431999999999995  0.44103  0.7341500000000002  1.0000
  H   H54       1.0  0.12244  0.53777  0.88764  1.0000
  H   H55       1.0  0.05713999999999998  0.6500100000000001  0.84765  1.0000
  H   H56       1.0  0.3688299999999999  0.55297  0.8167  1.0000
  H   H57       1.0  0.42192  0.656  0.8829200000000003  1.0000
  H   H58       1.0  0.23181999999999994  0.41159  0.93046  1.0000
  H   H59       1.0  0.38967  0.46845  0.18331  1.0000
  H   H60       1.0  0.4497800000000001  0.62779  0.05184  1.0000
  H   H61       1.0  0.49526  0.25057  0.8036600000000002  1.0000
  H   H62       1.0  0.4965499999999998  0.52088  0.6328900000000002  1.0000
  H   H63       1.0  0.71266  0.43326000000000003  0.60359  1.0000
  H   H64       1.0  0.6976399999999999  0.2023  0.7851200000000003  1.0000
  H   H65       1.0  0.8022799999999997  0.29103  0.73404  1.0000
  H   H66       1.0  0.73  0.2603  0.50599  1.0000
  H   H67       1.0  0.8430099999999999  0.30688  0.56845  1.0000
  H   H68       1.0  0.04723  0.2552  0.52089  1.0000
  H   H69       1.0  0.78871  0.10651  0.37863  1.0000
  H   H70       1.0  0.0032500000000000007  0.07867  0.27279  1.0000
  H   H71       1.0  0.92586  0.04353  0.9808  1.0000
  H   H72       1.0  0.98111  0.16405  0.8161600000000002  1.0000
  H   H73       1.0  0.7252999999999997  0.94068  0.76572  1.0000
  H   H74       1.0  0.8777  0.03771  0.61214  1.0000
  H   H75       1.0  0.94276  0.14979  0.6525900000000001  1.0000
  H   H76       1.0  0.63097  0.05293  0.68322  1.0000
  H   H77       1.0  0.57815  0.15602  0.61695  1.0000
  H   H78       1.0  0.7683899999999998  0.9115799999999998  0.56946  1.0000
  H   H79       1.0  0.61023  0.96815  0.31669  1.0000
  H   H80       1.0  0.55013  0.12759  0.44815  1.0000
  C   C1        1.0  0.52218  0.18781  0.25304  1.0000
  C   C2        1.0  0.52705  0.04948  0.16528000000000004  1.0000
  C   C3        1.0  0.6360199999999999  0.09221  0.14889  1.0000
  C   C4        1.0  0.72607  0.25345  0.2191  1.0000
  C   C5        1.0  0.80357  0.26395  0.04348000000000001  1.0000
  C   C6        1.0  0.008969999999999968  0.29063  0.9670500000000002  1.0000
  C   C7        1.0  0.8739399999999999  0.36734  0.89154  1.0000
  C   C8        1.0  0.98145  0.38049999999999995  0.84057  1.0000
  C   C9        1.0  0.89181  0.45947  0.41167  1.0000
  C   C10       1.0  0.92071  0.39859  0.3311  1.0000
  C   C11       1.0  0.78709  0.51502  0.30318  1.0000
  C   C12       1.0  0.8631  0.3962  0.16188000000000002  1.0000
  C   C13       1.0  0.7603899999999998  0.32983  0.13453  1.0000
  C   C14       1.0  0.65233  0.39585  0.12056000000000003  1.0000
  C   C15       1.0  0.719  0.55173  0.01685  1.0000
  C   C16       1.0  0.63529  0.52014  0.88869  1.0000
  C   C17       1.0  0.60599  0.43914  0.95152  1.0000
  C   C18       1.0  0.4780099999999999  0.68741  0.24714  1.0000
  C   C19       1.0  0.4727  0.5491  0.3349400000000001  1.0000
  C   C20       1.0  0.3638199999999999  0.59209  0.35113000000000005  1.0000
  C   C21       1.0  0.27418999999999993  0.75357  0.28087  1.0000
  C   C22       1.0  0.19644999999999996  0.76395  0.45644  1.0000
  C   C23       1.0  0.9911199999999999  0.79047  0.53302  1.0000
  C   C24       1.0  0.12608  0.86735  0.6085000000000002  1.0000
  C   C25       1.0  0.01853999999999999  0.88056  0.6594400000000001  1.0000
  C   C26       1.0  0.10876999999999998  0.95995  0.08838  1.0000
  C   C27       1.0  0.07972999999999997  0.89909  0.16893  1.0000
  C   C28       1.0  0.21322999999999995  0.01552  0.19705000000000006  1.0000
  C   C29       1.0  0.13699  0.89637  0.33814  1.0000
  C   C30       1.0  0.23967  0.82992  0.3655000000000001  1.0000
  C   C31       1.0  0.3476799999999999  0.8958999999999999  0.3795800000000001  1.0000
  C   C32       1.0  0.2808999999999999  0.051859999999999996  0.48324000000000006  1.0000
  C   C33       1.0  0.3646899999999999  0.02047  0.6114100000000002  1.0000
  C   C34       1.0  0.3939799999999999  0.93939  0.54861  1.0000
  C   C35       1.0  0.47782  0.81221  0.74697  1.0000
  C   C36       1.0  0.47294  0.95055  0.83468  1.0000
  C   C37       1.0  0.36397  0.90785  0.85108  1.0000
  C   C38       1.0  0.27392000000000005  0.7466  0.78089  1.0000
  C   C39       1.0  0.19638  0.73609  0.95653  1.0000
  C   C40       1.0  0.99093  0.70954  0.03293  1.0000
  C   C41       1.0  0.12582999999999997  0.63273  0.10848  1.0000
  C   C42       1.0  0.018309999999999996  0.61966  0.15941  1.0000
  C   C43       1.0  0.10822999999999999  0.54053  0.58832  1.0000
  C   C44       1.0  0.07936999999999997  0.60146  0.66888  1.0000
  C   C45       1.0  0.21285  0.4849  0.6968500000000001  1.0000
  C   C46       1.0  0.13687  0.60387  0.8381  1.0000
  C   C47       1.0  0.2395699999999999  0.6702299999999999  0.86546  1.0000
  C   C48       1.0  0.34759  0.60417  0.87944  1.0000
  C   C49       1.0  0.28093999999999997  0.44829  0.9831500000000002  1.0000
  C   C50       1.0  0.36452999999999997  0.47997  0.11135000000000003  1.0000
  C   C51       1.0  0.39380999999999994  0.56096  0.04851  1.0000
  C   C52       1.0  0.5219299999999999  0.31261000000000005  0.75295  1.0000
  C   C53       1.0  0.52726  0.45091  0.6652  1.0000
  C   C54       1.0  0.6360999999999999  0.40789  0.64893  1.0000
  C   C55       1.0  0.72584  0.24648  0.71919  1.0000
  C   C56       1.0  0.8035499999999998  0.236  0.54362  1.0000
  C   C57       1.0  0.008909999999999982  0.20957  0.46705000000000013  1.0000
  C   C58       1.0  0.87405  0.1327  0.39154  1.0000
  C   C59       1.0  0.98152  0.1195  0.3406300000000001  1.0000
  C   C60       1.0  0.8913099999999998  0.04003  0.9116600000000002  1.0000
  C   C61       1.0  0.9203099999999997  0.10088  0.83111  1.0000
  C   C62       1.0  0.7868299999999999  0.98444  0.80302  1.0000
  C   C63       1.0  0.8630599999999999  0.10363  0.6619100000000001  1.0000
  C   C64       1.0  0.76037  0.17007000000000003  0.63459  1.0000
  C   C65       1.0  0.65239  0.10408  0.6205  1.0000
  C   C66       1.0  0.71917  0.9481700000000001  0.51678  1.0000
  C   C67       1.0  0.6354  0.97974  0.38863  1.0000
  C   C68       1.0  0.60614  0.06079  0.4514800000000001  1.0000
  N   N1        1.0  0.45699  0.10894  0.23092  1.0000
  N   N2        1.0  0.63227  0.18155000000000002  0.20522000000000007  1.0000
  N   N3        1.0  0.06556  0.33286  0.88832  1.0000
  N   N4        1.0  0.8917  0.30956  0.9725300000000002  1.0000
  N   N5        1.0  0.80848  0.53154  0.39401  1.0000
  N   N6        1.0  0.8528499999999998  0.4341  0.2619  1.0000
  N   N7        1.0  0.70592  0.58975  0.9298200000000002  1.0000
  N   N8        1.0  0.6608399999999999  0.45940000000000003  0.03316  1.0000
  N   N9        1.0  0.54296  0.60836  0.26932  1.0000
  N   N10       1.0  0.36783999999999994  0.68146  0.29486  1.0000
  N   N11       1.0  0.93449  0.83279  0.6117200000000002  1.0000
  N   N12       1.0  0.10836  0.80953  0.52747  1.0000
  N   N13       1.0  0.19214999999999996  0.03191  0.10611000000000001  1.0000
  N   N14       1.0  0.14742999999999998  0.93462  0.23822000000000002  1.0000
  N   N15       1.0  0.29401999999999995  0.09002  0.57023  1.0000
  N   N16       1.0  0.3390899999999999  0.9595  0.46697  1.0000
  N   N17       1.0  0.5430099999999999  0.8911  0.76904  1.0000
  N   N18       1.0  0.3677299999999999  0.81848  0.79479  1.0000
  N   N19       1.0  0.9342599999999999  0.66736  0.11165000000000003  1.0000
  N   N20       1.0  0.10818  0.6905099999999998  0.02746  1.0000
  N   N21       1.0  0.19151999999999994  0.46842  0.6060000000000002  1.0000
  N   N22       1.0  0.14719  0.56592  0.73808  1.0000
  N   N23       1.0  0.29398  0.41030000000000005  0.07021  1.0000
  N   N24       1.0  0.33901  0.54066  0.96686  1.0000
  N   N25       1.0  0.45698  0.39166  0.7308  1.0000
  N   N26       1.0  0.6321  0.31851000000000007  0.70518  1.0000
  N   N27       1.0  0.06557999999999999  0.16721  0.3883800000000001  1.0000
  N   N28       1.0  0.8916899999999999  0.19047000000000003  0.4725800000000001  1.0000
  N   N29       1.0  0.80797  0.96804  0.89394  1.0000
  N   N30       1.0  0.85263  0.06534  0.76182  1.0000
  N   N31       1.0  0.70595  0.91005  0.4297800000000001  1.0000
  N   N32       1.0  0.6610299999999998  0.04055  0.53307  1.0000
