data_image0
_chemical_formula_structural       Ni6H48C88O20
_chemical_formula_sum              "Ni6 H48 C88 O20"
_cell_length_a       5.78635
_cell_length_b       21.71913
_cell_length_c       21.75208
_cell_angle_alpha    72.69911
_cell_angle_beta     82.38289
_cell_angle_gamma    82.10346

_symmetry_space_group_name_H-M    'P 1'
_symmetry_Int_Tables_number       1

loop_
  _symmetry_equiv_pos_as_xyz
  'x,y,z'

loop_
  _atom_site_type_symbol
  _atom_site_label
  _atom_site_symmetry_multiplicity
  _atom_site_fract_x
  _atom_site_fract_y
  _atom_site_fract_z
  _atom_site_occupancy
  Ni  Ni1       1.0  0.48336  0.06192999999999999  0.44357  1.0000
  Ni  Ni2       1.0  0.9941199999999998  0.43781999999999993  0.0561  1.0000
  Ni  Ni3       1.0  0.5164899999999998  0.93801  0.55655  1.0000
  Ni  Ni4       1.0  0.006590000000000022  0.56209  0.94405  1.0000
  Ni  Ni5       1.0  0.9996099999999998  0.99873  0.50073  1.0000
  Ni  Ni6       1.0  0.50284  0.49865  0.00076  1.0000
  H   H1        1.0  0.5956  0.57724  0.25376  1.0000
  H   H2        1.0  0.95016  0.44916  0.24946  1.0000
  H   H3        1.0  0.9744800000000001  0.48569999999999997  0.34674  1.0000
  H   H4        1.0  0.58206  0.53505  0.15944  1.0000
  H   H5        1.0  0.7010599999999999  0.35187  0.45635  1.0000
  H   H6        1.0  0.26381000000000004  0.8457999999999999  0.41911  1.0000
  H   H7        1.0  0.49677999999999994  0.42991  0.36858  1.0000
  H   H8        1.0  0.42179999999999995  0.74465  0.38939  1.0000
  H   H9        1.0  0.64768  0.7569700000000001  0.51855  1.0000
  H   H10       1.0  0.12427999999999999  0.64724  0.3341  1.0000
  H   H11       1.0  0.80577  0.6549200000000002  0.4901  1.0000
  H   H12       1.0  0.3519999999999998  0.9516999999999999  0.4499  1.0000
  H   H13       1.0  0.4320500000000001  0.9224  0.24605000000000002  1.0000
  H   H14       1.0  0.65251  0.051259999999999986  0.25077  1.0000
  H   H15       1.0  0.8085299999999997  0.01444  0.15359  1.0000
  H   H16       1.0  0.28388000000000013  0.9647499999999999  0.3403  1.0000
  H   H17       1.0  0.5120599999999998  0.14679  0.04509  1.0000
  H   H18       1.0  0.52609  0.65341  0.08142000000000002  1.0000
  H   H19       1.0  0.2993799999999999  0.06875  0.1325  1.0000
  H   H20       1.0  0.5568  0.75486  0.10978000000000002  1.0000
  H   H21       1.0  0.9178  0.74347  0.9822400000000001  1.0000
  H   H22       1.0  0.10803  0.8525300000000001  0.16515  1.0000
  H   H23       1.0  0.9504799999999999  0.8458199999999999  0.00901  1.0000
  H   H24       1.0  0.75219  0.54752  0.05065  1.0000
  H   H25       1.0  0.40463  0.42280000000000006  0.74629  1.0000
  H   H26       1.0  0.05072000000000004  0.55065  0.75053  1.0000
  H   H27       1.0  0.02576000000000002  0.51428  0.65327  1.0000
  H   H28       1.0  0.41890999999999967  0.46479000000000004  0.8406800000000001  1.0000
  H   H29       1.0  0.29902  0.64797  0.54362  1.0000
  H   H30       1.0  0.73474  0.15388000000000002  0.58127  1.0000
  H   H31       1.0  0.5034199999999995  0.56995  0.63138  1.0000
  H   H32       1.0  0.57739  0.25524  0.61062  1.0000
  H   H33       1.0  0.35128999999999994  0.2424  0.48164000000000007  1.0000
  H   H34       1.0  0.87588  0.35261  0.66588  1.0000
  H   H35       1.0  0.19392999999999996  0.34453  0.50986  1.0000
  H   H36       1.0  0.64916  0.04829  0.55005  1.0000
  H   H37       1.0  0.5684199999999999  0.07747999999999997  0.7538600000000001  1.0000
  H   H38       1.0  0.34798  0.94858  0.7495300000000001  1.0000
  H   H39       1.0  0.1913700000000001  0.98556  0.84657  1.0000
  H   H40       1.0  0.71628  0.03475999999999997  0.65986  1.0000
  H   H41       1.0  0.4878299999999998  0.8529499999999999  0.95497  1.0000
  H   H42       1.0  0.47723999999999994  0.34629999999999994  0.9192000000000001  1.0000
  H   H43       1.0  0.7004499999999999  0.931  0.86757  1.0000
  H   H44       1.0  0.4447200000000003  0.24521  0.89033  1.0000
  H   H45       1.0  0.08584999999999998  0.25531  0.01789  1.0000
  H   H46       1.0  0.8916800000000001  0.14720999999999992  0.8349300000000001  1.0000
  H   H47       1.0  0.05063999999999998  0.15322000000000002  0.99085  1.0000
  H   H48       1.0  0.24738999999999994  0.45245  0.9495300000000001  1.0000
  C   C1        1.0  0.45582  0.54877  0.25316  1.0000
  C   C2        1.0  0.09049000000000001  0.4771  0.25081  1.0000
  C   C3        1.0  0.10472000000000006  0.49763  0.30509  1.0000
  C   C4        1.0  0.26381  0.49084000000000005  0.19813  1.0000
  C   C5        1.0  0.4464400000000001  0.52616  0.19982  1.0000
  C   C6        1.0  0.5587000000000001  0.47718  0.5255600000000001  1.0000
  C   C7        1.0  0.6293  0.39943  0.46092  1.0000
  C   C8        1.0  0.16304  0.80425  0.43334  1.0000
  C   C9        1.0  0.5159  0.44283000000000006  0.41211  1.0000
  C   C10       1.0  0.25014  0.46963  0.13964  1.0000
  C   C11       1.0  0.4194399999999998  0.50583  0.41689  1.0000
  C   C12       1.0  0.25187000000000004  0.74739  0.41716  1.0000
  C   C13       1.0  0.2862100000000001  0.53375  0.30655  1.0000
  C   C14       1.0  0.8638900000000002  0.86711  0.49111000000000005  1.0000
  C   C15       1.0  0.65558  0.41499  0.51904  1.0000
  C   C16       1.0  0.8145899999999998  0.7542300000000001  0.48949  1.0000
  C   C17       1.0  0.2130899999999999  0.61257  0.37327000000000005  1.0000
  C   C18       1.0  0.9462499999999996  0.8078100000000001  0.47012000000000004  1.0000
  C   C19       1.0  0.90446  0.69713  0.47385000000000005  1.0000
  C   C20       1.0  0.12458999999999991  0.6929700000000001  0.43852  1.0000
  C   C21       1.0  0.30574  0.5518  0.36626000000000003  1.0000
  C   C22       1.0  0.22898999999999972  0.6293500000000001  0.42973  1.0000
  C   C23       1.0  0.2623899999999999  0.9509099999999998  0.24682000000000004  1.0000
  C   C24       1.0  0.82231  0.023039999999999995  0.24938000000000002  1.0000
  C   C25       1.0  0.91023  0.002299999999999992  0.19512000000000002  1.0000
  C   C26       1.0  0.9575399999999998  0.00918999999999999  0.30204  1.0000
  C   C27       1.0  0.1779899999999998  0.97367  0.30017  1.0000
  C   C28       1.0  0.56073  0.022629999999999994  0.97454  1.0000
  C   C29       1.0  0.49167999999999995  0.09956  0.04007  1.0000
  C   C30       1.0  0.3979899999999999  0.69524  0.06696  1.0000
  C   C31       1.0  0.3735299999999999  0.056179999999999994  0.08868000000000001  1.0000
  C   C32       1.0  0.86283  0.030280000000000015  0.36068  1.0000
  C   C33       1.0  0.34372  0.99361  0.08334  1.0000
  C   C34       1.0  0.4163099999999999  0.7523300000000002  0.08228  1.0000
  C   C35       1.0  0.12958999999999998  0.96574  0.19363  1.0000
  C   C36       1.0  0.21586  0.63215  0.01036  1.0000
  C   C37       1.0  0.5897499999999999  0.08441999999999998  0.9816000000000001  1.0000
  C   C38       1.0  0.05446000000000005  0.74591  0.01095  1.0000
  C   C39       1.0  0.20064999999999988  0.88727  0.12622  1.0000
  C   C40       1.0  0.21956  0.69177  0.03075  1.0000
  C   C41       1.0  0.07452000000000007  0.8032499999999999  0.025630000000000003  1.0000
  C   C42       1.0  0.2563900000000001  0.8072299999999999  0.0606  1.0000
  C   C43       1.0  0.22607000000000002  0.94767  0.1338  1.0000
  C   C44       1.0  0.28848999999999997  0.87075  0.06947  1.0000
  C   C45       1.0  0.54464  0.4512  0.74689  1.0000
  C   C46       1.0  0.9101799999999998  0.5227899999999999  0.7492100000000002  1.0000
  C   C47       1.0  0.8956599999999997  0.5023  0.69493  1.0000
  C   C48       1.0  0.73728  0.50897  0.8020000000000002  1.0000
  C   C49       1.0  0.5544  0.47371999999999986  0.80027  1.0000
  C   C50       1.0  0.44153  0.52265  0.47443  1.0000
  C   C51       1.0  0.3707699999999999  0.60041  0.53906  1.0000
  C   C52       1.0  0.8358199999999999  0.19538  0.56688  1.0000
  C   C53       1.0  0.4843200000000001  0.55702  0.58786  1.0000
  C   C54       1.0  0.7517499999999996  0.52996  0.86061  1.0000
  C   C55       1.0  0.58082  0.49402000000000007  0.5831  1.0000
  C   C56       1.0  0.74737  0.25236  0.58291  1.0000
  C   C57       1.0  0.71421  0.46615999999999996  0.6934700000000001  1.0000
  C   C58       1.0  0.13526  0.13221  0.50924  1.0000
  C   C59       1.0  0.3445199999999999  0.58482  0.48096  1.0000
  C   C60       1.0  0.18432999999999997  0.24521000000000004  0.51064  1.0000
  C   C61       1.0  0.7871199999999999  0.38728000000000007  0.62671  1.0000
  C   C62       1.0  0.05251999999999999  0.19164  0.5301  1.0000
  C   C63       1.0  0.09494000000000002  0.30239  0.52619  1.0000
  C   C64       1.0  0.8749500000000001  0.30672  0.56153  1.0000
  C   C65       1.0  0.6945399999999998  0.44806000000000007  0.6337500000000001  1.0000
  C   C66       1.0  0.7710599999999999  0.37043000000000004  0.57027  1.0000
  C   C67       1.0  0.7378499999999999  0.04885000000000002  0.75321  1.0000
  C   C68       1.0  0.17796999999999996  0.97672  0.7508400000000001  1.0000
  C   C69       1.0  0.08983  0.99755  0.80502  1.0000
  C   C70       1.0  0.04251999999999986  0.9903000000000001  0.6982500000000001  1.0000
  C   C71       1.0  0.8222  0.025909999999999975  0.69998  1.0000
  C   C72       1.0  0.4386799999999998  0.97715  0.02548  1.0000
  C   C73       1.0  0.5080799999999998  0.9001800000000001  0.9600000000000001  1.0000
  C   C74       1.0  0.6047999999999998  0.3043  0.9334700000000001  1.0000
  C   C75       1.0  0.62617  0.94358  0.91138  1.0000
  C   C76       1.0  0.13708999999999988  0.96878  0.6398600000000001  1.0000
  C   C77       1.0  0.6557799999999999  0.006169999999999994  0.91668  1.0000
  C   C78       1.0  0.5855099999999999  0.24744999999999995  0.9178700000000001  1.0000
  C   C79       1.0  0.87035  0.03404999999999999  0.8064400000000002  1.0000
  C   C80       1.0  0.78612  0.3664299999999999  0.9910400000000001  1.0000
  C   C81       1.0  0.40982  0.91534  0.01845  1.0000
  C   C82       1.0  0.94859  0.25309  0.98925  1.0000
  C   C83       1.0  0.7989300000000001  0.11247999999999998  0.87383  1.0000
  C   C84       1.0  0.7834299999999998  0.3072799999999999  0.9698600000000002  1.0000
  C   C85       1.0  0.92726  0.19595999999999997  0.97436  1.0000
  C   C86       1.0  0.74458  0.19234999999999994  0.9394800000000001  1.0000
  C   C87       1.0  0.7735  0.0521  0.86625  1.0000
  C   C88       1.0  0.7112299999999999  0.12896999999999995  0.9305900000000001  1.0000
  O   O1        1.0  0.34031000000000006  0.97851  0.47930000000000006  1.0000
  O   O2        1.0  0.4350099999999999  0.45956  0.10417000000000001  1.0000
  O   O3        1.0  0.04090000000000002  0.46353999999999995  0.12984000000000004  1.0000
  O   O4        1.0  0.6678799999999998  0.86663  0.5270700000000001  1.0000
  O   O5        1.0  0.9900499999999999  0.9137799999999998  0.47280000000000005  1.0000
  O   O6        1.0  0.7966999999999999  0.52081  0.021140000000000003  1.0000
  O   O7        1.0  0.0010299999999999491  0.03969999999999999  0.39679000000000003  1.0000
  O   O8        1.0  0.63729  0.036719999999999996  0.37004  1.0000
  O   O9        1.0  0.05047  0.63248  0.9758  1.0000
  O   O10       1.0  0.3742599999999999  0.58583  0.02743  1.0000
  O   O11       1.0  0.65978  0.02126999999999999  0.52088  1.0000
  O   O12       1.0  0.5676699999999997  0.5392800000000002  0.8967100000000001  1.0000
  O   O13       1.0  0.9610100000000001  0.53659  0.87005  1.0000
  O   O14       1.0  0.33102  0.13309999999999997  0.47304  1.0000
  O   O15       1.0  0.01068999999999997  0.08519999999999998  0.5277100000000001  1.0000
  O   O16       1.0  0.20436999999999997  0.47899999999999987  0.97923  1.0000
  O   O17       1.0  0.99897  0.95769  0.60466  1.0000
  O   O18       1.0  0.36244999999999994  0.9636199999999999  0.62986  1.0000
  O   O19       1.0  0.9526199999999999  0.36662  0.02495  1.0000
  O   O20       1.0  0.62509  0.41224000000000005  0.97479  1.0000
