data_image0
_chemical_formula_structural       Cu4H64C96N32O8
_chemical_formula_sum              "Cu4 H64 C96 N32 O8"
_cell_length_a       16.02607
_cell_length_b       16.16414
_cell_length_c       16.16641
_cell_angle_alpha    96.40506
_cell_angle_beta     116.43844
_cell_angle_gamma    116.43842

_symmetry_space_group_name_H-M    'P 1'
_symmetry_Int_Tables_number       1

loop_
  _symmetry_equiv_pos_as_xyz
  'x,y,z'

loop_
  _atom_site_type_symbol
  _atom_site_label
  _atom_site_symmetry_multiplicity
  _atom_site_fract_x
  _atom_site_fract_y
  _atom_site_fract_z
  _atom_site_occupancy
  Cu  Cu1       1.0  0.55243  0.17786  0.12535  1.0000
  Cu  Cu2       1.0  0.44728  0.5733  0.62455  1.0000
  Cu  Cu3       1.0  0.94731  0.37455  0.82333  1.0000
  Cu  Cu4       1.0  0.05242000000000007  0.87533  0.42786000000000013  1.0000
  H   H1        1.0  0.7938699999999996  0.33425  0.27651  1.0000
  H   H2        1.0  0.92766  0.52011  0.37636  1.0000
  H   H3        1.0  0.8493200000000004  0.62697  0.35776  1.0000
  H   H4        1.0  0.64447  0.54563  0.23537000000000005  1.0000
  H   H5        1.0  0.13925  0.20147  0.82323  1.0000
  H   H6        1.0  0.34273  0.4894  0.06701  1.0000
  H   H7        1.0  0.9987400000000002  0.24308000000000007  0.7383700000000002  1.0000
  H   H8        1.0  0.19249  0.51743  0.97304  1.0000
  H   H9        1.0  0.20904000000000003  0.48402  0.54195  1.0000
  H   H10       1.0  0.07317000000000001  0.44929  0.5924  1.0000
  H   H11       1.0  0.14919000000000013  0.5085300000000001  0.7768000000000003  1.0000
  H   H12       1.0  0.35399000000000025  0.5914899999999998  0.9007400000000001  1.0000
  H   H13       1.0  0.86064  0.6837799999999999  0.06383  1.0000
  H   H14       1.0  0.65593  0.72555  0.14743  1.0000
  H   H15       1.0  0.0008900000000000277  0.7394600000000001  0.24553000000000003  1.0000
  H   H16       1.0  0.8060100000000001  0.78209  0.32534  1.0000
  H   H17       1.0  0.93941  0.4569  0.66787  1.0000
  H   H18       1.0  0.85685  0.40522000000000014  0.4829200000000001  1.0000
  H   H19       1.0  0.73211  0.22091  0.37456  1.0000
  H   H20       1.0  0.68952  0.09742999999999997  0.45412  1.0000
  H   H21       1.0  0.62261  0.9388800000000002  0.79666  1.0000
  H   H22       1.0  0.57771  0.85166  0.50912  1.0000
  H   H23       1.0  0.49735  0.75763  0.75653  1.0000
  H   H24       1.0  0.45787  0.67442  0.4827800000000001  1.0000
  H   H25       1.0  0.06083999999999999  0.72692  0.5183  1.0000
  H   H26       1.0  0.14494999999999988  0.62523  0.5486  1.0000
  H   H27       1.0  0.26845  0.641  0.48666  1.0000
  H   H28       1.0  0.3104100000000002  0.76378  0.40616  1.0000
  H   H29       1.0  0.3776500000000001  0.17462000000000003  0.31839000000000006  1.0000
  H   H30       1.0  0.42282  0.93229  0.27355  1.0000
  H   H31       1.0  0.5019  0.2598  0.26084000000000007  1.0000
  H   H32       1.0  0.542  0.025910000000000013  0.215  1.0000
  H   H33       1.0  0.43931999999999993  0.41784  0.70684  1.0000
  H   H34       1.0  0.3567900000000002  0.23288  0.65516  1.0000
  H   H35       1.0  0.23208000000000004  0.12451000000000004  0.4708700000000001  1.0000
  H   H36       1.0  0.1894900000000001  0.20409  0.3474  1.0000
  H   H37       1.0  0.12262000000000005  0.54668  0.18887000000000007  1.0000
  H   H38       1.0  0.07772000000000003  0.25911  0.10167000000000002  1.0000
  H   H39       1.0  0.99738  0.50656  0.007650000000000001  1.0000
  H   H40       1.0  0.9579099999999998  0.23276999999999992  0.92445  1.0000
  H   H41       1.0  0.5608000000000001  0.26827000000000006  0.9769000000000001  1.0000
  H   H42       1.0  0.6449300000000002  0.29857  0.8752200000000001  1.0000
  H   H43       1.0  0.7684500000000002  0.23664000000000007  0.89102  1.0000
  H   H44       1.0  0.81041  0.15615  0.0138  1.0000
  H   H45       1.0  0.8776900000000001  0.06845000000000005  0.4246100000000001  1.0000
  H   H46       1.0  0.9228100000000001  0.02352000000000002  0.18230000000000005  1.0000
  H   H47       1.0  0.0019300000000000222  0.010880000000000008  0.5098  1.0000
  H   H48       1.0  0.04199999999999997  0.96496  0.27593  1.0000
  H   H49       1.0  0.70901  0.2918700000000001  0.73402  1.0000
  H   H50       1.0  0.57313  0.34231  0.69927  1.0000
  H   H51       1.0  0.64914  0.5267500000000002  0.7585000000000001  1.0000
  H   H52       1.0  0.85395  0.6507  0.84147  1.0000
  H   H53       1.0  0.36064  0.8138  0.93382  1.0000
  H   H54       1.0  0.15592000000000014  0.8974300000000001  0.9755300000000002  1.0000
  H   H55       1.0  0.5009000000000001  0.9955300000000002  0.9895000000000003  1.0000
  H   H56       1.0  0.30601  0.07536  0.03209  1.0000
  H   H57       1.0  0.29389000000000004  0.026520000000000026  0.58428  1.0000
  H   H58       1.0  0.42766  0.12635999999999994  0.77011  1.0000
  H   H59       1.0  0.3493  0.10775000000000001  0.87695  1.0000
  H   H60       1.0  0.1444499999999999  0.98536  0.79559  1.0000
  H   H61       1.0  0.63921  0.57321  0.45148  1.0000
  H   H62       1.0  0.84274  0.81701  0.73939  1.0000
  H   H63       1.0  0.49872000000000016  0.48834999999999995  0.4931  1.0000
  H   H64       1.0  0.69251  0.72304  0.76743  1.0000
  C   C1        1.0  0.7646000000000003  0.38400000000000006  0.26955  1.0000
  C   C2        1.0  0.8382199999999999  0.48688999999999993  0.32608  1.0000
  C   C3        1.0  0.79485  0.54647  0.3151  1.0000
  C   C4        1.0  0.6807200000000002  0.50153  0.24674  1.0000
  C   C5        1.0  0.61255  0.3976  0.18991000000000005  1.0000
  C   C6        1.0  0.49597  0.346  0.11091  1.0000
  C   C7        1.0  0.33559  0.31995  0.00409  1.0000
  C   C8        1.0  0.25306999999999996  0.34131  0.95422  1.0000
  C   C9        1.0  0.1528800000000002  0.27131  0.8594000000000003  1.0000
  C   C10       1.0  0.2671400000000001  0.43223  0.99516  1.0000
  C   C11       1.0  0.07499000000000018  0.2943200000000001  0.8122800000000001  1.0000
  C   C12       1.0  0.1838300000000001  0.4482  0.94326  1.0000
  C   C13       1.0  0.23719  0.50585  0.62049  1.0000
  C   C14       1.0  0.16245  0.4884  0.64896  1.0000
  C   C15       1.0  0.20455  0.52054  0.75135  1.0000
  C   C16       1.0  0.31864  0.56641  0.82078  1.0000
  C   C17       1.0  0.3880800000000001  0.5779600000000001  0.7859000000000002  1.0000
  C   C18       1.0  0.50482  0.61575  0.8513400000000001  1.0000
  C   C19       1.0  0.66452  0.66914  0.98604  1.0000
  C   C20       1.0  0.7462900000000002  0.70143  0.08968  1.0000
  C   C21       1.0  0.8467200000000001  0.7064900000000001  0.11986  1.0000
  C   C22       1.0  0.73167  0.72876  0.16608  1.0000
  C   C23       1.0  0.92437  0.7372300000000002  0.22046000000000004  1.0000
  C   C24       1.0  0.81491  0.76027  0.2651  1.0000
  C   C25       1.0  0.88314  0.37823  0.61747  1.0000
  C   C26       1.0  0.8384600000000001  0.34908  0.51505  1.0000
  C   C27       1.0  0.76843  0.24652  0.4547200000000001  1.0000
  C   C28       1.0  0.7441600000000002  0.17754  0.4985800000000001  1.0000
  C   C29       1.0  0.79001  0.21313999999999994  0.60219  1.0000
  C   C30       1.0  0.7632000000000002  0.14849  0.65321  1.0000
  C   C31       1.0  0.6837300000000002  0.014560000000000019  0.6785  1.0000
  C   C32       1.0  0.6129400000000002  0.91112  0.65694  1.0000
  C   C33       1.0  0.58889  0.88204  0.72725  1.0000
  C   C34       1.0  0.5634799999999999  0.8340199999999999  0.56648  1.0000
  C   C35       1.0  0.51945  0.78164  0.7049500000000002  1.0000
  C   C36       1.0  0.49658  0.73529  0.5514  1.0000
  C   C37       1.0  0.11701999999999997  0.73292  0.49526  1.0000
  C   C38       1.0  0.16231  0.67534  0.51023  1.0000
  C   C39       1.0  0.23184000000000007  0.68483  0.47660000000000013  1.0000
  C   C40       1.0  0.2557100000000001  0.75321  0.43206  1.0000
  C   C41       1.0  0.20997000000000002  0.8112900000000001  0.42305  1.0000
  C   C42       1.0  0.2378500000000001  0.8902  0.3867200000000001  1.0000
  C   C43       1.0  0.31773  0.99573  0.33293  1.0000
  C   C44       1.0  0.38763  0.0448  0.29914  1.0000
  C   C45       1.0  0.41116  0.13902000000000003  0.29428000000000004  1.0000
  C   C46       1.0  0.43678  0.0037799999999999978  0.27028  1.0000
  C   C47       1.0  0.4799500000000001  0.18611  0.26242  1.0000
  C   C48       1.0  0.50317  0.05561000000000002  0.23776  1.0000
  C   C49       1.0  0.3830700000000002  0.36744  0.62817  1.0000
  C   C50       1.0  0.33841  0.26501  0.59902  1.0000
  C   C51       1.0  0.2683900000000001  0.20468000000000003  0.4964800000000001  1.0000
  C   C52       1.0  0.24412000000000006  0.24855000000000002  0.42751000000000006  1.0000
  C   C53       1.0  0.28996  0.35217000000000004  0.4631100000000001  1.0000
  C   C54       1.0  0.26314999999999994  0.40320999999999996  0.39846  1.0000
  C   C55       1.0  0.18371  0.42850000000000005  0.26454  1.0000
  C   C56       1.0  0.11294000000000003  0.40694  0.16113000000000005  1.0000
  C   C57       1.0  0.08888999999999998  0.47727  0.13205  1.0000
  C   C58       1.0  0.0635  0.31648  0.08403  1.0000
  C   C59       1.0  0.01946999999999999  0.45497  0.03166  1.0000
  C   C60       1.0  0.9966100000000001  0.3014  0.9853200000000001  1.0000
  C   C61       1.0  0.617  0.24524  0.9829  1.0000
  C   C62       1.0  0.66229  0.2602  0.92534  1.0000
  C   C63       1.0  0.73183  0.22657999999999998  0.93484  1.0000
  C   C64       1.0  0.75571  0.18205  0.00322  1.0000
  C   C65       1.0  0.70997  0.17304  0.061280000000000015  1.0000
  C   C66       1.0  0.73785  0.13672  0.1402  1.0000
  C   C67       1.0  0.81774  0.08294  0.24573  1.0000
  C   C68       1.0  0.88765  0.049150000000000006  0.2948  1.0000
  C   C69       1.0  0.9111900000000003  0.04432  0.38902  1.0000
  C   C70       1.0  0.93679  0.02027  0.25379  1.0000
  C   C71       1.0  0.97998  0.012450000000000004  0.43611  1.0000
  C   C72       1.0  0.003170000000000045  0.98775  0.30562  1.0000
  C   C73       1.0  0.7371600000000001  0.37042  0.7558400000000001  1.0000
  C   C74       1.0  0.6624100000000003  0.39889  0.73838  1.0000
  C   C75       1.0  0.7045100000000002  0.5012900000000002  0.7705100000000003  1.0000
  C   C76       1.0  0.8185999999999999  0.57074  0.8163900000000002  1.0000
  C   C77       1.0  0.8880500000000005  0.5358600000000001  0.8279500000000002  1.0000
  C   C78       1.0  0.0047999999999999345  0.6013  0.86576  1.0000
  C   C79       1.0  0.16450999999999993  0.73601  0.91916  1.0000
  C   C80       1.0  0.24628000000000014  0.8396600000000001  0.9514400000000002  1.0000
  C   C81       1.0  0.3467100000000002  0.8698400000000001  0.9565100000000002  1.0000
  C   C82       1.0  0.23166  0.91607  0.97875  1.0000
  C   C83       1.0  0.4243800000000002  0.97045  0.9872500000000002  1.0000
  C   C84       1.0  0.31491  0.01511  0.01027  1.0000
  C   C85       1.0  0.26461  0.01955000000000003  0.634  1.0000
  C   C86       1.0  0.33822  0.07607999999999994  0.73689  1.0000
  C   C87       1.0  0.29484  0.06510000000000006  0.7964500000000001  1.0000
  C   C88       1.0  0.18071999999999988  0.9967399999999998  0.7515  1.0000
  C   C89       1.0  0.11254999999999994  0.9399199999999999  0.64759  1.0000
  C   C90       1.0  0.99596  0.86091  0.59599  1.0000
  C   C91       1.0  0.83558  0.75408  0.56995  1.0000
  C   C92       1.0  0.75306  0.70421  0.5913100000000001  1.0000
  C   C93       1.0  0.65285  0.60939  0.52132  1.0000
  C   C94       1.0  0.76714  0.74516  0.68223  1.0000
  C   C95       1.0  0.57497  0.56227  0.54433  1.0000
  C   C96       1.0  0.68383  0.69325  0.69821  1.0000
  N   N1        1.0  0.6542  0.33898000000000006  0.20278000000000004  1.0000
  N   N2        1.0  0.42895  0.25084  0.04914  1.0000
  N   N3        1.0  0.3269199999999999  0.23383999999999994  0.98126  1.0000
  N   N4        1.0  0.08708999999999999  0.38088  0.85254  1.0000
  N   N5        1.0  0.34757  0.54941  0.68611  1.0000
  N   N6        1.0  0.5734900000000002  0.6222599999999999  0.82429  1.0000
  N   N7        1.0  0.67504  0.65627  0.9095500000000002  1.0000
  N   N8        1.0  0.91173  0.76561  0.29452  1.0000
  N   N9        1.0  0.8606199999999999  0.31309  0.66143  1.0000
  N   N10       1.0  0.7973900000000004  0.1765700000000001  0.7484900000000002  1.0000
  N   N11       1.0  0.74738  0.09177  0.76498  1.0000
  N   N12       1.0  0.47322999999999993  0.7068699999999999  0.61868  1.0000
  N   N13       1.0  0.13895000000000002  0.7994700000000001  0.4525900000000001  1.0000
  N   N14       1.0  0.20481000000000002  0.95228  0.38279  1.0000
  N   N15       1.0  0.25508  0.01927999999999999  0.34847  1.0000
  N   N16       1.0  0.52601  0.14609  0.23287  1.0000
  N   N17       1.0  0.3605499999999999  0.41142  0.56304  1.0000
  N   N18       1.0  0.2973299999999999  0.4984899999999999  0.42654  1.0000
  N   N19       1.0  0.24733  0.51498  0.34175  1.0000
  N   N20       1.0  0.9732600000000002  0.36869  0.9569  1.0000
  N   N21       1.0  0.63894  0.20258  0.04946  1.0000
  N   N22       1.0  0.70481  0.1328  0.20227000000000003  1.0000
  N   N23       1.0  0.7550900000000003  0.09849  0.26927  1.0000
  N   N24       1.0  0.026010000000000044  0.98287  0.3961000000000001  1.0000
  N   N25       1.0  0.84754  0.43605  0.79941  1.0000
  N   N26       1.0  0.07346000000000018  0.57424  0.8723000000000002  1.0000
  N   N27       1.0  0.17502000000000006  0.6595  0.90632  1.0000
  N   N28       1.0  0.41174  0.04454  0.01563  1.0000
  N   N29       1.0  0.15420999999999999  0.95279  0.58898  1.0000
  N   N30       1.0  0.9289300000000003  0.79912  0.50084  1.0000
  N   N31       1.0  0.8269000000000002  0.7312400000000001  0.4838500000000001  1.0000
  N   N32       1.0  0.58709  0.60253  0.6309  1.0000
  O   O1        1.0  0.4421900000000001  0.39531000000000005  0.08758000000000003  1.0000
  O   O2        1.0  0.5572  0.64536  0.95397  1.0000
  O   O3        1.0  0.69095  0.045649999999999996  0.60346  1.0000
  O   O4        1.0  0.30976999999999993  0.91259  0.35523  1.0000
  O   O5        1.0  0.19092  0.35345  0.29563  1.0000
  O   O6        1.0  0.80977  0.10523  0.1626  1.0000
  O   O7        1.0  0.05718000000000007  0.7039500000000001  0.89536  1.0000
  O   O8        1.0  0.9421799999999999  0.83759  0.64529  1.0000
