data_image0
_chemical_formula_structural       Cu8H56C112O32
_chemical_formula_sum              "Cu8 H56 C112 O32"
_cell_length_a       18.26922
_cell_length_b       18.26589
_cell_length_c       24.65604
_cell_angle_alpha    105.31128
_cell_angle_beta     105.38984
_cell_angle_gamma    106.76321000000002

_symmetry_space_group_name_H-M    'P 1'
_symmetry_Int_Tables_number       1

loop_
  _symmetry_equiv_pos_as_xyz
  'x,y,z'

loop_
  _atom_site_type_symbol
  _atom_site_label
  _atom_site_symmetry_multiplicity
  _atom_site_fract_x
  _atom_site_fract_y
  _atom_site_fract_z
  _atom_site_occupancy
  Cu  Cu1       1.0  0.50635  0.9529900000000001  0.95749  1.0000
  Cu  Cu2       1.0  0.4512599999999999  0.5043199999999999  0.9575199999999999  1.0000
  Cu  Cu3       1.0  0.04703999999999992  0.49359999999999987  0.5425199999999999  1.0000
  Cu  Cu4       1.0  0.4957699999999999  0.54874  0.54249  1.0000
  Cu  Cu5       1.0  0.4936499999999999  0.046999999999999986  0.04251  1.0000
  Cu  Cu6       1.0  0.54874  0.49567999999999995  0.04249  1.0000
  Cu  Cu7       1.0  0.9529599999999999  0.50639  0.4574899999999999  1.0000
  Cu  Cu8       1.0  0.5042299999999998  0.45125  0.45751  1.0000
  H   H1        1.0  0.7782899999999999  0.57212  0.00838  1.0000
  H   H2        1.0  0.70813  0.64907  0.82813  1.0000
  H   H3        1.0  0.88346  0.6128599999999997  0.96338  1.0000
  H   H4        1.0  0.6028899999999998  0.6056699999999997  0.8722099999999998  1.0000
  H   H5        1.0  0.76574  0.57888  0.7729  1.0000
  H   H6        1.0  0.72769  0.59998  0.6883  1.0000
  H   H7        1.0  0.23101999999999995  0.9366599999999999  0.00858  1.0000
  H   H8        1.0  0.11928999999999998  0.67878  0.82836  1.0000
  H   H9        1.0  0.08031999999999988  0.8508299999999999  0.9637399999999999  1.0000
  H   H10       1.0  0.2689999999999999  0.76646  0.87229  1.0000
  H   H11       1.0  0.006960000000000032  0.69383  0.77339  1.0000
  H   H12       1.0  0.9610499999999997  0.58836  0.6887999999999999  1.0000
  H   H13       1.0  0.42788999999999994  0.22183999999999993  0.49166999999999994  1.0000
  H   H14       1.0  0.35091  0.29175  0.67178  1.0000
  H   H15       1.0  0.3871  0.11654999999999995  0.53669  1.0000
  H   H16       1.0  0.3943699999999999  0.39708999999999994  0.6276999999999999  1.0000
  H   H17       1.0  0.42105999999999993  0.23421  0.72703  1.0000
  H   H18       1.0  0.39994  0.27237  0.81158  1.0000
  H   H19       1.0  0.06331999999999993  0.7690699999999999  0.4913799999999999  1.0000
  H   H20       1.0  0.32125  0.88064  0.67171  1.0000
  H   H21       1.0  0.14910999999999996  0.9197  0.53622  1.0000
  H   H22       1.0  0.23362999999999998  0.73098  0.62778  1.0000
  H   H23       1.0  0.30615999999999993  0.99302  0.7266899999999998  1.0000
  H   H24       1.0  0.4116799999999999  0.03908  0.81133  1.0000
  H   H25       1.0  0.22170999999999993  0.4278799999999999  0.9916199999999997  1.0000
  H   H26       1.0  0.29187  0.35091999999999995  0.17186999999999997  1.0000
  H   H27       1.0  0.11653999999999999  0.38714  0.03663  1.0000
  H   H28       1.0  0.39709999999999995  0.39433  0.12779  1.0000
  H   H29       1.0  0.23425999999999997  0.42111  0.22711  1.0000
  H   H30       1.0  0.27231  0.40001  0.3117  1.0000
  H   H31       1.0  0.7689799999999999  0.06333999999999997  0.9914199999999999  1.0000
  H   H32       1.0  0.8807099999999999  0.32121  0.17164  1.0000
  H   H33       1.0  0.9196799999999999  0.14917  0.036259999999999994  1.0000
  H   H34       1.0  0.731  0.23353  0.12770999999999996  1.0000
  H   H35       1.0  0.9930399999999999  0.30617  0.22661999999999996  1.0000
  H   H36       1.0  0.03894999999999996  0.41163999999999995  0.31121  1.0000
  H   H37       1.0  0.5721099999999998  0.77816  0.50833  1.0000
  H   H38       1.0  0.64909  0.70825  0.32822  1.0000
  H   H39       1.0  0.6128900000000002  0.8834500000000001  0.46331  1.0000
  H   H40       1.0  0.6056299999999999  0.60291  0.37229999999999996  1.0000
  H   H41       1.0  0.57894  0.76579  0.27297  1.0000
  H   H42       1.0  0.60006  0.72763  0.18841999999999998  1.0000
  H   H43       1.0  0.9366799999999998  0.23092  0.50862  1.0000
  H   H44       1.0  0.6787499999999997  0.11935  0.32829  1.0000
  H   H45       1.0  0.85089  0.08029999999999997  0.4637899999999999  1.0000
  H   H46       1.0  0.76637  0.26901  0.37222  1.0000
  H   H47       1.0  0.6938399999999999  0.006980000000000021  0.27331  1.0000
  H   H48       1.0  0.5883099999999999  0.9609199999999999  0.18868  1.0000
  H   H49       1.0  0.9707699999999999  0.72073  0.94177  1.0000
  H   H50       1.0  0.76048  0.51044  0.52077  1.0000
  H   H51       1.0  0.27926999999999996  0.029259999999999956  0.5582399999999998  1.0000
  H   H52       1.0  0.48956999999999995  0.23945999999999987  0.97923  1.0000
  H   H53       1.0  0.02923000000000002  0.27927  0.05824  1.0000
  H   H54       1.0  0.23950999999999997  0.48955999999999994  0.47923  1.0000
  H   H55       1.0  0.72073  0.9707400000000002  0.44176  1.0000
  H   H56       1.0  0.5104299999999999  0.76054  0.020769999999999997  1.0000
  C   C1        1.0  0.6835399999999998  0.58467  0.9422099999999999  1.0000
  C   C2        1.0  0.7636099999999998  0.5890499999999999  0.9689199999999998  1.0000
  C   C3        1.0  0.7232999999999999  0.63102  0.86703  1.0000
  C   C4        1.0  0.8027699999999998  0.63211  0.89172  1.0000
  C   C5        1.0  0.82241  0.61247  0.94383  1.0000
  C   C6        1.0  0.6644799999999998  0.6074399999999999  0.8916999999999998  1.0000
  C   C7        1.0  0.8613  0.64992  0.86081  1.0000
  C   C8        1.0  0.83064  0.61785  0.79722  1.0000
  C   C9        1.0  0.76723  0.5847999999999999  0.6649399999999999  1.0000
  C   C10       1.0  0.7351399999999999  0.55144  0.6016  1.0000
  C   C11       1.0  0.61764  0.55395  0.9650699999999999  1.0000
  C   C12       1.0  0.64755  0.53317  0.5664899999999999  1.0000
  C   C13       1.0  0.2587499999999999  0.85744  0.9423899999999998  1.0000
  C   C14       1.0  0.20569999999999994  0.8800199999999999  0.9691699999999999  1.0000
  C   C15       1.0  0.14338999999999977  0.7358299999999997  0.8672899999999998  1.0000
  C   C16       1.0  0.08887000000000002  0.75955  0.8920999999999999  1.0000
  C   C17       1.0  0.12167000000000001  0.83151  0.94419  1.0000
  C   C18       1.0  0.22701999999999986  0.78411  0.8918499999999998  1.0000
  C   C19       1.0  0.9992899999999999  0.71064  0.86109  1.0000
  C   C20       1.0  0.9663399999999999  0.6789599999999999  0.7975099999999999  1.0000
  C   C21       1.0  0.8980599999999999  0.57998  0.66516  1.0000
  C   C22       1.0  0.86712  0.55034  0.60181  1.0000
  C   C23       1.0  0.34762  0.9108699999999998  0.9653799999999999  1.0000
  C   C24       1.0  0.91991  0.5340699999999998  0.56688  1.0000
  C   C25       1.0  0.41532  0.31646  0.55779  1.0000
  C   C26       1.0  0.4109299999999999  0.23641999999999996  0.5311  1.0000
  C   C27       1.0  0.36895999999999984  0.27663999999999994  0.6329199999999999  1.0000
  C   C28       1.0  0.36784999999999995  0.19719999999999993  0.6082499999999998  1.0000
  C   C29       1.0  0.38748999999999995  0.1775899999999999  0.5561799999999999  1.0000
  C   C30       1.0  0.39254999999999995  0.33549999999999996  0.6082499999999998  1.0000
  C   C31       1.0  0.35003  0.13866000000000006  0.63917  1.0000
  C   C32       1.0  0.3820799999999999  0.16931999999999994  0.7027499999999999  1.0000
  C   C33       1.0  0.41514999999999996  0.23285  0.83501  1.0000
  C   C34       1.0  0.44855  0.26494  0.89836  1.0000
  C   C35       1.0  0.44606999999999997  0.3823799999999999  0.53494  1.0000
  C   C36       1.0  0.4667899999999999  0.3525  0.93349  1.0000
  C   C37       1.0  0.14257000000000003  0.7412500000000001  0.55762  1.0000
  C   C38       1.0  0.11996000000000002  0.79434  0.53083  1.0000
  C   C39       1.0  0.26417999999999997  0.8565799999999998  0.63276  1.0000
  C   C40       1.0  0.24042999999999995  0.9111299999999999  0.6079499999999999  1.0000
  C   C41       1.0  0.16846  0.87836  0.55582  1.0000
  C   C42       1.0  0.21593000000000004  0.77296  0.6082  1.0000
  C   C43       1.0  0.28934  0.0007000000000000057  0.63896  1.0000
  C   C44       1.0  0.32099000000000005  0.033639999999999996  0.70254  1.0000
  C   C45       1.0  0.42002  0.10204999999999999  0.83489  1.0000
  C   C46       1.0  0.44967999999999997  0.13297999999999993  0.8982299999999999  1.0000
  C   C47       1.0  0.08913999999999998  0.6523799999999998  0.53462  1.0000
  C   C48       1.0  0.4659  0.08011999999999998  0.93314  1.0000
  C   C49       1.0  0.31645999999999996  0.41533  0.0578  1.0000
  C   C50       1.0  0.23638  0.41095  0.031089999999999996  1.0000
  C   C51       1.0  0.2767  0.36898  0.13298  1.0000
  C   C52       1.0  0.19722999999999996  0.36788999999999994  0.10828  1.0000
  C   C53       1.0  0.17759  0.38751999999999986  0.05617  1.0000
  C   C54       1.0  0.3355199999999999  0.39255  0.1083  1.0000
  C   C55       1.0  0.13869999999999993  0.35008  0.1392  1.0000
  C   C56       1.0  0.16936  0.38215000000000005  0.20278  1.0000
  C   C57       1.0  0.23276999999999998  0.4152  0.33507  1.0000
  C   C58       1.0  0.2648599999999999  0.44855999999999985  0.39839999999999987  1.0000
  C   C59       1.0  0.3823599999999998  0.4460399999999999  0.03493  1.0000
  C   C60       1.0  0.35244999999999993  0.46681999999999996  0.43352  1.0000
  C   C61       1.0  0.74125  0.14256  0.057609999999999995  1.0000
  C   C62       1.0  0.7943  0.11998000000000002  0.03084  1.0000
  C   C63       1.0  0.8566099999999998  0.26416  0.13271  1.0000
  C   C64       1.0  0.9111299999999999  0.24045  0.10789999999999998  1.0000
  C   C65       1.0  0.87833  0.16849  0.05581  1.0000
  C   C66       1.0  0.77298  0.21589  0.10816  1.0000
  C   C67       1.0  0.0007099999999999972  0.28936  0.13892  1.0000
  C   C68       1.0  0.033659999999999975  0.32103  0.20248999999999998  1.0000
  C   C69       1.0  0.10194  0.42002  0.33484  1.0000
  C   C70       1.0  0.13287999999999997  0.44966  0.3982  1.0000
  C   C71       1.0  0.65238  0.08913  0.03463  1.0000
  C   C72       1.0  0.08009000000000001  0.46592000000000006  0.43312  1.0000
  C   C73       1.0  0.5846799999999998  0.6835399999999998  0.44220999999999994  1.0000
  C   C74       1.0  0.5890699999999999  0.76358  0.4689  1.0000
  C   C75       1.0  0.63104  0.7233599999999998  0.36709  1.0000
  C   C76       1.0  0.6321499999999998  0.8027999999999996  0.39176  1.0000
  C   C77       1.0  0.61251  0.8224  0.44382  1.0000
  C   C78       1.0  0.60744  0.6644899999999999  0.39175  1.0000
  C   C79       1.0  0.6499599999999999  0.86134  0.36084  1.0000
  C   C80       1.0  0.61792  0.83068  0.29726  1.0000
  C   C81       1.0  0.5848500000000001  0.76715  0.16499  1.0000
  C   C82       1.0  0.5514499999999998  0.73505  0.10164999999999998  1.0000
  C   C83       1.0  0.55393  0.6176199999999998  0.46505999999999986  1.0000
  C   C84       1.0  0.53321  0.6475  0.06652  1.0000
  C   C85       1.0  0.85743  0.25874  0.44238  1.0000
  C   C86       1.0  0.88004  0.20565999999999995  0.46917999999999993  1.0000
  C   C87       1.0  0.7358199999999999  0.14342  0.36724  1.0000
  C   C88       1.0  0.7595599999999998  0.08886999999999995  0.3920599999999999  1.0000
  C   C89       1.0  0.8315399999999998  0.12162999999999999  0.44419  1.0000
  C   C90       1.0  0.78407  0.22704  0.39181  1.0000
  C   C91       1.0  0.7106599999999997  0.9992999999999999  0.3610499999999999  1.0000
  C   C92       1.0  0.67901  0.9663599999999999  0.29746  1.0000
  C   C93       1.0  0.5799800000000002  0.89795  0.16511  1.0000
  C   C94       1.0  0.5503199999999999  0.86702  0.10177  1.0000
  C   C95       1.0  0.9108599999999999  0.34762  0.46538  1.0000
  C   C96       1.0  0.5340999999999998  0.9198799999999999  0.06686999999999999  1.0000
  C   C97       1.0  0.9460699999999999  0.69606  0.8925  1.0000
  C   C98       1.0  0.88224  0.63203  0.76477  1.0000
  C   C99       1.0  0.84889  0.59857  0.69769  1.0000
  C   C100      1.0  0.7851999999999999  0.53498  0.5699  1.0000
  C   C101      1.0  0.30391999999999997  0.053909999999999944  0.6075099999999999  1.0000
  C   C102      1.0  0.36788  0.11775  0.73524  1.0000
  C   C103      1.0  0.4013699999999999  0.15120000000000003  0.80231  1.0000
  C   C104      1.0  0.4650299999999999  0.21484999999999987  0.9300999999999998  1.0000
  C   C105      1.0  0.053929999999999964  0.3039399999999999  0.10751  1.0000
  C   C106      1.0  0.11775999999999996  0.36795999999999995  0.23523  1.0000
  C   C107      1.0  0.15111  0.40143  0.30231  1.0000
  C   C108      1.0  0.21478999999999995  0.46502  0.43010999999999994  1.0000
  C   C109      1.0  0.6960799999999999  0.94609  0.39249  1.0000
  C   C110      1.0  0.63212  0.88225  0.26477  1.0000
  C   C111      1.0  0.5986299999999999  0.8487999999999999  0.19769  1.0000
  C   C112      1.0  0.53497  0.78515  0.0699  1.0000
  O   O1        1.0  0.5449699999999997  0.5450499999999999  0.9337399999999998  1.0000
  O   O2        1.0  0.60988  0.57076  0.5927  1.0000
  O   O3        1.0  0.63714  0.53752  0.013069999999999997  1.0000
  O   O4        1.0  0.6174899999999999  0.48063999999999996  0.51223  1.0000
  O   O5        1.0  0.3888299999999999  0.8885100000000001  0.93403  1.0000
  O   O6        1.0  0.98365  0.5222299999999999  0.59293  1.0000
  O   O7        1.0  0.37623999999999996  0.97502  0.01363  1.0000
  O   O8        1.0  0.8961199999999999  0.53335  0.51289  1.0000
  O   O9        1.0  0.45503999999999994  0.45503  0.56626  1.0000
  O   O10       1.0  0.42920999999999987  0.39025  0.90729  1.0000
  O   O11       1.0  0.4624599999999999  0.3628700000000001  0.48694999999999994  1.0000
  O   O12       1.0  0.5193099999999999  0.3824599999999999  0.98777  1.0000
  O   O13       1.0  0.11151999999999995  0.61113  0.56598  1.0000
  O   O14       1.0  0.4777299999999998  0.016419999999999966  0.9070899999999998  1.0000
  O   O15       1.0  0.024949999999999938  0.6237999999999999  0.48635999999999996  1.0000
  O   O16       1.0  0.46659  0.10381999999999993  0.98709  1.0000
  O   O17       1.0  0.45503  0.45494  0.06627  1.0000
  O   O18       1.0  0.39011999999999986  0.4292399999999999  0.40729999999999994  1.0000
  O   O19       1.0  0.36286  0.46247999999999995  0.98693  1.0000
  O   O20       1.0  0.38251  0.51936  0.4877699999999999  1.0000
  O   O21       1.0  0.6111699999999999  0.11148  0.06597  1.0000
  O   O22       1.0  0.016349999999999996  0.47777  0.40708  1.0000
  O   O23       1.0  0.6237499999999998  0.024979999999999877  0.9863699999999997  1.0000
  O   O24       1.0  0.10388  0.46663999999999994  0.48711  1.0000
  O   O25       1.0  0.54495  0.5449599999999999  0.43373999999999996  1.0000
  O   O26       1.0  0.57079  0.60975  0.09270999999999997  1.0000
  O   O27       1.0  0.53754  0.6371199999999998  0.51306  1.0000
  O   O28       1.0  0.48068999999999995  0.61754  0.012229999999999998  1.0000
  O   O29       1.0  0.8884799999999999  0.38887  0.43402  1.0000
  O   O30       1.0  0.5222699999999999  0.98357  0.09291999999999999  1.0000
  O   O31       1.0  0.9750500000000004  0.37620000000000003  0.51365  1.0000
  O   O32       1.0  0.53341  0.89618  0.01291  1.0000
