data_image0
_chemical_formula_structural       Zn6H72C88N16O24
_chemical_formula_sum              "Zn6 H72 C88 N16 O24"
_cell_length_a       15.59806
_cell_length_b       15.5783
_cell_length_c       18.05215
_cell_angle_alpha    64.63885
_cell_angle_beta     64.54806
_cell_angle_gamma    84.91116

_symmetry_space_group_name_H-M    'P 1'
_symmetry_Int_Tables_number       1

loop_
  _symmetry_equiv_pos_as_xyz
  'x,y,z'

loop_
  _atom_site_type_symbol
  _atom_site_label
  _atom_site_symmetry_multiplicity
  _atom_site_fract_x
  _atom_site_fract_y
  _atom_site_fract_z
  _atom_site_occupancy
  Zn  Zn1       1.0  0.8108099999999998  0.4542999999999998  0.32585  1.0000
  Zn  Zn2       1.0  0.54574  0.1890699999999999  0.17406  1.0000
  Zn  Zn3       1.0  0.18919  0.5457  0.67415  1.0000
  Zn  Zn4       1.0  0.45425999999999994  0.8109299999999999  0.82594  1.0000
  Zn  Zn5       1.0  0.3428199999999998  0.6571499999999998  0.25042  1.0000
  Zn  Zn6       1.0  0.65718  0.3428499999999998  0.74958  1.0000
  H   H1        1.0  0.6220999999999998  0.58027  0.00837  1.0000
  H   H2        1.0  0.12278999999999997  0.6637199999999998  0.09745  1.0000
  H   H3        1.0  0.27191  0.3631699999999999  0.17517  1.0000
  H   H4        1.0  0.09471  0.3598599999999999  0.25433  1.0000
  H   H5        1.0  0.5671899999999997  0.59365  0.19252  1.0000
  H   H6        1.0  0.60846  0.4505699999999998  0.33006  1.0000
  H   H7        1.0  0.6924299999999998  0.8247899999999998  0.12337  1.0000
  H   H8        1.0  0.5933299999999998  0.7805399999999998  0.12099999999999997  1.0000
  H   H9        1.0  0.8560299999999997  0.6462599999999997  0.13477  1.0000
  H   H10       1.0  0.76085  0.92773  0.95446  1.0000
  H   H11       1.0  0.6707699999999998  0.8729399999999996  0.94909  1.0000
  H   H12       1.0  0.80144  0.7531399999999998  0.01649  1.0000
  H   H13       1.0  0.6970499999999997  0.7082899999999998  0.02116  1.0000
  H   H14       1.0  0.6366599999999998  0.0005500000000000002  0.04838  1.0000
  H   H15       1.0  0.5459399999999999  0.9381899999999997  0.04988  1.0000
  H   H16       1.0  0.63842  0.17206000000000002  0.9510199999999999  1.0000
  H   H17       1.0  0.6265700000000001  0.9769299999999995  0.84678  1.0000
  H   H18       1.0  0.6382800000000001  0.1618700000000001  0.7210199999999998  1.0000
  H   H19       1.0  0.4196799999999998  0.3778  0.49166  1.0000
  H   H20       1.0  0.33641999999999994  0.8773099999999997  0.40264  1.0000
  H   H21       1.0  0.63677  0.7279299999999997  0.32508  1.0000
  H   H22       1.0  0.64015  0.90527  0.24566  1.0000
  H   H23       1.0  0.40637999999999985  0.4330099999999998  0.30761  1.0000
  H   H24       1.0  0.5494299999999998  0.39159999999999984  0.16995  1.0000
  H   H25       1.0  0.17562000000000003  0.3073899999999999  0.37659  1.0000
  H   H26       1.0  0.21950000000000003  0.40670999999999996  0.37905  1.0000
  H   H27       1.0  0.35396999999999995  0.14386999999999991  0.36523  1.0000
  H   H28       1.0  0.07225999999999999  0.2391299999999999  0.54541  1.0000
  H   H29       1.0  0.1267699999999999  0.32931999999999995  0.55096  1.0000
  H   H30       1.0  0.24693  0.19862000000000005  0.4836499999999999  1.0000
  H   H31       1.0  0.29151  0.30324  0.47896  1.0000
  H   H32       1.0  0.9998899999999998  0.36334999999999995  0.45128  1.0000
  H   H33       1.0  0.061910000000000055  0.45413999999999977  0.45006  1.0000
  H   H34       1.0  0.8283600000000001  0.36145999999999995  0.5483399999999998  1.0000
  H   H35       1.0  0.02229  0.37348999999999993  0.6534  1.0000
  H   H36       1.0  0.8371199999999999  0.36173000000000005  0.77884  1.0000
  H   H37       1.0  0.37789999999999985  0.41972999999999994  0.99163  1.0000
  H   H38       1.0  0.87721  0.33627999999999986  0.90255  1.0000
  H   H39       1.0  0.7280899999999999  0.6368300000000001  0.8248299999999998  1.0000
  H   H40       1.0  0.9052900000000002  0.64014  0.7456699999999998  1.0000
  H   H41       1.0  0.43280999999999975  0.40634999999999993  0.80748  1.0000
  H   H42       1.0  0.39154000000000005  0.5494300000000001  0.6699399999999998  1.0000
  H   H43       1.0  0.30756999999999995  0.17520000000000002  0.8766299999999998  1.0000
  H   H44       1.0  0.4066700000000002  0.21945999999999996  0.879  1.0000
  H   H45       1.0  0.14396999999999996  0.35374  0.86523  1.0000
  H   H46       1.0  0.23914999999999992  0.07226  0.04554  1.0000
  H   H47       1.0  0.32922999999999997  0.12705999999999998  0.05090999999999998  1.0000
  H   H48       1.0  0.19855999999999996  0.2468599999999999  0.98351  1.0000
  H   H49       1.0  0.30295  0.29171  0.97884  1.0000
  H   H50       1.0  0.3633399999999999  0.99945  0.95162  1.0000
  H   H51       1.0  0.45406  0.06180999999999996  0.9501199999999999  1.0000
  H   H52       1.0  0.3615799999999999  0.8279399999999996  0.04898  1.0000
  H   H53       1.0  0.37343  0.023069999999999997  0.15322  1.0000
  H   H54       1.0  0.36171999999999993  0.8381299999999998  0.27897  1.0000
  H   H55       1.0  0.58032  0.6222000000000001  0.50833  1.0000
  H   H56       1.0  0.6635799999999998  0.12269000000000004  0.5973599999999999  1.0000
  H   H57       1.0  0.36322999999999983  0.2720699999999998  0.67492  1.0000
  H   H58       1.0  0.35985  0.09472999999999993  0.75434  1.0000
  H   H59       1.0  0.59363  0.56699  0.69239  1.0000
  H   H60       1.0  0.45057  0.6083999999999998  0.83005  1.0000
  H   H61       1.0  0.82438  0.6926099999999997  0.62341  1.0000
  H   H62       1.0  0.7805  0.5932899999999999  0.62095  1.0000
  H   H63       1.0  0.6460400000000002  0.8561199999999998  0.6347699999999997  1.0000
  H   H64       1.0  0.9277399999999999  0.7608699999999998  0.4545899999999999  1.0000
  H   H65       1.0  0.87323  0.6706699999999998  0.44904  1.0000
  H   H66       1.0  0.7530699999999999  0.8013799999999999  0.51635  1.0000
  H   H67       1.0  0.70849  0.6967499999999996  0.52103  1.0000
  H   H68       1.0  0.00011000000000001009  0.6366500000000002  0.54872  1.0000
  H   H69       1.0  0.93809  0.54585  0.54994  1.0000
  H   H70       1.0  0.17164  0.6385399999999999  0.45165  1.0000
  H   H71       1.0  0.97771  0.6265099999999996  0.3466  1.0000
  H   H72       1.0  0.16288000000000002  0.6382599999999998  0.22115999999999997  1.0000
  C   C1        1.0  0.29751  0.5146599999999998  0.09089  1.0000
  C   C2        1.0  0.25419  0.6001099999999998  0.06886  1.0000
  C   C3        1.0  0.47276999999999997  0.55524  0.049949999999999994  1.0000
  C   C4        1.0  0.56878  0.54554  0.00322  1.0000
  C   C5        1.0  0.4018899999999999  0.5093099999999998  0.04605  1.0000
  C   C6        1.0  0.99208  0.5116  0.23183  1.0000
  C   C7        1.0  0.15502999999999997  0.5973099999999999  0.11419  1.0000
  C   C8        1.0  0.4519399999999999  0.6109699999999998  0.10537  1.0000
  C   C9        1.0  0.09697000000000003  0.5114499999999997  0.18144999999999997  1.0000
  C   C10       1.0  0.23842999999999992  0.4286799999999999  0.15763  1.0000
  C   C11       1.0  0.30962999999999996  0.69664  0.9995799999999999  1.0000
  C   C12       1.0  0.13974000000000003  0.42654999999999976  0.2023  1.0000
  C   C13       1.0  0.63173  0.5805199999999998  0.20228  1.0000
  C   C14       1.0  0.65311  0.5115099999999998  0.2686  1.0000
  C   C15       1.0  0.6697800000000002  0.8074399999999998  0.08106  1.0000
  C   C16       1.0  0.78363  0.61152  0.16919  1.0000
  C   C17       1.0  0.6858299999999998  0.8957399999999996  0.99254  1.0000
  C   C18       1.0  0.72477  0.7288799999999998  0.05854  1.0000
  C   C19       1.0  0.62059  0.9707999999999998  0.009899999999999997  1.0000
  C   C20       1.0  0.63379  0.14540000000000003  0.90608  1.0000
  C   C21       1.0  0.6303099999999999  0.04417000000000002  0.84994  1.0000
  C   C22       1.0  0.63543  0.13613999999999998  0.788  1.0000
  C   C23       1.0  0.4853799999999997  0.70253  0.40936  1.0000
  C   C24       1.0  0.39997999999999995  0.7459  0.43137  1.0000
  C   C25       1.0  0.4446899999999999  0.5272099999999997  0.4502799999999999  1.0000
  C   C26       1.0  0.4544099999999998  0.43115999999999977  0.49681  1.0000
  C   C27       1.0  0.49067  0.5981299999999998  0.45416  1.0000
  C   C28       1.0  0.4885299999999998  0.007899999999999992  0.26803  1.0000
  C   C29       1.0  0.40281  0.8450699999999998  0.38595  1.0000
  C   C30       1.0  0.3890099999999998  0.5480599999999998  0.39498  1.0000
  C   C31       1.0  0.48864  0.9030599999999998  0.3185999999999999  1.0000
  C   C32       1.0  0.57134  0.76153  0.3425699999999999  1.0000
  C   C33       1.0  0.3035  0.6904599999999999  0.50065  1.0000
  C   C34       1.0  0.5734999999999998  0.8602399999999998  0.29777999999999993  1.0000
  C   C35       1.0  0.41953000000000007  0.3683599999999999  0.29786  1.0000
  C   C36       1.0  0.4885399999999999  0.3469399999999999  0.23145999999999997  1.0000
  C   C37       1.0  0.19270000000000004  0.33018999999999993  0.41896  1.0000
  C   C38       1.0  0.38863000000000003  0.21633  0.33087  1.0000
  C   C39       1.0  0.10423999999999996  0.31419  0.5074  1.0000
  C   C40       1.0  0.27113  0.2753299999999999  0.44158  1.0000
  C   C41       1.0  0.029350000000000032  0.3794499999999998  0.48992  1.0000
  C   C42       1.0  0.8546900000000001  0.36616999999999983  0.59342  1.0000
  C   C43       1.0  0.9552799999999997  0.36972999999999995  0.65  1.0000
  C   C44       1.0  0.8631999999999999  0.36458  0.71179  1.0000
  C   C45       1.0  0.7024899999999998  0.4853399999999998  0.90911  1.0000
  C   C46       1.0  0.7458099999999996  0.39989  0.9311399999999999  1.0000
  C   C47       1.0  0.5272299999999999  0.44474999999999976  0.95005  1.0000
  C   C48       1.0  0.43121999999999994  0.45445999999999986  0.9967799999999998  1.0000
  C   C49       1.0  0.5981199999999999  0.49068999999999996  0.95395  1.0000
  C   C50       1.0  0.007920000000000064  0.48840000000000006  0.7681699999999999  1.0000
  C   C51       1.0  0.8449699999999997  0.4026899999999998  0.8858099999999999  1.0000
  C   C52       1.0  0.54807  0.38902999999999993  0.8946299999999999  1.0000
  C   C53       1.0  0.9030299999999999  0.48854999999999993  0.81855  1.0000
  C   C54       1.0  0.7615699999999999  0.57132  0.84237  1.0000
  C   C55       1.0  0.6903699999999998  0.30336  0.0004199999999999999  1.0000
  C   C56       1.0  0.8602599999999996  0.57345  0.79769  1.0000
  C   C57       1.0  0.36827  0.4194799999999998  0.79772  1.0000
  C   C58       1.0  0.34689000000000003  0.4884899999999998  0.7314  1.0000
  C   C59       1.0  0.33022  0.19256  0.91894  1.0000
  C   C60       1.0  0.21636999999999992  0.38847  0.83081  1.0000
  C   C61       1.0  0.31417  0.10425999999999998  0.007459999999999998  1.0000
  C   C62       1.0  0.27523000000000003  0.27110999999999996  0.94146  1.0000
  C   C63       1.0  0.37942  0.02919999999999996  0.9901  1.0000
  C   C64       1.0  0.36621  0.8546  0.09392  1.0000
  C   C65       1.0  0.3696900000000001  0.9558299999999997  0.15005999999999997  1.0000
  C   C66       1.0  0.3645699999999999  0.8638599999999997  0.212  1.0000
  C   C67       1.0  0.5146199999999999  0.2974699999999998  0.59064  1.0000
  C   C68       1.0  0.6000199999999998  0.2541  0.56863  1.0000
  C   C69       1.0  0.55531  0.47277999999999987  0.54972  1.0000
  C   C70       1.0  0.54559  0.56884  0.50318  1.0000
  C   C71       1.0  0.5093299999999998  0.40187  0.54584  1.0000
  C   C72       1.0  0.51147  0.9921  0.73197  1.0000
  C   C73       1.0  0.5971899999999998  0.15493000000000004  0.61405  1.0000
  C   C74       1.0  0.6109899999999999  0.4519299999999998  0.60502  1.0000
  C   C75       1.0  0.5113599999999998  0.09694  0.6814  1.0000
  C   C76       1.0  0.4286599999999999  0.23847000000000007  0.6574299999999997  1.0000
  C   C77       1.0  0.6964999999999998  0.30954  0.49935  1.0000
  C   C78       1.0  0.4265000000000002  0.13976000000000002  0.7022199999999997  1.0000
  C   C79       1.0  0.5804699999999998  0.6316400000000001  0.7021399999999998  1.0000
  C   C80       1.0  0.51146  0.65306  0.76854  1.0000
  C   C81       1.0  0.8073  0.6698100000000001  0.58104  1.0000
  C   C82       1.0  0.6113699999999999  0.78366  0.6691299999999998  1.0000
  C   C83       1.0  0.89576  0.68581  0.4925999999999999  1.0000
  C   C84       1.0  0.7288699999999999  0.72467  0.5584199999999999  1.0000
  C   C85       1.0  0.9706499999999996  0.62055  0.51008  1.0000
  C   C86       1.0  0.14530999999999997  0.63383  0.40658  1.0000
  C   C87       1.0  0.04472000000000011  0.6302699999999998  0.3499899999999999  1.0000
  C   C88       1.0  0.1368  0.63542  0.28821  1.0000
  N   N1        1.0  0.7481099999999998  0.53153  0.24719999999999998  1.0000
  N   N2        1.0  0.71494  0.6427699999999997  0.14006  1.0000
  N   N3        1.0  0.6298799999999997  0.0511399999999999  0.92431  1.0000
  N   N4        1.0  0.6370399999999999  0.19836  0.82368  1.0000
  N   N5        1.0  0.46858999999999984  0.25186999999999987  0.25281  1.0000
  N   N6        1.0  0.35734  0.2851  0.36009  1.0000
  N   N7        1.0  0.9487799999999996  0.37014  0.57545  1.0000
  N   N8        1.0  0.8013999999999996  0.36293  0.67583  1.0000
  N   N9        1.0  0.25189  0.46846999999999983  0.7528  1.0000
  N   N10       1.0  0.28507  0.35723  0.85994  1.0000
  N   N11       1.0  0.37012  0.9488599999999998  0.07569  1.0000
  N   N12       1.0  0.36296  0.80163  0.17631999999999995  1.0000
  N   N13       1.0  0.53141  0.74813  0.74719  1.0000
  N   N14       1.0  0.6426599999999997  0.7149  0.63991  1.0000
  N   N15       1.0  0.05122000000000009  0.6298599999999998  0.42454999999999987  1.0000
  N   N16       1.0  0.19859999999999992  0.63707  0.32417  1.0000
  O   O1        1.0  0.36814  0.58815  0.1746  1.0000
  O   O2        1.0  0.51542  0.6718399999999998  0.08496  1.0000
  O   O3        1.0  0.9540799999999997  0.5878999999999998  0.22151  1.0000
  O   O4        1.0  0.94174  0.42739000000000005  0.28832  1.0000
  O   O5        1.0  0.2820799999999999  0.7698399999999997  0.00992  1.0000
  O   O6        1.0  0.3854299999999998  0.69508  0.93008  1.0000
  O   O7        1.0  0.41200999999999993  0.6318399999999997  0.32572  1.0000
  O   O8        1.0  0.32808000000000004  0.48463999999999985  0.41537  1.0000
  O   O9        1.0  0.41231999999999996  0.04599999999999999  0.27821  1.0000
  O   O10       1.0  0.57275  0.05812999999999998  0.21148  1.0000
  O   O11       1.0  0.23040000000000002  0.7178699999999998  0.4903399999999999  1.0000
  O   O12       1.0  0.30507  0.6147199999999998  0.57013  1.0000
  O   O13       1.0  0.63186  0.41184999999999994  0.8254  1.0000
  O   O14       1.0  0.48457999999999996  0.3281600000000001  0.9150299999999998  1.0000
  O   O15       1.0  0.045919999999999996  0.4120999999999998  0.77849  1.0000
  O   O16       1.0  0.058260000000000076  0.5726099999999998  0.7116799999999999  1.0000
  O   O17       1.0  0.7179200000000001  0.23016000000000003  0.99008  1.0000
  O   O18       1.0  0.61457  0.3049099999999999  0.06992  1.0000
  O   O19       1.0  0.5879899999999999  0.36816000000000004  0.67427  1.0000
  O   O20       1.0  0.6719199999999996  0.51536  0.58463  1.0000
  O   O21       1.0  0.5876800000000001  0.9539999999999998  0.72179  1.0000
  O   O22       1.0  0.4272500000000001  0.94187  0.78852  1.0000
  O   O23       1.0  0.7695999999999998  0.2821299999999999  0.50966  1.0000
  O   O24       1.0  0.6949300000000002  0.38527999999999996  0.42987  1.0000
