data_image0
_chemical_formula_structural       Mn9H42C90O36
_chemical_formula_sum              "Mn9 H42 C90 O36"
_cell_length_a       14.77473
_cell_length_b       19.525789999999997
_cell_length_c       19.514369999999996
_cell_angle_alpha    113.81102000000001
_cell_angle_beta     104.63048
_cell_angle_gamma    104.70309

_space_group_name_H-M_alt    "P 1"
_space_group_IT_number       1

loop_
  _space_group_symop_operation_xyz
  'x, y, z'

loop_
  _atom_site_type_symbol
  _atom_site_label
  _atom_site_symmetry_multiplicity
  _atom_site_fract_x
  _atom_site_fract_y
  _atom_site_fract_z
  _atom_site_occupancy
  Mn  Mn1       1.0  0.5871399999999998  0.69414  0.65647  1.0000
  Mn  Mn2       1.0  0.8942899999999998  0.9620499999999998  0.3062199999999999  1.0000
  Mn  Mn3       1.0  0.9313399999999997  0.34377  0.03775  1.0000
  Mn  Mn4       1.0  0.4128599999999999  0.30585  0.34353  1.0000
  Mn  Mn5       1.0  0.10571000000000001  0.03795000000000001  0.69378  1.0000
  Mn  Mn6       1.0  0.0686599999999999  0.6562299999999999  0.9622499999999998  1.0000
  Mn  Mn7       1.0  0.4999999999999998  0.5  0.5  1.0000
  Mn  Mn8       1.0  0.0  0.0  0.5  1.0000
  Mn  Mn9       1.0  0.0  0.5  0.0  1.0000
  H   H1        1.0  0.27933999999999987  0.17756999999999995  0.54016  1.0000
  H   H2        1.0  0.4296999999999999  0.29964  0.57826  1.0000
  H   H3        1.0  0.38296999999999964  0.23128999999999986  0.7895499999999998  1.0000
  H   H4        1.0  0.5307999999999999  0.35529  0.82891  1.0000
  H   H5        1.0  0.7859099999999996  0.6290199999999998  0.8192599999999998  1.0000
  H   H6        1.0  0.4851199999999998  0.44331999999999994  0.6511499999999998  1.0000
  H   H7        1.0  0.6875599999999997  0.40164  0.81835  1.0000
  H   H8        1.0  0.10156  0.36212  0.82226  1.0000
  H   H9        1.0  0.13027  0.27896  0.70094  1.0000
  H   H10       1.0  0.15146000000000004  0.55823  0.76896  1.0000
  H   H11       1.0  0.17539  0.47413  0.64539  1.0000
  H   H12       1.0  0.15762999999999996  0.19066999999999998  0.3714199999999999  1.0000
  H   H13       1.0  0.04167  0.20782  0.5563  1.0000
  H   H14       1.0  0.28608  0.41708  0.59846  1.0000
  H   H15       1.0  0.73882  0.4595  0.6375799999999998  1.0000
  H   H16       1.0  0.8514899999999997  0.42161  0.72115  1.0000
  H   H17       1.0  0.5931799999999999  0.21037999999999993  0.4414799999999999  1.0000
  H   H18       1.0  0.70192  0.1711  0.52588  1.0000
  H   H19       1.0  0.9663499999999998  0.18126999999999996  0.81006  1.0000
  H   H20       1.0  0.8335699999999998  0.3485  0.79151  1.0000
  H   H21       1.0  0.86914  0.18123000000000003  0.58317  1.0000
  H   H22       1.0  0.72066  0.8224300000000001  0.45984  1.0000
  H   H23       1.0  0.5702999999999999  0.7003499999999999  0.4217399999999999  1.0000
  H   H24       1.0  0.61703  0.76871  0.21045  1.0000
  H   H25       1.0  0.4692  0.64471  0.17108999999999994  1.0000
  H   H26       1.0  0.21408999999999995  0.37098  0.18074  1.0000
  H   H27       1.0  0.51488  0.55668  0.3488499999999999  1.0000
  H   H28       1.0  0.31244  0.59836  0.18165  1.0000
  H   H29       1.0  0.89844  0.63788  0.17773999999999995  1.0000
  H   H30       1.0  0.86973  0.72103  0.29906  1.0000
  H   H31       1.0  0.8485399999999995  0.44176  0.23103  1.0000
  H   H32       1.0  0.8246099999999998  0.52586  0.35461  1.0000
  H   H33       1.0  0.8423699999999997  0.8093299999999999  0.6285699999999999  1.0000
  H   H34       1.0  0.95833  0.7921799999999999  0.44368999999999986  1.0000
  H   H35       1.0  0.7139199999999998  0.58291  0.40154  1.0000
  H   H36       1.0  0.26118  0.5405  0.36242  1.0000
  H   H37       1.0  0.14850999999999998  0.57838  0.27885  1.0000
  H   H38       1.0  0.4068199999999998  0.7896199999999999  0.5585199999999998  1.0000
  H   H39       1.0  0.29808  0.82889  0.47412  1.0000
  H   H40       1.0  0.03364999999999999  0.81873  0.18993999999999994  1.0000
  H   H41       1.0  0.16642999999999994  0.6515  0.20847999999999994  1.0000
  H   H42       1.0  0.13085999999999998  0.81877  0.41683  1.0000
  C   C1        1.0  0.23083  0.12560000000000004  0.64157  1.0000
  C   C2        1.0  0.32214  0.19646000000000005  0.6625  1.0000
  C   C3        1.0  0.3354599999999998  0.21613999999999992  0.6029699999999998  1.0000
  C   C4        1.0  0.4191699999999999  0.2848  0.62457  1.0000
  C   C5        1.0  0.4907  0.33582  0.70619  1.0000
  C   C6        1.0  0.39454  0.24634999999999996  0.74372  1.0000
  C   C7        1.0  0.47752  0.31512  0.76525  1.0000
  C   C8        1.0  0.85238  0.5439500000000002  0.88495  1.0000
  C   C9        1.0  0.7480499999999998  0.51667  0.82328  1.0000
  C   C10       1.0  0.7278599999999997  0.5684599999999997  0.7943699999999998  1.0000
  C   C11       1.0  0.6330199999999998  0.54116  0.7324  1.0000
  C   C12       1.0  0.5580199999999997  0.46296  0.69969  1.0000
  C   C13       1.0  0.5749499999999997  0.41294  0.73233  1.0000
  C   C14       1.0  0.6712199999999998  0.44023000000000007  0.79361  1.0000
  C   C15       1.0  0.61078  0.59647  0.70358  1.0000
  C   C16       1.0  0.10440999999999986  0.5152999999999999  0.8744199999999998  1.0000
  C   C17       1.0  0.1250799999999999  0.46577  0.8036799999999997  1.0000
  C   C18       1.0  0.11896000000000002  0.38667  0.78387  1.0000
  C   C19       1.0  0.13433  0.33993  0.7154  1.0000
  C   C20       1.0  0.15478  0.37061  0.6644  1.0000
  C   C21       1.0  0.14774999999999994  0.49733  0.75396  1.0000
  C   C22       1.0  0.16217999999999994  0.45033999999999996  0.68531  1.0000
  C   C23       1.0  0.3097599999999999  0.34195999999999993  0.4573799999999999  1.0000
  C   C24       1.0  0.23184999999999992  0.3071099999999999  0.4837999999999999  1.0000
  C   C25       1.0  0.15995  0.22634  0.43185  1.0000
  C   C26       1.0  0.09221  0.19154  0.45895  1.0000
  C   C27       1.0  0.09511999999999994  0.23697  0.53699  1.0000
  C   C28       1.0  0.16192  0.31976  0.58722  1.0000
  C   C29       1.0  0.23104  0.35377  0.56003  1.0000
  C   C30       1.0  0.014769999999999948  0.10724999999999993  0.40361999999999987  1.0000
  C   C31       1.0  0.58929  0.3585400000000001  0.48437  1.0000
  C   C32       1.0  0.65943  0.33736  0.534  1.0000
  C   C33       1.0  0.7323099999999999  0.39679  0.61319  1.0000
  C   C34       1.0  0.79461  0.37522  0.66004  1.0000
  C   C35       1.0  0.78453  0.29366  0.62924  1.0000
  C   C36       1.0  0.6506199999999998  0.2562  0.50239  1.0000
  C   C37       1.0  0.71222  0.23469999999999996  0.54946  1.0000
  C   C38       1.0  0.96808  0.1157399999999999  0.6596199999999998  1.0000
  C   C39       1.0  0.9244999999999998  0.17675  0.69339  1.0000
  C   C40       1.0  0.93307  0.20575999999999994  0.77407  1.0000
  C   C41       1.0  0.90022  0.2676199999999999  0.8085499999999998  1.0000
  C   C42       1.0  0.8580999999999998  0.3001499999999998  0.7628699999999998  1.0000
  C   C43       1.0  0.84243  0.26745  0.6802  1.0000
  C   C44       1.0  0.8772799999999997  0.20613000000000004  0.64641  1.0000
  C   C45       1.0  0.9069099999999997  0.29630999999999985  0.8927199999999998  1.0000
  C   C46       1.0  0.7691799999999999  0.8744000000000001  0.3584299999999999  1.0000
  C   C47       1.0  0.67787  0.80354  0.3374899999999999  1.0000
  C   C48       1.0  0.66454  0.78386  0.39702  1.0000
  C   C49       1.0  0.5808299999999997  0.7152  0.37543  1.0000
  C   C50       1.0  0.5092999999999999  0.66418  0.2938  1.0000
  C   C51       1.0  0.60546  0.75365  0.25628  1.0000
  C   C52       1.0  0.52248  0.68488  0.23475  1.0000
  C   C53       1.0  0.14762  0.45605  0.11505  1.0000
  C   C54       1.0  0.2519499999999999  0.4833299999999999  0.17672  1.0000
  C   C55       1.0  0.2721399999999998  0.43154  0.20562999999999995  1.0000
  C   C56       1.0  0.3669799999999999  0.45883999999999997  0.2676  1.0000
  C   C57       1.0  0.44198  0.53703  0.30031  1.0000
  C   C58       1.0  0.42504999999999993  0.5870599999999999  0.26767  1.0000
  C   C59       1.0  0.3287799999999999  0.55977  0.20638999999999993  1.0000
  C   C60       1.0  0.3892199999999999  0.40352  0.29642  1.0000
  C   C61       1.0  0.89559  0.4847  0.12558  1.0000
  C   C62       1.0  0.87492  0.5342199999999999  0.19631999999999994  1.0000
  C   C63       1.0  0.8810399999999996  0.61333  0.21611999999999998  1.0000
  C   C64       1.0  0.86567  0.66007  0.2846  1.0000
  C   C65       1.0  0.8452199999999997  0.62939  0.33559  1.0000
  C   C66       1.0  0.8522599999999998  0.50267  0.24603999999999998  1.0000
  C   C67       1.0  0.8378199999999998  0.54965  0.3146799999999999  1.0000
  C   C68       1.0  0.6902399999999997  0.65804  0.5426199999999998  1.0000
  C   C69       1.0  0.76815  0.69289  0.51619  1.0000
  C   C70       1.0  0.84005  0.7736599999999998  0.5681399999999998  1.0000
  C   C71       1.0  0.9077900000000001  0.8084600000000001  0.54105  1.0000
  C   C72       1.0  0.90488  0.76302  0.46300999999999987  1.0000
  C   C73       1.0  0.8380799999999999  0.6802399999999998  0.4127699999999999  1.0000
  C   C74       1.0  0.76896  0.64622  0.4399699999999999  1.0000
  C   C75       1.0  0.9852299999999997  0.89275  0.5963799999999998  1.0000
  C   C76       1.0  0.41072  0.64146  0.5156299999999998  1.0000
  C   C77       1.0  0.3405699999999999  0.66264  0.4659999999999999  1.0000
  C   C78       1.0  0.26769  0.60321  0.3868  1.0000
  C   C79       1.0  0.20538999999999993  0.62477  0.33996  1.0000
  C   C80       1.0  0.21547  0.70634  0.37076  1.0000
  C   C81       1.0  0.34938  0.74379  0.49760999999999994  1.0000
  C   C82       1.0  0.28778  0.7653  0.45053  1.0000
  C   C83       1.0  0.03192  0.88425  0.34038  1.0000
  C   C84       1.0  0.07549999999999993  0.82325  0.3066099999999999  1.0000
  C   C85       1.0  0.06693000000000002  0.7942300000000001  0.22593  1.0000
  C   C86       1.0  0.09977999999999998  0.73238  0.19145  1.0000
  C   C87       1.0  0.1419  0.69985  0.23712  1.0000
  C   C88       1.0  0.15756999999999996  0.73255  0.31979999999999986  1.0000
  C   C89       1.0  0.12272999999999992  0.7938599999999999  0.3535799999999999  1.0000
  C   C90       1.0  0.09308999999999999  0.70369  0.10728  1.0000
  O   O1        1.0  0.54096  0.56741  0.63174  1.0000
  O   O2        1.0  0.8699499999999999  0.50024  0.91565  1.0000
  O   O3        1.0  0.15783  0.08811  0.57175  1.0000
  O   O4        1.0  0.23202999999999982  0.10753999999999984  0.6990199999999998  1.0000
  O   O5        1.0  0.9186699999999999  0.61223  0.9016  1.0000
  O   O6        1.0  0.65823  0.67428  0.7492899999999998  1.0000
  O   O7        1.0  0.9737099999999997  0.06456  0.43269  1.0000
  O   O8        1.0  0.3712999999999999  0.4162899999999999  0.5018199999999998  1.0000
  O   O9        1.0  0.06845999999999992  0.48279  0.9115699999999999  1.0000
  O   O10       1.0  0.12401000000000002  0.5908500000000001  0.89262  1.0000
  O   O11       1.0  0.30840999999999996  0.29093  0.38925  1.0000
  O   O12       1.0  0.98476  0.07486999999999998  0.32583  1.0000
  O   O13       1.0  0.9095299999999997  0.36821000000000004  0.93582  1.0000
  O   O14       1.0  0.9544699999999998  0.08400000000000005  0.58507  1.0000
  O   O15       1.0  0.5860899999999998  0.42818  0.51683  1.0000
  O   O16       1.0  0.5333  0.30118  0.40869  1.0000
  O   O17       1.0  0.019309999999999976  0.10081999999999999  0.71211  1.0000
  O   O18       1.0  0.9082399999999999  0.2504200000000001  0.9246  1.0000
  O   O19       1.0  0.45903999999999995  0.43258  0.36826  1.0000
  O   O20       1.0  0.13004999999999997  0.49975  0.08434  1.0000
  O   O21       1.0  0.8421699999999996  0.9118799999999999  0.42824  1.0000
  O   O22       1.0  0.7679699999999998  0.89245  0.30097999999999997  1.0000
  O   O23       1.0  0.08133000000000003  0.38777  0.09839  1.0000
  O   O24       1.0  0.34177  0.32572  0.2507  1.0000
  O   O25       1.0  0.026289999999999925  0.9354399999999999  0.56731  1.0000
  O   O26       1.0  0.6287  0.58371  0.49818  1.0000
  O   O27       1.0  0.9315399999999999  0.51721  0.08842  1.0000
  O   O28       1.0  0.8759899999999998  0.40915  0.10737  1.0000
  O   O29       1.0  0.6915899999999998  0.70907  0.61075  1.0000
  O   O30       1.0  0.01523999999999995  0.92513  0.67417  1.0000
  O   O31       1.0  0.09047  0.63179  0.06418  1.0000
  O   O32       1.0  0.045530000000000015  0.916  0.41493  1.0000
  O   O33       1.0  0.41390999999999994  0.57182  0.48316  1.0000
  O   O34       1.0  0.4666999999999999  0.69881  0.5913  1.0000
  O   O35       1.0  0.9806899999999997  0.89918  0.28789  1.0000
  O   O36       1.0  0.09175999999999997  0.7495699999999998  0.07539  1.0000
