data_image0
_chemical_formula_structural       Cd4Ag4H56C112I8N8O32
_chemical_formula_sum              "Cd4 Ag4 H56 C112 I8 N8 O32"
_cell_length_a       13.04978
_cell_length_b       16.29703
_cell_length_c       17.52502
_cell_angle_alpha    90.04840999999999
_cell_angle_beta     90.00136999999998
_cell_angle_gamma    89.99953

_symmetry_space_group_name_H-M    'P 1'
_symmetry_Int_Tables_number       1

loop_
  _symmetry_equiv_pos_as_xyz
  'x,y,z'

loop_
  _atom_site_type_symbol
  _atom_site_label
  _atom_site_symmetry_multiplicity
  _atom_site_fract_x
  _atom_site_fract_y
  _atom_site_fract_z
  _atom_site_occupancy
  Cd  Cd1       1.0  0.99141  0.75253  0.25407  1.0000
  Cd  Cd2       1.0  0.49140999999999996  0.24748  0.24592999999999998  1.0000
  Cd  Cd3       1.0  0.50859  0.75252  0.75407  1.0000
  Cd  Cd4       1.0  0.00859  0.24747  0.74593  1.0000
  Ag  Ag1       1.0  0.27307  0.70945  0.64628  1.0000
  Ag  Ag2       1.0  0.77307  0.29054999999999986  0.85372  1.0000
  Ag  Ag3       1.0  0.72693  0.29054999999999986  0.35372  1.0000
  Ag  Ag4       1.0  0.22692999999999997  0.70945  0.14628  1.0000
  H   H1        1.0  0.13488  0.84227  0.38782  1.0000
  H   H2        1.0  0.60023  0.08244  0.44993  1.0000
  H   H3        1.0  0.75054  0.24385  0.029809999999999996  1.0000
  H   H4        1.0  0.9015999999999997  0.57738  0.0494  1.0000
  H   H5        1.0  0.4583699999999999  0.09071  0.66348  1.0000
  H   H6        1.0  0.63489  0.15773  0.11218  1.0000
  H   H7        1.0  0.80031  0.8699  0.4482  1.0000
  H   H8        1.0  0.9004099999999999  0.95999  0.57023  1.0000
  H   H9        1.0  0.95837  0.90929  0.83652  1.0000
  H   H10       1.0  0.27158  0.97957  0.25163  1.0000
  H   H11       1.0  0.58378  0.1792  0.59276  1.0000
  H   H12       1.0  0.99102  0.9176499999999997  0.44976  1.0000
  H   H13       1.0  0.7104499999999999  0.26251  0.6675599999999999  1.0000
  H   H14       1.0  0.7668899999999997  0.49834  0.2598  1.0000
  H   H15       1.0  0.10023  0.9175599999999998  0.05007  1.0000
  H   H16       1.0  0.3914  0.039659999999999994  0.7892799999999999  1.0000
  H   H17       1.0  0.25054  0.75615  0.47019  1.0000
  H   H18       1.0  0.8914  0.96034  0.71072  1.0000
  H   H19       1.0  0.08376999999999998  0.8208  0.90724  1.0000
  H   H20       1.0  0.4016  0.42263  0.4506  1.0000
  H   H21       1.0  0.4004199999999999  0.04001  0.9297599999999999  1.0000
  H   H22       1.0  0.26688  0.50166  0.24019  1.0000
  H   H23       1.0  0.30031  0.13011  0.05181  1.0000
  H   H24       1.0  0.18508  0.62504  0.44899  1.0000
  H   H25       1.0  0.68509  0.37497  0.05099999999999999  1.0000
  H   H26       1.0  0.77158  0.02044  0.24837999999999996  1.0000
  H   H27       1.0  0.21045  0.73749  0.83244  1.0000
  H   H28       1.0  0.49102  0.08235  0.05024  1.0000
  H   H29       1.0  0.3149099999999999  0.62504  0.9489999999999998  1.0000
  H   H30       1.0  0.19969  0.13011  0.5518  1.0000
  H   H31       1.0  0.0984  0.42262  0.95061  1.0000
  H   H32       1.0  0.5984  0.57737  0.5494  1.0000
  H   H33       1.0  0.74947  0.24385  0.52981  1.0000
  H   H34       1.0  0.09959  0.04001  0.42977  1.0000
  H   H35       1.0  0.6996899999999999  0.8699  0.9481899999999999  1.0000
  H   H36       1.0  0.1086  0.039659999999999994  0.28928  1.0000
  H   H37       1.0  0.36511  0.84227  0.8878199999999998  1.0000
  H   H38       1.0  0.8651199999999998  0.15773  0.61218  1.0000
  H   H39       1.0  0.28955  0.73749  0.33242999999999995  1.0000
  H   H40       1.0  0.41623  0.8208  0.40724  1.0000
  H   H41       1.0  0.22842  0.97956  0.75162  1.0000
  H   H42       1.0  0.59958  0.95999  0.07024  1.0000
  H   H43       1.0  0.8997699999999998  0.08244  0.94993  1.0000
  H   H44       1.0  0.50898  0.9176499999999997  0.9497600000000002  1.0000
  H   H45       1.0  0.72842  0.02043  0.74837  1.0000
  H   H46       1.0  0.04162999999999999  0.09071  0.16348  1.0000
  H   H47       1.0  0.00898  0.08235  0.55024  1.0000
  H   H48       1.0  0.54163  0.90929  0.33652  1.0000
  H   H49       1.0  0.6086  0.96034  0.21072  1.0000
  H   H50       1.0  0.24946  0.75615  0.97018  1.0000
  H   H51       1.0  0.81492  0.37496  0.55101  1.0000
  H   H52       1.0  0.7331199999999999  0.49834  0.75981  1.0000
  H   H53       1.0  0.9162299999999999  0.1792  0.09276  1.0000
  H   H54       1.0  0.78955  0.26251  0.16756  1.0000
  H   H55       1.0  0.23311  0.50166  0.7402  1.0000
  H   H56       1.0  0.39977  0.9175599999999998  0.5500699999999998  1.0000
  C   C1        1.0  0.60089  0.17179999999999995  0.89383  1.0000
  C   C2        1.0  0.9483499999999999  0.92316  0.68129  1.0000
  C   C3        1.0  0.15549999999999997  0.6303  0.29709  1.0000
  C   C4        1.0  0.65569  0.04289  0.42184  1.0000
  C   C5        1.0  0.6306  0.12636  0.30222  1.0000
  C   C6        1.0  0.18803  0.79129  0.49509  1.0000
  C   C7        1.0  0.33651999999999993  0.45431  0.34196999999999994  1.0000
  C   C8        1.0  0.36548  0.11632  0.19751  1.0000
  C   C9        1.0  0.12356  0.83957  0.44933999999999996  1.0000
  C   C10       1.0  0.51718  0.12596  0.77446  1.0000
  C   C11       1.0  0.01718  0.87404  0.72554  1.0000
  C   C12       1.0  0.38852  0.38524  0.30039  1.0000
  C   C13       1.0  0.15444999999999998  0.77603  0.80363  1.0000
  C   C14       1.0  0.75186  0.00805  0.30756  1.0000
  C   C15       1.0  0.7196399999999997  0.42995  0.15982  1.0000
  C   C16       1.0  0.6544499999999999  0.22398  0.69637  1.0000
  C   C17       1.0  0.10088  0.8282  0.60617  1.0000
  C   C18       1.0  0.13061  0.87364  0.19778  1.0000
  C   C19       1.0  0.59223  0.17508  0.81195  1.0000
  C   C20       1.0  0.29509  0.05928  0.15514  1.0000
  C   C21       1.0  0.53194  0.12165  0.93604  1.0000
  C   C22       1.0  0.08343  0.82312  0.84519  1.0000
  C   C23       1.0  0.22954  0.57842  0.41958  1.0000
  C   C24       1.0  0.6815599999999999  0.05851  0.34549  1.0000
  C   C25       1.0  0.54429  0.11821  0.01604  1.0000
  C   C26       1.0  0.35022  0.46422999999999986  0.42084999999999995  1.0000
  C   C27       1.0  0.69898  0.97526  0.45886999999999994  1.0000
  C   C28       1.0  0.03193  0.87835  0.56396  1.0000
  C   C29       1.0  0.79727  0.47296999999999995  0.04181  1.0000
  C   C30       1.0  0.4483599999999999  0.07685  0.81871  1.0000
  C   C31       1.0  0.25187  0.9919600000000001  0.19245  1.0000
  C   C32       1.0  0.7682099999999997  0.92394  0.42087  1.0000
  C   C33       1.0  0.9545599999999999  0.92399  0.60349  1.0000
  C   C34       1.0  0.58343  0.17688  0.6548  1.0000
  C   C35       1.0  0.19898999999999997  0.02474  0.04113  1.0000
  C   C36       1.0  0.62356  0.16043  0.05067  1.0000
  C   C37       1.0  0.68803  0.20871  0.00492  1.0000
  C   C38       1.0  0.09222999999999999  0.82493  0.6880499999999999  1.0000
  C   C39       1.0  0.45456999999999986  0.07601999999999998  0.8965  1.0000
  C   C40       1.0  0.8502299999999999  0.53577  0.07914  1.0000
  C   C41       1.0  0.044279999999999986  0.88179  0.48395999999999995  1.0000
  C   C42       1.0  0.15569  0.95711  0.07817  1.0000
  C   C43       1.0  0.27352  0.5084099999999998  0.30168  1.0000
  C   C44       1.0  0.79508  0.94073  0.34485999999999994  1.0000
  C   C45       1.0  0.51443  0.12802999999999998  0.69385  1.0000
  C   C46       1.0  0.18157  0.94149  0.15452  1.0000
  C   C47       1.0  0.8654799999999999  0.8837  0.30248  1.0000
  C   C48       1.0  0.26821  0.07607  0.07913  1.0000
  C   C49       1.0  0.21963  0.57006  0.34016  1.0000
  C   C50       1.0  0.29727  0.52704  0.45818000000000003  1.0000
  C   C51       1.0  0.7295499999999999  0.42159  0.08041  1.0000
  C   C52       1.0  0.01443  0.87198  0.80615  1.0000
  C   C53       1.0  0.77353  0.49160000000000004  0.19832  1.0000
  C   C54       1.0  0.88853  0.61477  0.19961  1.0000
  C   C55       1.0  0.8365299999999999  0.54569  0.15802  1.0000
  C   C56       1.0  0.65551  0.36972  0.20290999999999998  1.0000
  C   C57       1.0  0.31197  0.79129  0.9950799999999999  1.0000
  C   C58       1.0  0.61148  0.61477  0.6996099999999998  1.0000
  C   C59       1.0  0.34448999999999996  0.6302799999999997  0.79709  1.0000
  C   C60       1.0  0.63452  0.88369  0.80248  1.0000
  C   C61       1.0  0.8010199999999998  0.97526  0.95887  1.0000
  C   C62       1.0  0.40777  0.82492  0.18805  1.0000
  C   C63       1.0  0.28036  0.57005  0.84018  1.0000
  C   C64       1.0  0.05164999999999999  0.07684  0.31871  1.0000
  C   C65       1.0  0.54544  0.92398  0.10349  1.0000
  C   C66       1.0  0.34431  0.95711  0.57816  1.0000
  C   C67       1.0  0.23178999999999994  0.07606  0.57913  1.0000
  C   C68       1.0  0.45571  0.88179  0.98396  1.0000
  C   C69       1.0  0.9855699999999998  0.12802  0.19385  1.0000
  C   C70       1.0  0.81197  0.20871  0.50491  1.0000
  C   C71       1.0  0.84431  0.04289  0.9218399999999999  1.0000
  C   C72       1.0  0.7803699999999999  0.42994  0.65984  1.0000
  C   C73       1.0  0.7704599999999998  0.42158  0.58043  1.0000
  C   C74       1.0  0.20492  0.05927  0.65514  1.0000
  C   C75       1.0  0.11147  0.38524  0.80039  1.0000
  C   C76       1.0  0.3694  0.87364  0.69778  1.0000
  C   C77       1.0  0.04544  0.07601  0.39651  1.0000
  C   C78       1.0  0.55164  0.92315  0.18129  1.0000
  C   C79       1.0  0.14977  0.46422999999999986  0.92086  1.0000
  C   C80       1.0  0.8694  0.12636  0.80222  1.0000
  C   C81       1.0  0.48282  0.87404  0.22554  1.0000
  C   C82       1.0  0.9165699999999998  0.17688  0.15481  1.0000
  C   C83       1.0  0.9828199999999999  0.12596  0.27446  1.0000
  C   C84       1.0  0.87644  0.16043  0.55066  1.0000
  C   C85       1.0  0.13452  0.1163  0.69752  1.0000
  C   C86       1.0  0.7027399999999999  0.47296  0.54182  1.0000
  C   C87       1.0  0.41656999999999994  0.82312  0.3452  1.0000
  C   C88       1.0  0.37644  0.83957  0.94933  1.0000
  C   C89       1.0  0.7481399999999999  0.00805  0.80755  1.0000
  C   C90       1.0  0.34555  0.77602  0.30363  1.0000
  C   C91       1.0  0.9077699999999999  0.17507  0.31195  1.0000
  C   C92       1.0  0.7049199999999999  0.94072  0.84486  1.0000
  C   C93       1.0  0.46806999999999993  0.87835  0.06396  1.0000
  C   C94       1.0  0.24814  0.9919499999999999  0.69244  1.0000
  C   C95       1.0  0.7317899999999998  0.92394  0.92087  1.0000
  C   C96       1.0  0.9680699999999998  0.12165  0.4360399999999999  1.0000
  C   C97       1.0  0.89912  0.17179999999999995  0.39383  1.0000
  C   C98       1.0  0.6634799999999998  0.54569  0.65803  1.0000
  C   C99       1.0  0.22646999999999998  0.5084  0.80169  1.0000
  C   C100      1.0  0.16346999999999998  0.45431  0.84198  1.0000
  C   C101      1.0  0.48556999999999995  0.87198  0.30615  1.0000
  C   C102      1.0  0.8445  0.36969  0.70291  1.0000
  C   C103      1.0  0.84555  0.22398  0.19637  1.0000
  C   C104      1.0  0.81844  0.05851  0.8454899999999999  1.0000
  C   C105      1.0  0.31844  0.94149  0.65451  1.0000
  C   C106      1.0  0.20272999999999997  0.52703  0.9581899999999999  1.0000
  C   C107      1.0  0.95572  0.11821  0.51604  1.0000
  C   C108      1.0  0.6497899999999999  0.53577  0.57915  1.0000
  C   C109      1.0  0.27045  0.57841  0.91959  1.0000
  C   C110      1.0  0.39912  0.8282  0.10617  1.0000
  C   C111      1.0  0.72648  0.49159  0.69833  1.0000
  C   C112      1.0  0.30102  0.02474  0.54113  1.0000
  I   I1        1.0  0.82429  0.45291999999999993  0.9230799999999999  1.0000
  I   I2        1.0  0.15706  0.05335  0.9260899999999999  1.0000
  I   I3        1.0  0.32428  0.54708  0.57691  1.0000
  I   I4        1.0  0.65705  0.94665  0.57391  1.0000
  I   I5        1.0  0.84295  0.94665  0.07391  1.0000
  I   I6        1.0  0.17570999999999995  0.54708  0.07692  1.0000
  I   I7        1.0  0.34295  0.05336  0.42609  1.0000
  I   I8        1.0  0.67572  0.45291999999999993  0.42309  1.0000
  N   N1        1.0  0.67624  0.21532  0.9294700000000001  1.0000
  N   N2        1.0  0.65815  0.22356  0.77231  1.0000
  N   N3        1.0  0.15815  0.77645  0.7276799999999999  1.0000
  N   N4        1.0  0.17624  0.78468  0.57053  1.0000
  N   N5        1.0  0.8237599999999999  0.21532  0.42947  1.0000
  N   N6        1.0  0.84185  0.22356  0.27232  1.0000
  N   N7        1.0  0.32376  0.78468  0.07052  1.0000
  N   N8        1.0  0.34185  0.77644  0.22768  1.0000
  O   O1        1.0  0.40249  0.17665  0.15892  1.0000
  O   O2        1.0  0.15138  0.62174  0.22389  1.0000
  O   O3        1.0  0.42947999999999986  0.3287499999999999  0.34137  1.0000
  O   O4        1.0  0.3839899999999999  0.10419  0.26728  1.0000
  O   O5        1.0  0.6513999999999999  0.37831  0.2761  1.0000
  O   O6        1.0  0.09129  0.8137799999999997  0.15865  1.0000
  O   O7        1.0  0.9024799999999998  0.82336  0.34108  1.0000
  O   O8        1.0  0.12635  0.87774  0.26931999999999995  1.0000
  O   O9        1.0  0.61128  0.31276  0.16662  1.0000
  O   O10       1.0  0.62635  0.12227  0.23068999999999998  1.0000
  O   O11       1.0  0.59129  0.18623  0.34135  1.0000
  O   O12       1.0  0.38901  0.38443999999999995  0.22835  1.0000
  O   O13       1.0  0.8839999999999998  0.89583  0.23272000000000004  1.0000
  O   O14       1.0  0.11126999999999998  0.68726  0.33339  1.0000
  O   O15       1.0  0.8890099999999999  0.61556  0.27165  1.0000
  O   O16       1.0  0.92948  0.67125  0.15863  1.0000
  O   O17       1.0  0.37365  0.87773  0.7693099999999999  1.0000
  O   O18       1.0  0.8736499999999999  0.12226  0.73069  1.0000
  O   O19       1.0  0.3486  0.62168  0.7239  1.0000
  O   O20       1.0  0.4087099999999999  0.81377  0.65865  1.0000
  O   O21       1.0  0.09752  0.17664  0.65892  1.0000
  O   O22       1.0  0.90872  0.18622  0.84135  1.0000
  O   O23       1.0  0.116  0.10417  0.76728  1.0000
  O   O24       1.0  0.8887299999999999  0.31274  0.66661  1.0000
  O   O25       1.0  0.57052  0.67125  0.6586299999999999  1.0000
  O   O26       1.0  0.11098999999999998  0.38443999999999995  0.72835  1.0000
  O   O27       1.0  0.611  0.61556  0.77165  1.0000
  O   O28       1.0  0.38872  0.68725  0.83338  1.0000
  O   O29       1.0  0.6159999999999998  0.89582  0.73272  1.0000
  O   O30       1.0  0.59751  0.82336  0.84108  1.0000
  O   O31       1.0  0.8486199999999999  0.37825  0.7761099999999997  1.0000
  O   O32       1.0  0.07052  0.3287499999999999  0.84137  1.0000
