data_image0
_chemical_formula_structural       Eu8H40C56S8O48
_chemical_formula_sum              "Eu8 H40 C56 S8 O48"
_cell_length_a       8.53197
_cell_length_b       17.50225
_cell_length_c       17.50225
_cell_angle_alpha    89.99770999999998
_cell_angle_beta     90.00136999999998
_cell_angle_gamma    90.00229

_symmetry_space_group_name_H-M    'P 1'
_symmetry_Int_Tables_number       1

loop_
  _symmetry_equiv_pos_as_xyz
  'x,y,z'

loop_
  _atom_site_type_symbol
  _atom_site_label
  _atom_site_symmetry_multiplicity
  _atom_site_fract_x
  _atom_site_fract_y
  _atom_site_fract_z
  _atom_site_occupancy
  Eu  Eu1       1.0  0.15030999999999994  0.96434  0.10846  1.0000
  Eu  Eu2       1.0  0.15039  0.03565  0.8915700000000002  1.0000
  Eu  Eu3       1.0  0.8496499999999998  0.10839999999999997  0.03564  1.0000
  Eu  Eu4       1.0  0.84954  0.8915699999999999  0.9643500000000002  1.0000
  Eu  Eu5       1.0  0.34958  0.53561  0.60839  1.0000
  Eu  Eu6       1.0  0.3497  0.46435  0.39158  1.0000
  Eu  Eu7       1.0  0.6504599999999998  0.39156  0.53566  1.0000
  Eu  Eu8       1.0  0.6504  0.60845  0.46438000000000007  1.0000
  H   H1        1.0  0.43156  0.24249  0.24362  1.0000
  H   H2        1.0  0.6817  0.17006  0.44466  1.0000
  H   H3        1.0  0.75144  0.0468  0.3803600000000001  1.0000
  H   H4        1.0  0.65394  0.02086  0.24839  1.0000
  H   H5        1.0  0.19888  0.11627000000000001  0.04014  1.0000
  H   H6        1.0  0.43154  0.75754  0.75641  1.0000
  H   H7        1.0  0.6816399999999999  0.8299  0.55533  1.0000
  H   H8        1.0  0.75147  0.9531699999999999  0.6196000000000002  1.0000
  H   H9        1.0  0.65395  0.97915  0.7515700000000001  1.0000
  H   H10       1.0  0.19895  0.88373  0.9599  1.0000
  H   H11       1.0  0.56844  0.24356999999999998  0.7575400000000001  1.0000
  H   H12       1.0  0.31832  0.44463  0.82993  1.0000
  H   H13       1.0  0.24857999999999997  0.38035  0.95319  1.0000
  H   H14       1.0  0.3460699999999999  0.24839  0.9791699999999999  1.0000
  H   H15       1.0  0.8011699999999998  0.04011999999999999  0.8837300000000001  1.0000
  H   H16       1.0  0.56846  0.75642  0.24247  1.0000
  H   H17       1.0  0.3183699999999999  0.55534  0.17008  1.0000
  H   H18       1.0  0.24856  0.6196199999999998  0.04684  1.0000
  H   H19       1.0  0.3460699999999999  0.75159  0.02085  1.0000
  H   H20       1.0  0.80109  0.9599399999999999  0.11629  1.0000
  H   H21       1.0  0.06842  0.25757  0.7435800000000002  1.0000
  H   H22       1.0  0.81834  0.32993  0.94466  1.0000
  H   H23       1.0  0.74855  0.4532  0.88039  1.0000
  H   H24       1.0  0.84604  0.47919000000000006  0.74842  1.0000
  H   H25       1.0  0.301  0.38378  0.54013  1.0000
  H   H26       1.0  0.06844  0.74246  0.25642  1.0000
  H   H27       1.0  0.81834  0.6700499999999999  0.05533  1.0000
  H   H28       1.0  0.74855  0.54681  0.11962000000000002  1.0000
  H   H29       1.0  0.84604  0.52085  0.25158  1.0000
  H   H30       1.0  0.30108  0.61628  0.45987  1.0000
  H   H31       1.0  0.9315599999999998  0.25644  0.25757  1.0000
  H   H32       1.0  0.18164  0.05534  0.32993  1.0000
  H   H33       1.0  0.25148999999999994  0.1196  0.45318  1.0000
  H   H34       1.0  0.15398999999999993  0.25156  0.47918  1.0000
  H   H35       1.0  0.69891  0.45998000000000006  0.3837  1.0000
  H   H36       1.0  0.9315099999999998  0.7436199999999997  0.74248  1.0000
  H   H37       1.0  0.18169999999999994  0.9446600000000002  0.6700700000000002  1.0000
  H   H38       1.0  0.25144  0.8803599999999998  0.54683  1.0000
  H   H39       1.0  0.1539  0.7484  0.52085  1.0000
  H   H40       1.0  0.699  0.54008  0.61628  1.0000
  C   C1        1.0  0.53858  0.13068  0.23932000000000003  1.0000
  C   C2        1.0  0.49971999999999994  0.19973999999999995  0.27416  1.0000
  C   C3        1.0  0.55066  0.21289  0.34928  1.0000
  C   C4        1.0  0.51039  0.28538  0.39014  1.0000
  C   C5        1.0  0.64137  0.15773  0.3870600000000001  1.0000
  C   C6        1.0  0.67987  0.08902  0.35105  1.0000
  C   C7        1.0  0.6271299999999997  0.07455  0.27703  1.0000
  C   C8        1.0  0.53866  0.86933  0.76067  1.0000
  C   C9        1.0  0.49968999999999997  0.80027  0.72585  1.0000
  C   C10       1.0  0.55059  0.78711  0.65073  1.0000
  C   C11       1.0  0.5103199999999998  0.71462  0.6098900000000002  1.0000
  C   C12       1.0  0.6413599999999998  0.84224  0.61293  1.0000
  C   C13       1.0  0.67992  0.91096  0.64893  1.0000
  C   C14       1.0  0.62721  0.9254400000000002  0.72295  1.0000
  C   C15       1.0  0.4614399999999999  0.2393  0.86935  1.0000
  C   C16       1.0  0.50032  0.27412  0.80028  1.0000
  C   C17       1.0  0.44938  0.3492399999999999  0.78712  1.0000
  C   C18       1.0  0.48967  0.39011  0.71463  1.0000
  C   C19       1.0  0.35863999999999996  0.38703  0.84226  1.0000
  C   C20       1.0  0.32012  0.35102  0.91098  1.0000
  C   C21       1.0  0.37288  0.27701  0.92547  1.0000
  C   C22       1.0  0.4614399999999999  0.76068  0.13067  1.0000
  C   C23       1.0  0.50037  0.72585  0.19972  1.0000
  C   C24       1.0  0.44945  0.65073  0.21288  1.0000
  C   C25       1.0  0.48961999999999994  0.60988  0.28539000000000003  1.0000
  C   C26       1.0  0.35867  0.61294  0.15775  1.0000
  C   C27       1.0  0.32013  0.64895  0.08904  1.0000
  C   C28       1.0  0.37287  0.72297  0.07455  1.0000
  C   C29       1.0  0.96137  0.36936  0.7393300000000003  1.0000
  C   C30       1.0  0.00027  0.30029  0.77415  1.0000
  C   C31       1.0  0.94934  0.28713  0.84926  1.0000
  C   C32       1.0  0.9895599999999999  0.21462  0.89012  1.0000
  C   C33       1.0  0.8586  0.34227  0.88705  1.0000
  C   C34       1.0  0.8200899999999998  0.41099  0.85106  1.0000
  C   C35       1.0  0.87281  0.42548  0.77704  1.0000
  C   C36       1.0  0.9614  0.63066  0.26067  1.0000
  C   C37       1.0  0.00031999999999999986  0.69973  0.22584  1.0000
  C   C38       1.0  0.9493799999999999  0.71287  0.15072  1.0000
  C   C39       1.0  0.9894199999999999  0.78539  0.10986  1.0000
  C   C40       1.0  0.8586599999999998  0.65772  0.11292  1.0000
  C   C41       1.0  0.82011  0.58902  0.14894000000000004  1.0000
  C   C42       1.0  0.8728399999999998  0.5745499999999999  0.22296000000000002  1.0000
  C   C43       1.0  0.03862  0.26067  0.36936  1.0000
  C   C44       1.0  0.99968  0.22586  0.3003  1.0000
  C   C45       1.0  0.05060999999999999  0.15073999999999999  0.28714  1.0000
  C   C46       1.0  0.01053  0.1099  0.21462000000000006  1.0000
  C   C47       1.0  0.14135  0.11293  0.34228  1.0000
  C   C48       1.0  0.17991  0.14893  0.41099  1.0000
  C   C49       1.0  0.12718  0.22295  0.42548  1.0000
  C   C50       1.0  0.038569999999999986  0.73931  0.6306700000000002  1.0000
  C   C51       1.0  0.99965  0.77415  0.69972  1.0000
  C   C52       1.0  0.05056  0.84928  0.71289  1.0000
  C   C53       1.0  0.010309999999999996  0.89013  0.78539  1.0000
  C   C54       1.0  0.14132999999999996  0.88707  0.65775  1.0000
  C   C55       1.0  0.17985  0.85105  0.58904  1.0000
  C   C56       1.0  0.12713  0.77703  0.57455  1.0000
  S   S1        1.0  0.4744999999999999  0.11027  0.14509  1.0000
  S   S2        1.0  0.4744399999999999  0.88986  0.8548400000000002  1.0000
  S   S3        1.0  0.52552  0.14508  0.8897500000000002  1.0000
  S   S4        1.0  0.52547  0.8549099999999998  0.11022  1.0000
  S   S5        1.0  0.02557  0.38984  0.64515  1.0000
  S   S6        1.0  0.025489999999999992  0.61019  0.35488  1.0000
  S   S7        1.0  0.9744899999999999  0.35487  0.3898400000000001  1.0000
  S   S8        1.0  0.97456  0.6450699999999999  0.61021  1.0000
  O   O1        1.0  0.3563299999999999  0.04857  0.15544000000000005  1.0000
  O   O2        1.0  0.6166099999999998  0.07955  0.10604  1.0000
  O   O3        1.0  0.41085  0.1796  0.1099  1.0000
  O   O4        1.0  0.45125  0.34053  0.35227  1.0000
  O   O5        1.0  0.53892  0.28794  0.46181  1.0000
  O   O6        1.0  0.12557  0.07578999999999998  0.026050000000000004  1.0000
  O   O7        1.0  0.35638  0.9516  0.84441  1.0000
  O   O8        1.0  0.61653  0.9205099999999999  0.89394  1.0000
  O   O9        1.0  0.41061  0.82063  0.89012  1.0000
  O   O10       1.0  0.45095  0.65948  0.6477  1.0000
  O   O11       1.0  0.53907  0.71205  0.53824  1.0000
  O   O12       1.0  0.12554  0.92419  0.9738900000000001  1.0000
  O   O13       1.0  0.6436599999999998  0.15545  0.9514699999999999  1.0000
  O   O14       1.0  0.38338999999999995  0.10604  0.9204300000000001  1.0000
  O   O15       1.0  0.5892599999999998  0.10989  0.82045  1.0000
  O   O16       1.0  0.5489499999999999  0.35227  0.6595  1.0000
  O   O17       1.0  0.46104  0.46177  0.71205  1.0000
  O   O18       1.0  0.8744899999999998  0.02607  0.92421  1.0000
  O   O19       1.0  0.64365  0.84454  0.04851000000000001  1.0000
  O   O20       1.0  0.38333  0.8939399999999997  0.07955000000000001  1.0000
  O   O21       1.0  0.58922  0.89012  0.17951000000000006  1.0000
  O   O22       1.0  0.54887  0.64771  0.34053  1.0000
  O   O23       1.0  0.4609499999999999  0.53822  0.28796  1.0000
  O   O24       1.0  0.87457  0.97391  0.07585  1.0000
  O   O25       1.0  0.14366999999999994  0.45157  0.65558  1.0000
  O   O26       1.0  0.88349  0.42049999999999993  0.60606  1.0000
  O   O27       1.0  0.08945999999999997  0.32064  0.60987  1.0000
  O   O28       1.0  0.0487  0.15946  0.85226  1.0000
  O   O29       1.0  0.96102  0.21205  0.96178  1.0000
  O   O30       1.0  0.37449  0.42421  0.52611  1.0000
  O   O31       1.0  0.14362  0.54848  0.3445  1.0000
  O   O32       1.0  0.88335  0.57954  0.39394  1.0000
  O   O33       1.0  0.08929  0.67945  0.39011  1.0000
  O   O34       1.0  0.04848  0.84057  0.14772  1.0000
  O   O35       1.0  0.9609199999999999  0.7879399999999999  0.03819  1.0000
  O   O36       1.0  0.37449  0.57583  0.4739  1.0000
  O   O37       1.0  0.85641  0.34445  0.45159  1.0000
  O   O38       1.0  0.11663  0.39395  0.42045  1.0000
  O   O39       1.0  0.91054  0.39013  0.32063  1.0000
  O   O40       1.0  0.95144  0.14774  0.15943  1.0000
  O   O41       1.0  0.03906  0.03823  0.21208  1.0000
  O   O42       1.0  0.62553  0.47391  0.4242  1.0000
  O   O43       1.0  0.85639  0.65542  0.5485  1.0000
  O   O44       1.0  0.11667999999999998  0.60603  0.5795  1.0000
  O   O45       1.0  0.91093  0.60988  0.6795400000000001  1.0000
  O   O46       1.0  0.9509999999999998  0.85229  0.84051  1.0000
  O   O47       1.0  0.03902999999999999  0.96178  0.7879600000000001  1.0000
  O   O48       1.0  0.62558  0.52607  0.57582  1.0000
