data_image0
_chemical_formula_structural       Gd4Mn6H36C84N12O48
_chemical_formula_sum              "Gd4 Mn6 H36 C84 N12 O48"
_cell_length_a       15.47888
_cell_length_b       15.47876
_cell_length_c       15.28948
_cell_angle_alpha    90.0
_cell_angle_beta     90.0
_cell_angle_gamma    120.05277

_symmetry_space_group_name_H-M    'P 1'
_symmetry_Int_Tables_number       1

loop_
  _symmetry_equiv_pos_as_xyz
  'x,y,z'

loop_
  _atom_site_type_symbol
  _atom_site_label
  _atom_site_symmetry_multiplicity
  _atom_site_fract_x
  _atom_site_fract_y
  _atom_site_fract_z
  _atom_site_occupancy
  Gd  Gd1       1.0  0.66669  0.3333  0.25098  1.0000
  Gd  Gd2       1.0  0.33329999999999993  0.6667000000000001  0.25098  1.0000
  Gd  Gd3       1.0  0.33329999999999993  0.6667000000000001  0.74902  1.0000
  Gd  Gd4       1.0  0.66669  0.3333  0.74902  1.0000
  Mn  Mn1       1.0  0.4999999999999999  0.0  0.0  1.0000
  Mn  Mn2       1.0  0.0  0.5  0.0  1.0000
  Mn  Mn3       1.0  0.4999999999999999  0.5  0.0  1.0000
  Mn  Mn4       1.0  0.0  0.5  0.5  1.0000
  Mn  Mn5       1.0  0.4999999999999999  0.0  0.5  1.0000
  Mn  Mn6       1.0  0.4999999999999999  0.5  0.5  1.0000
  H   H1        1.0  0.7568499999999998  0.04526  0.14875  1.0000
  H   H2        1.0  0.9548699999999998  0.71187  0.14874  1.0000
  H   H3        1.0  0.28831  0.24301  0.14886  1.0000
  H   H4        1.0  0.24314000000000002  0.95474  0.14875  1.0000
  H   H5        1.0  0.04511999999999997  0.28813  0.14874  1.0000
  H   H6        1.0  0.71169  0.75699  0.14886  1.0000
  H   H7        1.0  0.044740000000000016  0.75669  0.35119  1.0000
  H   H8        1.0  0.7122199999999997  0.95539  0.3512099999999999  1.0000
  H   H9        1.0  0.2431699999999999  0.28796  0.35108  1.0000
  H   H10       1.0  0.9552499999999998  0.24331  0.35119  1.0000
  H   H11       1.0  0.28777  0.044610000000000004  0.3512099999999999  1.0000
  H   H12       1.0  0.7568199999999999  0.7120400000000001  0.35108  1.0000
  H   H13       1.0  0.24314000000000002  0.95474  0.85124  1.0000
  H   H14       1.0  0.04511999999999997  0.28813  0.8512599999999998  1.0000
  H   H15       1.0  0.71169  0.75699  0.85113  1.0000
  H   H16       1.0  0.7568499999999998  0.04526  0.85124  1.0000
  H   H17       1.0  0.9548699999999998  0.71187  0.8512599999999998  1.0000
  H   H18       1.0  0.28831  0.24301  0.85113  1.0000
  H   H19       1.0  0.9552499999999998  0.24331  0.6488  1.0000
  H   H20       1.0  0.28777  0.044610000000000004  0.64879  1.0000
  H   H21       1.0  0.7568199999999999  0.7120400000000001  0.64892  1.0000
  H   H22       1.0  0.044740000000000016  0.75669  0.6488  1.0000
  H   H23       1.0  0.7122199999999997  0.95539  0.64879  1.0000
  H   H24       1.0  0.2431699999999999  0.28796  0.64892  1.0000
  H   H25       1.0  0.9043199999999998  0.0956  0.25001  1.0000
  H   H26       1.0  0.9045699999999998  0.80895  0.24992  1.0000
  H   H27       1.0  0.19103999999999993  0.09549  0.2501  1.0000
  H   H28       1.0  0.09567999999999993  0.9044  0.25001  1.0000
  H   H29       1.0  0.09541999999999999  0.19105000000000003  0.24992  1.0000
  H   H30       1.0  0.8089499999999997  0.9045100000000001  0.2501  1.0000
  H   H31       1.0  0.09567999999999993  0.9044  0.74999  1.0000
  H   H32       1.0  0.09541999999999999  0.19105000000000003  0.7500699999999998  1.0000
  H   H33       1.0  0.8089499999999997  0.9045100000000001  0.7499  1.0000
  H   H34       1.0  0.9043199999999998  0.0956  0.74999  1.0000
  H   H35       1.0  0.9045699999999998  0.80895  0.7500699999999998  1.0000
  H   H36       1.0  0.19103999999999993  0.09549  0.7499  1.0000
  C   C1        1.0  0.64265  0.13623  0.14082  1.0000
  C   C2        1.0  0.7325099999999998  0.16141  0.19665  1.0000
  C   C3        1.0  0.78303  0.10782  0.19375  1.0000
  C   C4        1.0  0.8638099999999997  0.50648  0.14082  1.0000
  C   C5        1.0  0.83867  0.57118  0.19665  1.0000
  C   C6        1.0  0.8922899999999999  0.67538  0.19372  1.0000
  C   C7        1.0  0.49372  0.35734000000000005  0.14084  1.0000
  C   C8        1.0  0.42891  0.26743  0.19667  1.0000
  C   C9        1.0  0.32471  0.21687  0.19382999999999995  1.0000
  C   C10       1.0  0.35735  0.86377  0.14082  1.0000
  C   C11       1.0  0.26748  0.8385900000000001  0.19665  1.0000
  C   C12       1.0  0.21695999999999988  0.89218  0.19375  1.0000
  C   C13       1.0  0.13619  0.49352  0.14082  1.0000
  C   C14       1.0  0.16131999999999996  0.42882  0.19665  1.0000
  C   C15       1.0  0.10770999999999997  0.32462  0.19372  1.0000
  C   C16       1.0  0.50628  0.64266  0.14084  1.0000
  C   C17       1.0  0.57109  0.73257  0.19667  1.0000
  C   C18       1.0  0.6752899999999997  0.78313  0.19382999999999995  1.0000
  C   C19       1.0  0.13620999999999994  0.64283  0.35997  1.0000
  C   C20       1.0  0.16125  0.73245  0.30392  1.0000
  C   C21       1.0  0.10744999999999996  0.7828  0.30639  1.0000
  C   C22       1.0  0.5066699999999997  0.86383  0.35995  1.0000
  C   C23       1.0  0.57127  0.83882  0.30391  1.0000
  C   C24       1.0  0.6755  0.89266  0.30642  1.0000
  C   C25       1.0  0.3572099999999999  0.49356  0.35991  1.0000
  C   C26       1.0  0.2674999999999999  0.42884  0.30388  1.0000
  C   C27       1.0  0.21710999999999994  0.3246  0.30632  1.0000
  C   C28       1.0  0.8637899999999997  0.35717  0.35997  1.0000
  C   C29       1.0  0.8387399999999999  0.26755  0.30392  1.0000
  C   C30       1.0  0.8925399999999998  0.2172  0.30639  1.0000
  C   C31       1.0  0.4933299999999998  0.13617  0.35995  1.0000
  C   C32       1.0  0.4287299999999999  0.16118  0.30391  1.0000
  C   C33       1.0  0.3244899999999999  0.10734  0.30642  1.0000
  C   C34       1.0  0.6427899999999998  0.50644  0.35991  1.0000
  C   C35       1.0  0.73249  0.57116  0.30388  1.0000
  C   C36       1.0  0.78288  0.6754  0.30632  1.0000
  C   C37       1.0  0.35735  0.86377  0.85917  1.0000
  C   C38       1.0  0.26748  0.8385900000000001  0.80334  1.0000
  C   C39       1.0  0.21695999999999988  0.89218  0.80624  1.0000
  C   C40       1.0  0.13619  0.49352  0.85917  1.0000
  C   C41       1.0  0.16131999999999996  0.42882  0.80335  1.0000
  C   C42       1.0  0.10770999999999997  0.32462  0.80628  1.0000
  C   C43       1.0  0.50628  0.64266  0.85916  1.0000
  C   C44       1.0  0.57109  0.73257  0.80332  1.0000
  C   C45       1.0  0.6752899999999997  0.78313  0.80617  1.0000
  C   C46       1.0  0.64265  0.13623  0.85917  1.0000
  C   C47       1.0  0.7325099999999998  0.16141  0.80334  1.0000
  C   C48       1.0  0.78303  0.10782  0.80624  1.0000
  C   C49       1.0  0.8638099999999997  0.50648  0.85917  1.0000
  C   C50       1.0  0.83867  0.57118  0.80335  1.0000
  C   C51       1.0  0.8922899999999999  0.67538  0.80628  1.0000
  C   C52       1.0  0.49372  0.35734000000000005  0.85916  1.0000
  C   C53       1.0  0.42891  0.26743  0.80332  1.0000
  C   C54       1.0  0.32471  0.21687  0.80617  1.0000
  C   C55       1.0  0.8637899999999997  0.35717  0.64002  1.0000
  C   C56       1.0  0.8387399999999999  0.26755  0.69608  1.0000
  C   C57       1.0  0.8925399999999998  0.2172  0.69361  1.0000
  C   C58       1.0  0.4933299999999998  0.13617  0.64005  1.0000
  C   C59       1.0  0.4287299999999999  0.16118  0.69609  1.0000
  C   C60       1.0  0.3244899999999999  0.10734  0.69358  1.0000
  C   C61       1.0  0.6427899999999998  0.50644  0.6400899999999999  1.0000
  C   C62       1.0  0.73249  0.57116  0.6961099999999998  1.0000
  C   C63       1.0  0.78288  0.6754  0.69368  1.0000
  C   C64       1.0  0.13620999999999994  0.64283  0.64002  1.0000
  C   C65       1.0  0.16125  0.73245  0.69608  1.0000
  C   C66       1.0  0.10744999999999996  0.7828  0.69361  1.0000
  C   C67       1.0  0.5066699999999997  0.86383  0.64005  1.0000
  C   C68       1.0  0.57127  0.83882  0.69609  1.0000
  C   C69       1.0  0.6755  0.89266  0.69358  1.0000
  C   C70       1.0  0.3572099999999999  0.49356  0.6400899999999999  1.0000
  C   C71       1.0  0.2674999999999999  0.42884  0.6961099999999998  1.0000
  C   C72       1.0  0.21710999999999994  0.3246  0.69368  1.0000
  C   C73       1.0  0.8638499999999998  0.13633  0.25008  1.0000
  C   C74       1.0  0.8637899999999997  0.72768  0.25001  1.0000
  C   C75       1.0  0.2723099999999999  0.13601  0.25014  1.0000
  C   C76       1.0  0.13614000000000004  0.86367  0.25008  1.0000
  C   C77       1.0  0.13620999999999994  0.27232  0.25001  1.0000
  C   C78       1.0  0.7276799999999998  0.86399  0.25014  1.0000
  C   C79       1.0  0.13614000000000004  0.86367  0.74992  1.0000
  C   C80       1.0  0.13620999999999994  0.27232  0.74998  1.0000
  C   C81       1.0  0.7276799999999998  0.86399  0.7498499999999999  1.0000
  C   C82       1.0  0.8638499999999998  0.13633  0.74992  1.0000
  C   C83       1.0  0.8637899999999997  0.72768  0.74998  1.0000
  C   C84       1.0  0.2723099999999999  0.13601  0.7498499999999999  1.0000
  N   N1        1.0  0.7606399999999998  0.23931  0.25041  1.0000
  N   N2        1.0  0.7607599999999998  0.52134  0.25042  1.0000
  N   N3        1.0  0.4786499999999999  0.23928  0.25039  1.0000
  N   N4        1.0  0.23935000000000003  0.7606900000000001  0.25041  1.0000
  N   N5        1.0  0.23922999999999994  0.47866  0.25042  1.0000
  N   N6        1.0  0.52134  0.76072  0.25039  1.0000
  N   N7        1.0  0.23935000000000003  0.7606900000000001  0.74959  1.0000
  N   N8        1.0  0.23922999999999994  0.47866  0.74958  1.0000
  N   N9        1.0  0.52134  0.76072  0.74961  1.0000
  N   N10       1.0  0.7606399999999998  0.23931  0.74959  1.0000
  N   N11       1.0  0.7607599999999998  0.52134  0.74958  1.0000
  N   N12       1.0  0.4786499999999999  0.23928  0.74961  1.0000
  O   O1        1.0  0.6059899999999998  0.19306  0.14607  1.0000
  O   O2        1.0  0.6113099999999998  0.05837  0.09343  1.0000
  O   O3        1.0  0.8068599999999998  0.4129  0.14607999999999993  1.0000
  O   O4        1.0  0.9416799999999997  0.55302  0.09343  1.0000
  O   O5        1.0  0.5872699999999997  0.39399  0.14607  1.0000
  O   O6        1.0  0.44724999999999987  0.38869  0.09346  1.0000
  O   O7        1.0  0.394  0.80694  0.14607  1.0000
  O   O8        1.0  0.38869  0.94164  0.09343  1.0000
  O   O9        1.0  0.19313  0.5871  0.14607999999999993  1.0000
  O   O10       1.0  0.05830999999999995  0.44698  0.09343  1.0000
  O   O11       1.0  0.41271999999999986  0.6060100000000002  0.14607  1.0000
  O   O12       1.0  0.55274  0.61131  0.09346  1.0000
  O   O13       1.0  0.19363999999999998  0.6068  0.35602  1.0000
  O   O14       1.0  0.057540000000000105  0.6109900000000001  0.40636  1.0000
  O   O15       1.0  0.41312  0.80625  0.35601  1.0000
  O   O16       1.0  0.55351  0.94256  0.40628  1.0000
  O   O17       1.0  0.39328999999999986  0.5871  0.35594  1.0000
  O   O18       1.0  0.38904  0.44676  0.40626  1.0000
  O   O19       1.0  0.8063499999999999  0.3932  0.35602  1.0000
  O   O20       1.0  0.9424599999999997  0.3890100000000001  0.40636  1.0000
  O   O21       1.0  0.5868699999999998  0.19375  0.35601  1.0000
  O   O22       1.0  0.4464799999999999  0.05744  0.40628  1.0000
  O   O23       1.0  0.6066999999999998  0.4129  0.35594  1.0000
  O   O24       1.0  0.61095  0.55324  0.40626  1.0000
  O   O25       1.0  0.394  0.80694  0.8539299999999997  1.0000
  O   O26       1.0  0.38869  0.94164  0.90657  1.0000
  O   O27       1.0  0.19313  0.5871  0.8539099999999998  1.0000
  O   O28       1.0  0.05830999999999995  0.44698  0.90657  1.0000
  O   O29       1.0  0.41271999999999986  0.6060100000000002  0.8539199999999998  1.0000
  O   O30       1.0  0.55274  0.61131  0.90654  1.0000
  O   O31       1.0  0.6059899999999998  0.19306  0.8539299999999997  1.0000
  O   O32       1.0  0.6113099999999998  0.05837  0.90657  1.0000
  O   O33       1.0  0.8068599999999998  0.41291  0.8539099999999998  1.0000
  O   O34       1.0  0.9416799999999997  0.55302  0.90657  1.0000
  O   O35       1.0  0.5872699999999997  0.39399  0.8539199999999998  1.0000
  O   O36       1.0  0.44724999999999987  0.38869  0.90654  1.0000
  O   O37       1.0  0.8063499999999999  0.3932  0.6439799999999998  1.0000
  O   O38       1.0  0.9424599999999997  0.3890100000000001  0.59363  1.0000
  O   O39       1.0  0.5868699999999998  0.19375  0.64399  1.0000
  O   O40       1.0  0.4464799999999999  0.05744  0.59372  1.0000
  O   O41       1.0  0.6066999999999998  0.4129  0.64405  1.0000
  O   O42       1.0  0.61095  0.55324  0.59373  1.0000
  O   O43       1.0  0.19363999999999998  0.6068  0.6439799999999998  1.0000
  O   O44       1.0  0.057540000000000105  0.6109900000000001  0.59363  1.0000
  O   O45       1.0  0.41312  0.80625  0.64399  1.0000
  O   O46       1.0  0.55351  0.94256  0.59372  1.0000
  O   O47       1.0  0.39328999999999986  0.5871  0.64405  1.0000
  O   O48       1.0  0.38904  0.44676  0.59373  1.0000
