data_image0
_chemical_formula_structural       Cd4H56C96N8O16
_chemical_formula_sum              "Cd4 H56 C96 N8 O16"
_cell_length_a       10.61521
_cell_length_b       14.939420000000002
_cell_length_c       28.29737
_cell_angle_alpha    115.42371000000001
_cell_angle_beta     89.74529
_cell_angle_gamma    110.85241000000002

_space_group_name_H-M_alt    "P 1"
_space_group_IT_number       1

loop_
  _space_group_symop_operation_xyz
  'x, y, z'

loop_
  _atom_site_type_symbol
  _atom_site_label
  _atom_site_symmetry_multiplicity
  _atom_site_fract_x
  _atom_site_fract_y
  _atom_site_fract_z
  _atom_site_occupancy
  Cd  Cd1       1.0  0.89929  0.7229099999999999  0.7831699999999999  1.0000
  Cd  Cd2       1.0  0.8227899999999998  0.7228799999999997  0.28147  1.0000
  Cd  Cd3       1.0  0.17719999999999994  0.27711999999999987  0.71854  1.0000
  Cd  Cd4       1.0  0.1007  0.27709  0.21683  1.0000
  H   H1        1.0  0.59207  0.54115  0.19299999999999995  1.0000
  H   H2        1.0  0.9369899999999999  0.5315  0.25564  1.0000
  H   H3        1.0  0.45508999999999994  0.18534999999999996  0.08144  1.0000
  H   H4        1.0  0.84956  0.04787  0.15545  1.0000
  H   H5        1.0  0.33959000000000006  0.81491  0.004849999999999999  1.0000
  H   H6        1.0  0.2687  0.10004  0.03466  1.0000
  H   H7        1.0  0.7248699999999999  0.17599999999999993  0.19142999999999993  1.0000
  H   H8        1.0  0.15757  0.71012  0.92358  1.0000
  H   H9        1.0  0.48293  0.34102999999999994  0.14294  1.0000
  H   H10       1.0  0.84624  0.33377  0.20724  1.0000
  H   H11       1.0  0.09165000000000002  0.99572  0.95444  1.0000
  H   H12       1.0  0.4241299999999999  0.8545099999999999  0.13914  1.0000
  H   H13       1.0  0.4930900000000001  0.75867  0.18198  1.0000
  H   H14       1.0  0.9163399999999999  0.94942  0.19597999999999993  1.0000
  H   H15       1.0  0.95083  0.54004  0.69279  1.0000
  H   H16       1.0  0.59878  0.5304399999999998  0.75866  1.0000
  H   H17       1.0  0.73089  0.18385999999999994  0.5809399999999999  1.0000
  H   H18       1.0  0.1979099999999999  0.04633999999999973  0.6552799999999998  1.0000
  H   H19       1.0  0.47396  0.81405  0.50391  1.0000
  H   H20       1.0  0.8311799999999998  0.09857999999999986  0.5330199999999999  1.0000
  H   H21       1.0  0.45383  0.17509000000000005  0.69269  1.0000
  H   H22       1.0  0.5501  0.70922  0.42192  1.0000
  H   H23       1.0  0.85885  0.33971  0.64229  1.0000
  H   H24       1.0  0.49111000000000005  0.33291  0.70988  1.0000
  H   H25       1.0  0.90336  0.99372  0.4524099999999999  1.0000
  H   H26       1.0  0.4307599999999999  0.8543399999999999  0.6392699999999999  1.0000
  H   H27       1.0  0.26586999999999994  0.7581599999999998  0.68245  1.0000
  H   H28       1.0  0.03170999999999999  0.94806  0.6961799999999999  1.0000
  H   H29       1.0  0.04914999999999997  0.45996  0.30721  1.0000
  H   H30       1.0  0.40121  0.46957  0.24134  1.0000
  H   H31       1.0  0.26910000000000006  0.81614  0.41906  1.0000
  H   H32       1.0  0.8020699999999998  0.9536599999999997  0.34471999999999997  1.0000
  H   H33       1.0  0.52603  0.18594999999999992  0.49609  1.0000
  H   H34       1.0  0.16880999999999988  0.9014299999999998  0.46697999999999995  1.0000
  H   H35       1.0  0.54616  0.82491  0.30730999999999997  1.0000
  H   H36       1.0  0.44989  0.29078  0.57808  1.0000
  H   H37       1.0  0.14114  0.6603  0.35771  1.0000
  H   H38       1.0  0.50888  0.6671  0.29012  1.0000
  H   H39       1.0  0.09663000000000001  0.006279999999999982  0.5476  1.0000
  H   H40       1.0  0.56923  0.14567  0.36073999999999995  1.0000
  H   H41       1.0  0.73412  0.24184  0.31755  1.0000
  H   H42       1.0  0.96828  0.05194000000000003  0.30382  1.0000
  H   H43       1.0  0.40792  0.4588600000000001  0.80701  1.0000
  H   H44       1.0  0.0629999999999999  0.46849999999999986  0.7443599999999998  1.0000
  H   H45       1.0  0.5448999999999999  0.8146499999999999  0.9185599999999999  1.0000
  H   H46       1.0  0.15042999999999987  0.9521399999999999  0.84455  1.0000
  H   H47       1.0  0.6604  0.1851  0.99515  1.0000
  H   H48       1.0  0.7312799999999999  0.89997  0.96534  1.0000
  H   H49       1.0  0.27512  0.824  0.80858  1.0000
  H   H50       1.0  0.8424199999999998  0.28988  0.07642  1.0000
  H   H51       1.0  0.5170599999999997  0.6589799999999997  0.8570599999999999  1.0000
  H   H52       1.0  0.15375  0.66624  0.79276  1.0000
  H   H53       1.0  0.90834  0.004289999999999984  0.04555999999999999  1.0000
  H   H54       1.0  0.5758600000000001  0.14549000000000006  0.86086  1.0000
  H   H55       1.0  0.5069  0.24133999999999997  0.81802  1.0000
  H   H56       1.0  0.0836499999999999  0.050579999999999806  0.8040199999999997  1.0000
  C   C1        1.0  0.74683  0.79725  0.22095  1.0000
  C   C2        1.0  0.64368  0.49111  0.19494  1.0000
  C   C3        1.0  0.8365  0.48665999999999987  0.23028  1.0000
  C   C4        1.0  0.31972  0.96536  0.02541  1.0000
  C   C5        1.0  0.43397  0.028359999999999986  0.07140999999999999  1.0000
  C   C6        1.0  0.5968  0.19829  0.14087  1.0000
  C   C7        1.0  0.49051  0.14176999999999995  0.09689999999999997  1.0000
  C   C8        1.0  0.017180000000000015  0.78801  0.88241  1.0000
  C   C9        1.0  0.7708399999999999  0.9853199999999998  0.16162999999999997  1.0000
  C   C10       1.0  0.28401  0.85388  0.99399  1.0000
  C   C11       1.0  0.24698  0.01487  0.011  1.0000
  C   C12       1.0  0.64613  0.13788  0.15647  1.0000
  C   C13       1.0  0.18312999999999985  0.7955399999999997  0.9486599999999998  1.0000
  C   C14       1.0  0.5868  0.02506  0.12834  1.0000
  C   C15       1.0  0.65472  0.3175  0.17024  1.0000
  C   C16       1.0  0.11464999999999999  0.84675  0.93365  1.0000
  C   C17       1.0  0.5846199999999999  0.37934  0.16687999999999995  1.0000
  C   C18       1.0  0.78424  0.37498  0.20323999999999998  1.0000
  C   C19       1.0  0.14621999999999985  0.9567199999999998  0.9657699999999998  1.0000
  C   C20       1.0  0.70862  0.84827  0.19147  1.0000
  C   C21       1.0  0.53148  0.87487  0.15197  1.0000
  C   C22       1.0  0.6316  0.96014  0.14665999999999998  1.0000
  C   C23       1.0  0.5695599999999997  0.8207999999999999  0.17503  1.0000
  C   C24       1.0  0.80891  0.92898  0.18337  1.0000
  C   C25       1.0  0.05023999999999991  0.79721  0.72203  1.0000
  C   C26       1.0  0.8496599999999999  0.4902099999999998  0.6954599999999999  1.0000
  C   C27       1.0  0.6537  0.48554  0.7325199999999998  1.0000
  C   C28       1.0  0.6445799999999999  0.9642999999999999  0.5241499999999999  1.0000
  C   C29       1.0  0.59424  0.02713999999999992  0.5708599999999999  1.0000
  C   C30       1.0  0.60318  0.1972100000000001  0.64128  1.0000
  C   C31       1.0  0.6516899999999999  0.14053999999999997  0.5966  1.0000
  C   C32       1.0  0.7686200000000001  0.7864599999999999  0.3804899999999999  1.0000
  C   C33       1.0  0.2140899999999999  0.9842099999999998  0.6617899999999998  1.0000
  C   C34       1.0  0.56826  0.85295  0.4927  1.0000
  C   C35       1.0  0.76713  0.013559999999999975  0.50947  1.0000
  C   C36       1.0  0.49374  0.1369400000000001  0.65727  1.0000
  C   C37       1.0  0.61076  0.79437  0.4472  1.0000
  C   C38       1.0  0.43919  0.024129999999999995  0.6286899999999999  1.0000
  C   C39       1.0  0.6648599999999999  0.31648999999999994  0.67097  1.0000
  C   C40       1.0  0.7311599999999999  0.8452099999999999  0.4321699999999999  1.0000
  C   C41       1.0  0.79645  0.37839  0.66705  1.0000
  C   C42       1.0  0.5938399999999998  0.37391999999999964  0.7051099999999999  1.0000
  C   C43       1.0  0.8099800000000001  0.95503  0.46417  1.0000
  C   C44       1.0  0.14015999999999992  0.84836  0.69254  1.0000
  C   C45       1.0  0.3436299999999999  0.8744099999999997  0.6523499999999998  1.0000
  C   C46       1.0  0.32860999999999985  0.9593199999999998  0.6469399999999998  1.0000
  C   C47       1.0  0.25173  0.82064  0.67581  1.0000
  C   C48       1.0  0.11959999999999997  0.92824  0.68391  1.0000
  C   C49       1.0  0.9497499999999999  0.20279  0.27798  1.0000
  C   C50       1.0  0.15033  0.50979  0.30454  1.0000
  C   C51       1.0  0.34629  0.51447  0.26748  1.0000
  C   C52       1.0  0.35541  0.035709999999999985  0.47585  1.0000
  C   C53       1.0  0.40574999999999994  0.97287  0.42913999999999997  1.0000
  C   C54       1.0  0.39680999999999994  0.80279  0.35872  1.0000
  C   C55       1.0  0.3482999999999999  0.85946  0.40341  1.0000
  C   C56       1.0  0.23137  0.21353999999999998  0.61951  1.0000
  C   C57       1.0  0.7858999999999999  0.015800000000000033  0.33821  1.0000
  C   C58       1.0  0.43172999999999995  0.14704999999999996  0.50731  1.0000
  C   C59       1.0  0.2328499999999999  0.98644  0.49053999999999987  1.0000
  C   C60       1.0  0.50625  0.86306  0.34273  1.0000
  C   C61       1.0  0.38922999999999996  0.20563999999999988  0.5527999999999998  1.0000
  C   C62       1.0  0.5608  0.97587  0.37131  1.0000
  C   C63       1.0  0.33513  0.68352  0.3290299999999999  1.0000
  C   C64       1.0  0.26883  0.1548  0.56783  1.0000
  C   C65       1.0  0.20353999999999986  0.6216199999999998  0.3329499999999999  1.0000
  C   C66       1.0  0.40615  0.62608  0.29489  1.0000
  C   C67       1.0  0.19001000000000007  0.04498000000000005  0.53583  1.0000
  C   C68       1.0  0.85983  0.15164999999999995  0.30746  1.0000
  C   C69       1.0  0.65636  0.12560000000000004  0.34765  1.0000
  C   C70       1.0  0.6713799999999999  0.040679999999999925  0.35305999999999993  1.0000
  C   C71       1.0  0.74826  0.17936  0.32419  1.0000
  C   C72       1.0  0.88039  0.07177  0.31609  1.0000
  C   C73       1.0  0.25316  0.20276  0.77905  1.0000
  C   C74       1.0  0.35630999999999996  0.5088899999999998  0.8050599999999999  1.0000
  C   C75       1.0  0.16348999999999986  0.5133399999999998  0.7697199999999997  1.0000
  C   C76       1.0  0.6802699999999999  0.03463999999999985  0.9745899999999997  1.0000
  C   C77       1.0  0.5660199999999999  0.9716499999999999  0.92859  1.0000
  C   C78       1.0  0.40318999999999994  0.80172  0.85913  1.0000
  C   C79       1.0  0.50948  0.85824  0.9031  1.0000
  C   C80       1.0  0.9828099999999997  0.21198999999999998  0.11759999999999997  1.0000
  C   C81       1.0  0.2291499999999999  0.01468999999999983  0.8383699999999998  1.0000
  C   C82       1.0  0.71598  0.14613  0.006009999999999998  1.0000
  C   C83       1.0  0.7530100000000001  0.98513  0.989  1.0000
  C   C84       1.0  0.3538599999999999  0.8621199999999998  0.8435299999999999  1.0000
  C   C85       1.0  0.81686  0.20446  0.05134  1.0000
  C   C86       1.0  0.4131899999999999  0.9749399999999999  0.8716599999999999  1.0000
  C   C87       1.0  0.34526999999999997  0.6824999999999999  0.82976  1.0000
  C   C88       1.0  0.8853399999999999  0.15326  0.06635  1.0000
  C   C89       1.0  0.41535999999999984  0.6206699999999997  0.8331199999999997  1.0000
  C   C90       1.0  0.21575000000000003  0.62502  0.79677  1.0000
  C   C91       1.0  0.85377  0.04327999999999999  0.03422999999999999  1.0000
  C   C92       1.0  0.29136999999999996  0.15173999999999993  0.8085399999999999  1.0000
  C   C93       1.0  0.4685000000000001  0.1251300000000001  0.84803  1.0000
  C   C94       1.0  0.3683899999999999  0.03986999999999999  0.85334  1.0000
  C   C95       1.0  0.43043  0.17919999999999997  0.8249699999999999  1.0000
  C   C96       1.0  0.19107999999999994  0.07102999999999993  0.81663  1.0000
  N   N1        1.0  0.7682  0.54494  0.22666  1.0000
  N   N2        1.0  0.48220999999999997  0.97136  0.08708999999999997  1.0000
  N   N3        1.0  0.77966  0.54397  0.72817  1.0000
  N   N4        1.0  0.48961  0.97023  0.587  1.0000
  N   N5        1.0  0.22032999999999994  0.45602999999999994  0.27182999999999996  1.0000
  N   N6        1.0  0.51037  0.02977999999999997  0.4129999999999999  1.0000
  N   N7        1.0  0.23179000000000008  0.4550700000000001  0.77334  1.0000
  N   N8        1.0  0.51778  0.028649999999999926  0.9129099999999999  1.0000
  O   O1        1.0  0.00044999999999998324  0.6920199999999999  0.8500799999999998  1.0000
  O   O2        1.0  0.9580199999999999  0.8400299999999999  0.8705399999999999  1.0000
  O   O3        1.0  0.65136  0.73543  0.23437  1.0000
  O   O4        1.0  0.87344  0.81797  0.23369999999999996  1.0000
  O   O5        1.0  0.68736  0.69167  0.34803  1.0000
  O   O6        1.0  0.88045  0.83739  0.36847  1.0000
  O   O7        1.0  0.0845299999999999  0.7363599999999998  0.7359699999999998  1.0000
  O   O8        1.0  0.9435600000000002  0.8175800000000001  0.73459  1.0000
  O   O9        1.0  0.31263  0.30833  0.65197  1.0000
  O   O10       1.0  0.11953999999999997  0.16260999999999995  0.63153  1.0000
  O   O11       1.0  0.91546  0.26364  0.26403  1.0000
  O   O12       1.0  0.05643  0.18243  0.26541  1.0000
  O   O13       1.0  0.9995399999999999  0.30798999999999993  0.14993  1.0000
  O   O14       1.0  0.041969999999999986  0.15997  0.12946  1.0000
  O   O15       1.0  0.34863000000000005  0.26457000000000014  0.76563  1.0000
  O   O16       1.0  0.12654999999999994  0.1820299999999999  0.7663  1.0000
