data_image0
_chemical_formula_structural       Ce4H48C84N12O24
_chemical_formula_sum              "Ce4 H48 C84 N12 O24"
_cell_length_a       16.48066
_cell_length_b       16.41912
_cell_length_c       28.08174
_cell_angle_alpha    80.02551999999999
_cell_angle_beta     79.71363
_cell_angle_gamma    64.31008

_space_group_name_H-M_alt    "P 1"
_space_group_IT_number       1

loop_
  _space_group_symop_operation_xyz
  'x, y, z'

loop_
  _atom_site_type_symbol
  _atom_site_label
  _atom_site_symmetry_multiplicity
  _atom_site_fract_x
  _atom_site_fract_y
  _atom_site_fract_z
  _atom_site_occupancy
  Ce  Ce1       1.0  0.9477800000000001  0.4513699999999999  0.9546900000000003  1.0000
  Ce  Ce2       1.0  0.54813  0.05342  0.54547  1.0000
  Ce  Ce3       1.0  0.05105999999999999  0.54954  0.04593  1.0000
  Ce  Ce4       1.0  0.45102  0.9468399999999998  0.4545200000000001  1.0000
  H   H1        1.0  0.9160299999999997  0.38890999999999987  0.7942900000000003  1.0000
  H   H2        1.0  0.87513  0.3084200000000001  0.73991  1.0000
  H   H3        1.0  0.77247  0.17695999999999995  0.8661000000000002  1.0000
  H   H4        1.0  0.8134200000000003  0.2580499999999999  0.92045  1.0000
  H   H5        1.0  0.16772  0.68404  0.9164100000000001  1.0000
  H   H6        1.0  0.23527  0.7518299999999998  0.8413900000000002  1.0000
  H   H7        1.0  0.13928999999999994  0.63302  0.75186  1.0000
  H   H8        1.0  0.07282000000000004  0.56375  0.82708  1.0000
  H   H9        1.0  0.20951000000000006  0.18285999999999994  0.95178  1.0000
  H   H10       1.0  0.3596999999999998  0.04782999999999997  0.9582500000000002  1.0000
  H   H11       1.0  0.43315000000000003  0.18502999999999997  0.04875  1.0000
  H   H12       1.0  0.2832  0.3203  0.04216000000000002  1.0000
  H   H13       1.0  0.61175  0.08369999999999998  0.7060800000000002  1.0000
  H   H14       1.0  0.69142  0.12476  0.7606  1.0000
  H   H15       1.0  0.827  0.2232499999999999  0.6347500000000003  1.0000
  H   H16       1.0  0.7468499999999999  0.1825199999999999  0.58009  1.0000
  H   H17       1.0  0.31157999999999997  0.83769  0.5840800000000002  1.0000
  H   H18       1.0  0.24852000000000002  0.76571  0.65918  1.0000
  H   H19       1.0  0.3678299999999999  0.86172  0.74825  1.0000
  H   H20       1.0  0.43199000000000004  0.9330799999999998  0.6729900000000002  1.0000
  H   H21       1.0  0.8117600000000003  0.7889299999999998  0.55079  1.0000
  H   H22       1.0  0.9497500000000002  0.6410899999999999  0.54232  1.0000
  H   H23       1.0  0.81805  0.56359  0.45088000000000006  1.0000
  H   H24       1.0  0.6798300000000002  0.7108099999999999  0.4596000000000001  1.0000
  H   H25       1.0  0.08325  0.61216  0.20609  1.0000
  H   H26       1.0  0.12389000000000013  0.6927099999999998  0.26055000000000006  1.0000
  H   H27       1.0  0.22276000000000004  0.8275899999999999  0.13451  1.0000
  H   H28       1.0  0.1818600000000001  0.7468199999999998  0.07999  1.0000
  H   H29       1.0  0.83388  0.31543  0.08352000000000002  1.0000
  H   H30       1.0  0.76699  0.24613999999999997  0.15821  1.0000
  H   H31       1.0  0.86047  0.36585  0.24858000000000005  1.0000
  H   H32       1.0  0.9246599999999998  0.4382299999999999  0.17374  1.0000
  H   H33       1.0  0.7888800000000001  0.8192399999999997  0.047030000000000016  1.0000
  H   H34       1.0  0.63907  0.9551899999999998  0.04146000000000001  1.0000
  H   H35       1.0  0.56151  0.8204499999999999  0.9516000000000002  1.0000
  H   H36       1.0  0.7113099999999997  0.68458  0.9569700000000001  1.0000
  H   H37       1.0  0.3876700000000002  0.9165499999999996  0.2942800000000001  1.0000
  H   H38       1.0  0.30654000000000003  0.8771199999999998  0.23977  1.0000
  H   H39       1.0  0.17206000000000002  0.7774299999999997  0.36573000000000006  1.0000
  H   H40       1.0  0.25329000000000007  0.8173199999999997  0.4202700000000001  1.0000
  H   H41       1.0  0.6845699999999996  0.1652  0.41618  1.0000
  H   H42       1.0  0.75054  0.23481  0.34118000000000004  1.0000
  H   H43       1.0  0.6321  0.13846999999999998  0.2516900000000001  1.0000
  H   H44       1.0  0.56545  0.06920999999999997  0.32690000000000013  1.0000
  H   H45       1.0  0.18432  0.21137999999999996  0.45134  1.0000
  H   H46       1.0  0.046960000000000085  0.36004999999999987  0.45882  1.0000
  H   H47       1.0  0.17956  0.43975999999999993  0.5486  1.0000
  H   H48       1.0  0.31664  0.29082  0.54146  1.0000
  C   C1        1.0  0.8859000000000001  0.37925999999999993  0.89216  1.0000
  C   C2        1.0  0.86603  0.32839  0.8602300000000003  1.0000
  C   C3        1.0  0.8849399999999998  0.34207  0.8093  1.0000
  C   C4        1.0  0.86276  0.29767999999999994  0.7793300000000002  1.0000
  C   C5        1.0  0.8210699999999995  0.23865  0.8002  1.0000
  C   C6        1.0  0.8043499999999997  0.22314999999999996  0.8511400000000001  1.0000
  C   C7        1.0  0.8266899999999999  0.26786999999999994  0.8810200000000002  1.0000
  C   C8        1.0  0.07839999999999996  0.5781799999999999  0.9204100000000002  1.0000
  C   C9        1.0  0.11719000000000003  0.6194  0.8759500000000002  1.0000
  C   C10       1.0  0.1626300000000001  0.6729499999999997  0.88018  1.0000
  C   C11       1.0  0.19982000000000005  0.7105299999999998  0.8389100000000003  1.0000
  C   C12       1.0  0.19154999999999994  0.69528  0.79246  1.0000
  C   C13       1.0  0.14519000000000004  0.6428499999999998  0.7882  1.0000
  C   C14       1.0  0.10851999999999998  0.60481  0.82967  1.0000
  C   C15       1.0  0.1483399999999998  0.33792  0.9925600000000002  1.0000
  C   C16       1.0  0.23764999999999978  0.25917  0.99665  1.0000
  C   C17       1.0  0.25913  0.18226999999999985  0.9728400000000003  1.0000
  C   C18       1.0  0.34171  0.10769999999999998  0.9764100000000002  1.0000
  C   C19       1.0  0.40434  0.10913  0.00418  1.0000
  C   C20       1.0  0.38325  0.18593  0.02777  1.0000
  C   C21       1.0  0.30028999999999995  0.2606  0.02405  1.0000
  C   C22       1.0  0.62374  0.11221999999999999  0.60803  1.0000
  C   C23       1.0  0.67425  0.13179  0.64015  1.0000
  C   C24       1.0  0.6592399999999998  0.11397999999999994  0.69109  1.0000
  C   C25       1.0  0.70317  0.13624  0.72119  1.0000
  C   C26       1.0  0.7630699999999999  0.17688999999999988  0.7004500000000001  1.0000
  C   C27       1.0  0.7800899999999998  0.19222999999999998  0.64955  1.0000
  C   C28       1.0  0.7358  0.16993999999999992  0.6195100000000002  1.0000
  C   C29       1.0  0.41461  0.9300399999999998  0.57994  1.0000
  C   C30       1.0  0.3757300000000001  0.8889899999999997  0.6243500000000001  1.0000
  C   C31       1.0  0.32362999999999986  0.84204  0.6202100000000002  1.0000
  C   C32       1.0  0.28861999999999993  0.8024699999999998  0.6614900000000001  1.0000
  C   C33       1.0  0.30500000000000005  0.8098  0.70783  1.0000
  C   C34       1.0  0.35661  0.8570299999999995  0.71201  1.0000
  C   C35       1.0  0.3918899999999999  0.89633  0.67052  1.0000
  C   C36       1.0  0.65848  0.84738  0.50991  1.0000
  C   C37       1.0  0.7384  0.75872  0.50529  1.0000
  C   C38       1.0  0.8144100000000001  0.73901  0.52895  1.0000
  C   C39       1.0  0.8905000000000001  0.65773  0.52435  1.0000
  C   C40       1.0  0.89158  0.59462  0.4957300000000001  1.0000
  C   C41       1.0  0.8155300000000002  0.6138099999999997  0.47243  1.0000
  C   C42       1.0  0.7391899999999999  0.6953799999999998  0.47726  1.0000
  C   C43       1.0  0.11155999999999998  0.62408  0.10797000000000001  1.0000
  C   C44       1.0  0.13123  0.6746  0.14015  1.0000
  C   C45       1.0  0.11332999999999999  0.65984  0.19109000000000004  1.0000
  C   C46       1.0  0.13534999999999997  0.70426  0.22112  1.0000
  C   C47       1.0  0.17593000000000023  0.7642499999999998  0.2003  1.0000
  C   C48       1.0  0.19156999999999988  0.7808000000000002  0.14939  1.0000
  C   C49       1.0  0.1693  0.7362  0.11943000000000002  1.0000
  C   C50       1.0  0.9211699999999997  0.42286  0.08004  1.0000
  C   C51       1.0  0.8825999999999998  0.3811299999999999  0.12438000000000003  1.0000
  C   C52       1.0  0.8384699999999998  0.32649999999999996  0.11986000000000002  1.0000
  C   C53       1.0  0.80174  0.28798999999999997  0.16095000000000004  1.0000
  C   C54       1.0  0.8097200000000001  0.30303  0.20752000000000007  1.0000
  C   C55       1.0  0.85485  0.35644  0.21209000000000006  1.0000
  C   C56       1.0  0.8904299999999998  0.39595999999999987  0.17081000000000002  1.0000
  C   C57       1.0  0.8476800000000001  0.6637999999999997  0.005820000000000001  1.0000
  C   C58       1.0  0.7587600000000002  0.7440399999999998  0.00238  1.0000
  C   C59       1.0  0.7385500000000002  0.8205799999999998  0.026220000000000007  1.0000
  C   C60       1.0  0.6561300000000001  0.89573  0.02314  1.0000
  C   C61       1.0  0.5923600000000001  0.8952799999999999  0.9958400000000002  1.0000
  C   C62       1.0  0.6123099999999998  0.8189399999999998  0.97211  1.0000
  C   C63       1.0  0.69508  0.7438599999999999  0.97526  1.0000
  C   C64       1.0  0.3760599999999999  0.8873999999999997  0.3922100000000001  1.0000
  C   C65       1.0  0.32542000000000015  0.8681299999999997  0.36013  1.0000
  C   C66       1.0  0.3400699999999999  0.8864099999999998  0.30922  1.0000
  C   C67       1.0  0.29540999999999984  0.86498  0.27918  1.0000
  C   C68       1.0  0.23549000000000003  0.8243699999999998  0.3  1.0000
  C   C69       1.0  0.21905000000000002  0.80835  0.3509  1.0000
  C   C70       1.0  0.26387  0.8300799999999999  0.38085  1.0000
  C   C71       1.0  0.58187  0.07291  0.42012  1.0000
  C   C72       1.0  0.62126  0.11350000000000002  0.3757  1.0000
  C   C73       1.0  0.67367  0.16009000000000004  0.37994  1.0000
  C   C74       1.0  0.71014  0.19843  0.33869  1.0000
  C   C75       1.0  0.6947499999999998  0.19020999999999993  0.29227  1.0000
  C   C76       1.0  0.64258  0.14359  0.28802  1.0000
  C   C77       1.0  0.6059899999999999  0.10545  0.32947  1.0000
  C   C78       1.0  0.34007  0.15452  0.49092  1.0000
  C   C79       1.0  0.25889999999999996  0.2427699999999999  0.4956100000000001  1.0000
  C   C80       1.0  0.18251  0.2620299999999999  0.47234  1.0000
  C   C81       1.0  0.10667000000000007  0.34386999999999984  0.47633  1.0000
  C   C82       1.0  0.10614  0.40832999999999986  0.5038200000000002  1.0000
  C   C83       1.0  0.18193000000000004  0.3890699999999999  0.52739  1.0000
  C   C84       1.0  0.25771000000000005  0.30674999999999997  0.5233300000000001  1.0000
  N   N1        1.0  0.7880599999999999  0.19628999999999994  0.77341  1.0000
  N   N2        1.0  0.226  0.73018  0.74782  1.0000
  N   N3        1.0  0.49034  0.03714  0.01059  1.0000
  N   N4        1.0  0.80512  0.21011  0.72728  1.0000
  N   N5        1.0  0.27228  0.77321  0.75247  1.0000
  N   N6        1.0  0.96526  0.5098099999999998  0.4883300000000001  1.0000
  N   N7        1.0  0.20891000000000004  0.8066199999999998  0.22708000000000006  1.0000
  N   N8        1.0  0.7757999999999998  0.26761  0.25214  1.0000
  N   N9        1.0  0.5064300000000004  0.9674599999999995  0.98983  1.0000
  N   N10       1.0  0.19315  0.79146  0.27321  1.0000
  N   N11       1.0  0.7282599999999999  0.22589  0.24756000000000006  1.0000
  N   N12       1.0  0.032809999999999985  0.4937  0.51053  1.0000
  O   O1        1.0  0.92454  0.4327499999999999  0.8736300000000002  1.0000
  O   O2        1.0  0.86497  0.36857  0.9385500000000002  1.0000
  O   O3        1.0  0.08573000000000014  0.5946099999999996  0.96191  1.0000
  O   O4        1.0  0.03990999999999997  0.52806  0.91473  1.0000
  O   O5        1.0  0.129  0.40687  0.01517  1.0000
  O   O6        1.0  0.09429999999999998  0.33347999999999983  0.9667800000000002  1.0000
  O   O7        1.0  0.56831  0.07568  0.62642  1.0000
  O   O8        1.0  0.63631  0.13144  0.56163  1.0000
  O   O9        1.0  0.3971700000000001  0.9240999999999999  0.53842  1.0000
  O   O10       1.0  0.46407000000000004  0.9691299999999999  0.58555  1.0000
  O   O11       1.0  0.5899700000000001  0.8647199999999998  0.48779  1.0000
  O   O12       1.0  0.6618  0.90283  0.53538  1.0000
  O   O13       1.0  0.07529000000000008  0.56833  0.12635  1.0000
  O   O14       1.0  0.13018000000000007  0.6370999999999998  0.06155000000000001  1.0000
  O   O15       1.0  0.9164000000000001  0.4045999999999999  0.03844  1.0000
  O   O16       1.0  0.9572999999999996  0.47501  0.08568  1.0000
  O   O17       1.0  0.86354  0.5957299999999996  0.98334  1.0000
  O   O18       1.0  0.9041400000000002  0.66633  0.03062  1.0000
  O   O19       1.0  0.43217000000000005  0.92309  0.37379  1.0000
  O   O20       1.0  0.36265999999999976  0.8690499999999998  0.43865  1.0000
  O   O21       1.0  0.59922  0.07900999999999998  0.4616300000000001  1.0000
  O   O22       1.0  0.53252  0.03368999999999996  0.41451000000000005  1.0000
  O   O23       1.0  0.40843999999999997  0.13893  0.51271  1.0000
  O   O24       1.0  0.3380300000000002  0.09841  0.46547  1.0000
