data_image0
_chemical_formula_structural       Cd6H48C72N4O28
_chemical_formula_sum              "Cd6 H48 C72 N4 O28"
_cell_length_a       12.83056
_cell_length_b       13.69944
_cell_length_c       16.49012
_cell_angle_alpha    80.46314
_cell_angle_beta     77.98481
_cell_angle_gamma    80.878

_space_group_name_H-M_alt    "P 1"
_space_group_IT_number       1

loop_
  _space_group_symop_operation_xyz
  'x, y, z'

loop_
  _atom_site_type_symbol
  _atom_site_label
  _atom_site_symmetry_multiplicity
  _atom_site_fract_x
  _atom_site_fract_y
  _atom_site_fract_z
  _atom_site_occupancy
  Cd  Cd1       1.0  0.47288  0.53001  0.73415  1.0000
  Cd  Cd2       1.0  0.7251199999999998  0.24398999999999998  0.23895  1.0000
  Cd  Cd3       1.0  0.7109499999999997  0.30084  0.75548  1.0000
  Cd  Cd4       1.0  0.5271199999999999  0.46999999999999986  0.26584  1.0000
  Cd  Cd5       1.0  0.27488  0.7560199999999998  0.76105  1.0000
  Cd  Cd6       1.0  0.28904999999999986  0.69917  0.24452  1.0000
  H   H1        1.0  0.7826099999999998  0.6780399999999998  0.65358  1.0000
  H   H2        1.0  0.9528399999999999  0.75005  0.65346  1.0000
  H   H3        1.0  0.99071  0.55823  0.88061  1.0000
  H   H4        1.0  0.7196900000000002  0.55307  0.97806  1.0000
  H   H5        1.0  0.7049499999999999  0.24036  0.06116000000000001  1.0000
  H   H6        1.0  0.83581  0.19974  0.93322  1.0000
  H   H7        1.0  0.53292  0.71577  0.4525800000000001  1.0000
  H   H8        1.0  0.14789000000000005  0.8414899999999998  0.45298  1.0000
  H   H9        1.0  0.20338000000000006  0.7317399999999998  0.57799  1.0000
  H   H10       1.0  0.2940099999999999  0.007709999999999989  0.42349  1.0000
  H   H11       1.0  0.33394  0.10794  0.34418  1.0000
  H   H12       1.0  0.19586000000000003  0.10696000000000001  0.39226  1.0000
  H   H13       1.0  0.12944000000000003  0.09677999999999995  0.25362  1.0000
  H   H14       1.0  0.2608  0.13115  0.21369000000000005  1.0000
  H   H15       1.0  0.22332  0.02303  0.18388  1.0000
  H   H16       1.0  0.6797799999999999  0.76187  0.14385  1.0000
  H   H17       1.0  0.72742  0.9373  0.128  1.0000
  H   H18       1.0  0.49850000000000005  0.98899  0.35035  1.0000
  H   H19       1.0  0.06479999999999998  0.31693000000000005  0.6697  1.0000
  H   H20       1.0  0.17409999999999998  0.34788  0.7096  1.0000
  H   H21       1.0  0.13965999999999998  0.22388999999999998  0.73211  1.0000
  H   H22       1.0  0.14003000000000004  0.28963  0.88142  1.0000
  H   H23       1.0  0.12671  0.41862  0.83934  1.0000
  H   H24       1.0  0.02178000000000006  0.36964999999999976  0.91814  1.0000
  H   H25       1.0  0.21738999999999992  0.32197  0.34642  1.0000
  H   H26       1.0  0.04716000000000001  0.24995999999999996  0.34654  1.0000
  H   H27       1.0  0.00929  0.44178  0.11939  1.0000
  H   H28       1.0  0.2803099999999999  0.4469399999999999  0.02194  1.0000
  H   H29       1.0  0.29503999999999997  0.7596499999999998  0.93884  1.0000
  H   H30       1.0  0.16419  0.80026  0.06678  1.0000
  H   H31       1.0  0.46707999999999983  0.28423  0.54741  1.0000
  H   H32       1.0  0.8521099999999998  0.15851999999999997  0.54701  1.0000
  H   H33       1.0  0.79662  0.26825999999999994  0.422  1.0000
  H   H34       1.0  0.70599  0.9923  0.57651  1.0000
  H   H35       1.0  0.6660599999999999  0.8920699999999998  0.65581  1.0000
  H   H36       1.0  0.80413  0.8930499999999999  0.60774  1.0000
  H   H37       1.0  0.8705599999999999  0.9032300000000001  0.74638  1.0000
  H   H38       1.0  0.7391899999999997  0.8688499999999998  0.78631  1.0000
  H   H39       1.0  0.7766799999999998  0.9769799999999997  0.81611  1.0000
  H   H40       1.0  0.32022  0.23812999999999995  0.8561500000000002  1.0000
  H   H41       1.0  0.27257999999999993  0.06269999999999999  0.872  1.0000
  H   H42       1.0  0.5015  0.011020000000000009  0.64964  1.0000
  H   H43       1.0  0.9351999999999999  0.68308  0.3303  1.0000
  H   H44       1.0  0.8258999999999997  0.65213  0.29039  1.0000
  H   H45       1.0  0.86034  0.77612  0.26789  1.0000
  H   H46       1.0  0.8599699999999998  0.71038  0.11858  1.0000
  H   H47       1.0  0.87329  0.5813899999999999  0.16066  1.0000
  H   H48       1.0  0.9782199999999999  0.63035  0.08186  1.0000
  C   C1        1.0  0.6944399999999998  0.53615  0.76029  1.0000
  C   C2        1.0  0.79617  0.5741999999999999  0.7642  1.0000
  C   C3        1.0  0.8306200000000001  0.65155  0.70186  1.0000
  C   C4        1.0  0.9229199999999999  0.6921299999999998  0.70236  1.0000
  C   C5        1.0  0.9799900000000001  0.6584  0.76759  1.0000
  C   C6        1.0  0.9451599999999996  0.5821899999999998  0.83052  1.0000
  C   C7        1.0  0.85509  0.53726  0.82884  1.0000
  C   C8        1.0  0.07951000000000004  0.7020599999999998  0.76837  1.0000
  C   C9        1.0  0.82028  0.4545699999999998  0.89543  1.0000
  C   C10       1.0  0.7475899999999999  0.47605  0.96788  1.0000
  C   C11       1.0  0.70674  0.3998499999999999  0.02805  1.0000
  C   C12       1.0  0.7371  0.30000999999999994  0.01507  1.0000
  C   C13       1.0  0.81058  0.27721  0.94341  1.0000
  C   C14       1.0  0.85371  0.3536500000000001  0.88459  1.0000
  C   C15       1.0  0.63286  0.4275899999999999  0.10623  1.0000
  C   C16       1.0  0.92716  0.32572  0.80683  1.0000
  C   C17       1.0  0.407  0.64709  0.59406  1.0000
  C   C18       1.0  0.37156  0.7163999999999998  0.52165  1.0000
  C   C19       1.0  0.44909000000000004  0.7450499999999999  0.45207  1.0000
  C   C20       1.0  0.42028  0.8104299999999998  0.3834  1.0000
  C   C21       1.0  0.31049999999999994  0.8442099999999999  0.38408  1.0000
  C   C22       1.0  0.23234000000000005  0.8145299999999998  0.45334  1.0000
  C   C23       1.0  0.2628399999999999  0.75219  0.5226600000000002  1.0000
  C   C24       1.0  0.27504  0.90601  0.30876  1.0000
  C   C25       1.0  0.27076  0.05981999999999999  0.37057  1.0000
  C   C26       1.0  0.21447999999999995  0.06785  0.23445  1.0000
  C   C27       1.0  0.5437900000000001  0.67285  0.26651  1.0000
  C   C28       1.0  0.56041  0.77972  0.25445  1.0000
  C   C29       1.0  0.63958  0.8133699999999998  0.18765  1.0000
  C   C30       1.0  0.6660899999999998  0.9095699999999999  0.17897  1.0000
  C   C31       1.0  0.6159499999999998  0.97205  0.23896  1.0000
  C   C32       1.0  0.5346600000000001  0.9395599999999997  0.30402  1.0000
  C   C33       1.0  0.5044799999999999  0.8441299999999998  0.31184  1.0000
  C   C34       1.0  0.65333  0.07085000000000001  0.23638  1.0000
  C   C35       1.0  0.10725999999999998  0.30324  0.72228  1.0000
  C   C36       1.0  0.08281000000000002  0.35399  0.86327  1.0000
  C   C37       1.0  0.30555  0.46386  0.23971  1.0000
  C   C38       1.0  0.20383  0.4258099999999999  0.2358  1.0000
  C   C39       1.0  0.16937999999999998  0.3484599999999999  0.29814  1.0000
  C   C40       1.0  0.07708000000000001  0.3078799999999999  0.29763  1.0000
  C   C41       1.0  0.02001000000000001  0.3416  0.23241  1.0000
  C   C42       1.0  0.05484000000000001  0.41781  0.16948  1.0000
  C   C43       1.0  0.14491000000000004  0.46274999999999994  0.17116  1.0000
  C   C44       1.0  0.9204899999999998  0.29795  0.23162  1.0000
  C   C45       1.0  0.17972  0.54543  0.10456  1.0000
  C   C46       1.0  0.25241  0.52396  0.03212  1.0000
  C   C47       1.0  0.29326  0.6001599999999998  0.97195  1.0000
  C   C48       1.0  0.2628900000000001  0.6999899999999998  0.98493  1.0000
  C   C49       1.0  0.18941999999999995  0.72279  0.05659  1.0000
  C   C50       1.0  0.14628000000000005  0.6463599999999998  0.11541  1.0000
  C   C51       1.0  0.3671400000000001  0.57242  0.89377  1.0000
  C   C52       1.0  0.07284000000000004  0.6742899999999997  0.19317  1.0000
  C   C53       1.0  0.5930000000000001  0.3529099999999999  0.40594  1.0000
  C   C54       1.0  0.6284299999999999  0.2836099999999999  0.47835  1.0000
  C   C55       1.0  0.55091  0.25496  0.54793  1.0000
  C   C56       1.0  0.5797199999999999  0.18958  0.6166  1.0000
  C   C57       1.0  0.6894999999999998  0.1558  0.61592  1.0000
  C   C58       1.0  0.76766  0.18548  0.54666  1.0000
  C   C59       1.0  0.7371499999999999  0.24782  0.47734  1.0000
  C   C60       1.0  0.72496  0.09398999999999996  0.69124  1.0000
  C   C61       1.0  0.72924  0.9401799999999999  0.62943  1.0000
  C   C62       1.0  0.78551  0.93216  0.76555  1.0000
  C   C63       1.0  0.45621  0.32715  0.73349  1.0000
  C   C64       1.0  0.43959000000000004  0.22029  0.74555  1.0000
  C   C65       1.0  0.36042  0.18663999999999992  0.81235  1.0000
  C   C66       1.0  0.33390999999999993  0.09044000000000002  0.82102  1.0000
  C   C67       1.0  0.38405  0.027959999999999992  0.76104  1.0000
  C   C68       1.0  0.46533  0.06044999999999998  0.69597  1.0000
  C   C69       1.0  0.49552  0.15586999999999995  0.68816  1.0000
  C   C70       1.0  0.3466699999999999  0.9291599999999998  0.76362  1.0000
  C   C71       1.0  0.8927399999999999  0.69677  0.27772  1.0000
  C   C72       1.0  0.9171799999999999  0.6460199999999998  0.13672  1.0000
  N   N1        1.0  0.032699999999999986  0.33078  0.79772  1.0000
  N   N2        1.0  0.25433  0.005530000000000002  0.30575  1.0000
  N   N3        1.0  0.9673  0.6692299999999999  0.20228  1.0000
  N   N4        1.0  0.7456700000000002  0.9944799999999999  0.69424  1.0000
  O   O1        1.0  0.8901499999999998  0.2954  0.75042  1.0000
  O   O2        1.0  0.67693  0.44845  0.79747  1.0000
  O   O3        1.0  0.6289699999999999  0.5951499999999997  0.72185  1.0000
  O   O4        1.0  0.61411  0.12021999999999995  0.29759  1.0000
  O   O5        1.0  0.72479  0.10020999999999997  0.17472  1.0000
  O   O6        1.0  0.4974799999999998  0.5950299999999998  0.58347  1.0000
  O   O7        1.0  0.34182  0.64255  0.66578  1.0000
  O   O8        1.0  0.59809  0.5177399999999999  0.11255  1.0000
  O   O9        1.0  0.6082499999999997  0.35628  0.16651  1.0000
  O   O10       1.0  0.10813999999999997  0.77191  0.71025  1.0000
  O   O11       1.0  0.1327  0.66602  0.82631  1.0000
  O   O12       1.0  0.44754000000000005  0.6470299999999999  0.28175  1.0000
  O   O13       1.0  0.6250799999999999  0.60816  0.26254  1.0000
  O   O14       1.0  0.2616399999999999  0.86412  0.24868  1.0000
  O   O15       1.0  0.10984999999999999  0.7046  0.24958  1.0000
  O   O16       1.0  0.32307  0.55156  0.20253  1.0000
  O   O17       1.0  0.37102  0.40485  0.27815  1.0000
  O   O18       1.0  0.38588999999999996  0.8797799999999998  0.70241  1.0000
  O   O19       1.0  0.27521000000000007  0.8997899999999998  0.82528  1.0000
  O   O20       1.0  0.5025199999999997  0.40496999999999994  0.41653  1.0000
  O   O21       1.0  0.65818  0.3574499999999999  0.33421000000000006  1.0000
  O   O22       1.0  0.40189999999999987  0.48226  0.88745  1.0000
  O   O23       1.0  0.39173999999999987  0.6437299999999997  0.8334900000000002  1.0000
  O   O24       1.0  0.8918599999999999  0.22809999999999997  0.28975  1.0000
  O   O25       1.0  0.8672999999999997  0.33398999999999995  0.17369  1.0000
  O   O26       1.0  0.5524599999999998  0.35297  0.71825  1.0000
  O   O27       1.0  0.37492  0.39184999999999987  0.73746  1.0000
  O   O28       1.0  0.73836  0.13588  0.75132  1.0000
