data_image0
_chemical_formula_structural       Mn4H88C98N12O16
_chemical_formula_sum              "Mn4 H88 C98 N12 O16"
_cell_length_a       10.97819
_cell_length_b       11.24032
_cell_length_c       20.418759999999995
_cell_angle_alpha    94.39834
_cell_angle_beta     93.38496
_cell_angle_gamma    108.2168

_space_group_name_H-M_alt    "P 1"
_space_group_IT_number       1

loop_
  _space_group_symop_operation_xyz
  'x, y, z'

loop_
  _atom_site_type_symbol
  _atom_site_label
  _atom_site_symmetry_multiplicity
  _atom_site_fract_x
  _atom_site_fract_y
  _atom_site_fract_z
  _atom_site_occupancy
  Mn  Mn1       1.0  0.12783  0.48355000000000004  0.23838  1.0000
  Mn  Mn2       1.0  0.87499  0.51945  0.76138  1.0000
  Mn  Mn3       1.0  0.9951899999999998  0.9998900000000002  0.50331  1.0000
  Mn  Mn4       1.0  0.50312  0.49947  0.99902  1.0000
  H   H1        1.0  0.04250000000000003  0.6700700000000002  0.31849  1.0000
  H   H2        1.0  0.62606  0.6164800000000001  0.8739500000000001  1.0000
  H   H3        1.0  0.55877  0.62519  0.75634  1.0000
  H   H4        1.0  0.31721000000000005  0.6274600000000001  0.14408  1.0000
  H   H5        1.0  0.26596  0.37721  0.9042600000000001  1.0000
  H   H6        1.0  0.18479999999999994  0.37564  0.7881  1.0000
  H   H7        1.0  0.53599  0.77546  0.14193000000000003  1.0000
  H   H8        1.0  0.58449  0.77371  0.3536  1.0000
  H   H9        1.0  0.07307000000000001  0.14636000000000002  0.38836  1.0000
  H   H10       1.0  0.9766699999999999  0.8620100000000002  0.31235  1.0000
  H   H11       1.0  0.35981  0.62416  0.34665  1.0000
  H   H12       1.0  0.7740999999999999  0.8035700000000001  0.27216  1.0000
  H   H13       1.0  0.74014  0.9425200000000001  0.29133000000000003  1.0000
  H   H14       1.0  0.8816099999999999  0.4091300000000001  0.14824  1.0000
  H   H15       1.0  0.65895  0.26124  0.13161  1.0000
  H   H16       1.0  0.7305399999999999  0.13275000000000003  0.32031  1.0000
  H   H17       1.0  0.006260000000000047  0.8251300000000003  0.10221000000000001  1.0000
  H   H18       1.0  0.7505200000000002  0.8371900000000001  0.14874  1.0000
  H   H19       1.0  0.74295  0.9879700000000001  0.17410000000000003  1.0000
  H   H20       1.0  0.18699000000000007  0.8678800000000002  0.4720000000000001  1.0000
  H   H21       1.0  0.30681  0.83993  0.3763  1.0000
  H   H22       1.0  0.26572000000000007  0.40308000000000005  0.67042  1.0000
  H   H23       1.0  0.22825000000000004  0.5389200000000001  0.69531  1.0000
  H   H24       1.0  0.453  0.67121  0.67154  1.0000
  H   H25       1.0  0.48139999999999994  0.53323  0.64097  1.0000
  H   H26       1.0  0.07775  0.63882  0.11762  1.0000
  H   H27       1.0  0.20405999999999996  0.14308  0.2962  1.0000
  H   H28       1.0  0.28737999999999997  0.0007200000000000043  0.22394000000000003  1.0000
  H   H29       1.0  0.33326  0.87769  0.25542  1.0000
  H   H30       1.0  0.95074  0.27317  0.325  1.0000
  H   H31       1.0  0.54178  0.9987600000000001  0.18954  1.0000
  H   H32       1.0  0.4804899999999999  0.12368000000000003  0.18063  1.0000
  H   H33       1.0  0.3212900000000001  0.7901600000000001  0.51881  1.0000
  H   H34       1.0  0.58602  0.58341  0.55326  1.0000
  H   H35       1.0  0.8957499999999998  0.33783  0.57511  1.0000
  H   H36       1.0  0.95736  0.03322  0.24335  1.0000
  H   H37       1.0  0.9645199999999998  0.017589999999999995  0.15693  1.0000
  H   H38       1.0  0.2994  0.49290000000000006  0.55302  1.0000
  H   H39       1.0  0.26097999999999993  0.62412  0.58684  1.0000
  H   H40       1.0  0.83531  0.33632  0.04861  1.0000
  H   H41       1.0  0.5295  0.02231  0.3125  1.0000
  H   H42       1.0  0.4767500000000001  0.15292000000000003  0.30482  1.0000
  H   H43       1.0  0.7374400000000002  0.7282500000000001  0.48799000000000003  1.0000
  H   H44       1.0  0.48364  0.9254  0.45210000000000006  1.0000
  H   H45       1.0  0.96371  0.33506  0.67719  1.0000
  H   H46       1.0  0.37774999999999986  0.38842  0.12589  1.0000
  H   H47       1.0  0.44349  0.3827900000000001  0.24382000000000004  1.0000
  H   H48       1.0  0.7007000000000001  0.37484000000000006  0.8539400000000001  1.0000
  H   H49       1.0  0.7414999999999999  0.6193  0.09464  1.0000
  H   H50       1.0  0.82066  0.6244000000000001  0.21143  1.0000
  H   H51       1.0  0.48246  0.22738000000000003  0.85175  1.0000
  H   H52       1.0  0.43572  0.26141  0.64315  1.0000
  H   H53       1.0  0.9252  0.85619  0.61891  1.0000
  H   H54       1.0  0.03563000000000002  0.14721000000000004  0.6815300000000001  1.0000
  H   H55       1.0  0.65783  0.4101600000000001  0.65348  1.0000
  H   H56       1.0  0.24246  0.21128000000000002  0.72119  1.0000
  H   H57       1.0  0.27943  0.07447999999999999  0.70068  1.0000
  H   H58       1.0  0.10556000000000001  0.5648100000000001  0.84989  1.0000
  H   H59       1.0  0.32726  0.70946  0.86771  1.0000
  H   H60       1.0  0.25083000000000005  0.8686200000000001  0.6895900000000001  1.0000
  H   H61       1.0  0.0003300000000000035  0.17343000000000003  0.89135  1.0000
  H   H62       1.0  0.26484  0.17273  0.84407  1.0000
  H   H63       1.0  0.27527  0.02411000000000002  0.8170400000000001  1.0000
  H   H64       1.0  0.79883  0.12742  0.53583  1.0000
  H   H65       1.0  0.6761699999999999  0.1493  0.63151  1.0000
  H   H66       1.0  0.72923  0.6032400000000001  0.33086000000000004  1.0000
  H   H67       1.0  0.77735  0.4731100000000001  0.30704  1.0000
  H   H68       1.0  0.55485  0.32924  0.32665  1.0000
  H   H69       1.0  0.5156  0.46192  0.35664  1.0000
  H   H70       1.0  0.92188  0.35577  0.87745  1.0000
  H   H71       1.0  0.7953399999999999  0.85545  0.71215  1.0000
  H   H72       1.0  0.7000500000000001  0.9843300000000001  0.78326  1.0000
  H   H73       1.0  0.65765  0.11159  0.75485  1.0000
  H   H74       1.0  0.030100000000000012  0.73238  0.68417  1.0000
  H   H75       1.0  0.44975999999999994  0.9823  0.82047  1.0000
  H   H76       1.0  0.50556  0.85259  0.8220500000000001  1.0000
  H   H77       1.0  0.67609  0.211  0.48076  1.0000
  H   H78       1.0  0.41102999999999995  0.41737  0.44560000000000005  1.0000
  H   H79       1.0  0.09362000000000002  0.6593800000000002  0.42856000000000005  1.0000
  H   H80       1.0  0.06031000000000006  0.9757100000000002  0.74882  1.0000
  H   H81       1.0  0.05454999999999999  0.98916  0.83529  1.0000
  H   H82       1.0  0.6952200000000001  0.50996  0.44718  1.0000
  H   H83       1.0  0.73957  0.38104000000000005  0.41525000000000006  1.0000
  H   H84       1.0  0.17105  0.6612300000000001  0.95175  1.0000
  H   H85       1.0  0.4594300000000001  0.9748100000000001  0.69663  1.0000
  H   H86       1.0  0.50962  0.8416  0.69824  1.0000
  H   H87       1.0  0.25791  0.2704  0.50909  1.0000
  H   H88       1.0  0.51219  0.0742  0.54617  1.0000
  C   C1        1.0  0.97317  0.23407  0.4707700000000001  1.0000
  C   C2        1.0  0.11758999999999999  0.43910000000000005  0.38593000000000005  1.0000
  C   C3        1.0  0.9940900000000001  0.37303000000000003  0.4868100000000001  1.0000
  C   C4        1.0  0.033820000000000065  0.70862  0.27179000000000003  1.0000
  C   C5        1.0  0.5282  0.56603  0.8529300000000001  1.0000
  C   C6        1.0  0.48947  0.56946  0.78701  1.0000
  C   C7        1.0  0.05097000000000001  0.46636000000000005  0.44534000000000007  1.0000
  C   C8        1.0  0.37856999999999996  0.66271  0.18972  1.0000
  C   C9        1.0  0.32753  0.43091  0.86973  1.0000
  C   C10       1.0  0.28325000000000006  0.43024000000000007  0.8049600000000001  1.0000
  C   C11       1.0  0.50259  0.74632  0.18906000000000003  1.0000
  C   C12       1.0  0.5818600000000002  0.7859200000000001  0.24794  1.0000
  C   C13       1.0  0.52819  0.74313  0.3059700000000001  1.0000
  C   C14       1.0  0.12628  0.08019  0.38511  1.0000
  C   C15       1.0  0.07181000000000003  0.34542000000000006  0.09728  1.0000
  C   C16       1.0  0.99601  0.81484  0.26755  1.0000
  C   C17       1.0  0.98306  0.86  0.20619  1.0000
  C   C18       1.0  0.36379  0.50093  0.76156  1.0000
  C   C19       1.0  0.4036  0.66033  0.30271000000000003  1.0000
  C   C20       1.0  0.72172  0.864  0.25244  1.0000
  C   C21       1.0  0.84566  0.34286000000000005  0.18404000000000004  1.0000
  C   C22       1.0  0.72052  0.26046  0.17531  1.0000
  C   C23       1.0  0.6740199999999998  0.17978000000000002  0.22355000000000003  1.0000
  C   C24       1.0  0.75879  0.18814  0.27911  1.0000
  C   C25       1.0  0.013950000000000021  0.79519  0.15137  1.0000
  C   C26       1.0  0.77902  0.9128100000000001  0.18949  1.0000
  C   C27       1.0  0.18742  0.92233  0.43046  1.0000
  C   C28       1.0  0.25788000000000005  0.9105400000000002  0.37768  1.0000
  C   C29       1.0  0.26343  0.98655  0.326  1.0000
  C   C30       1.0  0.30951  0.50133  0.69216  1.0000
  C   C31       1.0  0.4049499999999999  0.57584  0.64743  1.0000
  C   C32       1.0  0.05328000000000003  0.6904200000000001  0.15945  1.0000
  C   C33       1.0  0.20022  0.07675  0.33279  1.0000
  C   C34       1.0  0.33545  0.97543  0.26695  1.0000
  C   C35       1.0  0.8840700000000001  0.27001  0.28301  1.0000
  C   C36       1.0  0.5394999999999999  0.08835  0.21464  1.0000
  C   C37       1.0  0.27439  0.51782  0.0192  1.0000
  C   C38       1.0  0.41122000000000003  0.7713600000000002  0.5112800000000001  1.0000
  C   C39       1.0  0.55703  0.6563  0.53097  1.0000
  C   C40       1.0  0.94031  0.40819000000000005  0.54263  1.0000
  C   C41       1.0  0.9281399999999999  0.96564  0.19898  1.0000
  C   C42       1.0  0.34148000000000006  0.5870200000000001  0.58016  1.0000
  C   C43       1.0  0.90982  0.40831000000000006  0.027910000000000004  1.0000
  C   C44       1.0  0.4753899999999999  0.06319000000000001  0.27887  1.0000
  C   C45       1.0  0.6427800000000001  0.7375800000000001  0.494  1.0000
  C   C46       1.0  0.50268  0.84754  0.47471  1.0000
  C   C47       1.0  0.43681999999999993  0.67126  0.53983  1.0000
  C   C48       1.0  0.1348  0.51178  0.01471  1.0000
  C   C49       1.0  0.03969999999999999  0.42013  0.04363000000000001  1.0000
  C   C50       1.0  0.018650000000000024  0.7639500000000001  0.53454  1.0000
  C   C51       1.0  0.87961  0.5613500000000001  0.61962  1.0000
  C   C52       1.0  0.9959  0.6249000000000002  0.51718  1.0000
  C   C53       1.0  0.97188  0.29503000000000007  0.7233500000000002  1.0000
  C   C54       1.0  0.47614999999999996  0.43767  0.14659  1.0000
  C   C55       1.0  0.51397  0.43601000000000006  0.21289  1.0000
  C   C56       1.0  0.9397299999999998  0.53167  0.55874  1.0000
  C   C57       1.0  0.64009  0.34697000000000006  0.80784  1.0000
  C   C58       1.0  0.6786500000000001  0.5679500000000002  0.1294  1.0000
  C   C59       1.0  0.7219799999999998  0.5705500000000001  0.19460000000000002  1.0000
  C   C60       1.0  0.51577  0.26323  0.8057700000000001  1.0000
  C   C61       1.0  0.43596999999999997  0.23086  0.74677  1.0000
  C   C62       1.0  0.49116999999999994  0.28435  0.69108  1.0000
  C   C63       1.0  0.86845  0.91917  0.62246  1.0000
  C   C64       1.0  0.93311  0.6454000000000001  0.9011100000000001  1.0000
  C   C65       1.0  0.013740000000000011  0.19123  0.72667  1.0000
  C   C66       1.0  0.02791  0.14449  0.78751  1.0000
  C   C67       1.0  0.63993  0.5031400000000001  0.23848  1.0000
  C   C68       1.0  0.61551  0.36742  0.69615  1.0000
  C   C69       1.0  0.296  0.15138  0.74042  1.0000
  C   C70       1.0  0.13961  0.6374500000000001  0.81721  1.0000
  C   C71       1.0  0.2647300000000001  0.71839  0.8262300000000001  1.0000
  C   C72       1.0  0.31165000000000004  0.8066200000000001  0.78125  1.0000
  C   C73       1.0  0.22406  0.80695  0.72847  1.0000
  C   C74       1.0  0.9924499999999999  0.20465000000000005  0.8425000000000001  1.0000
  C   C75       1.0  0.23761999999999997  0.09873999999999997  0.80255  1.0000
  C   C76       1.0  0.80008  0.07291000000000002  0.57725  1.0000
  C   C77       1.0  0.72897  0.08183000000000003  0.6302300000000001  1.0000
  C   C78       1.0  0.72719  0.006640000000000007  0.6821  1.0000
  C   C79       1.0  0.6920300000000001  0.5047600000000001  0.30864  1.0000
  C   C80       1.0  0.59643  0.42482  0.35166  1.0000
  C   C81       1.0  0.9489  0.30731  0.8352500000000002  1.0000
  C   C82       1.0  0.7953499999999999  0.9206  0.67534  1.0000
  C   C83       1.0  0.65372  0.013939999999999994  0.74112  1.0000
  C   C84       1.0  0.09779000000000002  0.72725  0.7238  1.0000
  C   C85       1.0  0.44798999999999994  0.89501  0.79121  1.0000
  C   C86       1.0  0.7322399999999999  0.48146  0.98074  1.0000
  C   C87       1.0  0.58567  0.22925  0.48771000000000003  1.0000
  C   C88       1.0  0.4397  0.34402  0.46761  1.0000
  C   C89       1.0  0.04887000000000003  0.5893500000000002  0.4611500000000001  1.0000
  C   C90       1.0  0.08862000000000002  0.04273000000000002  0.7934300000000001  1.0000
  C   C91       1.0  0.6568700000000001  0.4155400000000001  0.42007000000000005  1.0000
  C   C92       1.0  0.09673000000000004  0.5902699999999999  0.97322  1.0000
  C   C93       1.0  0.5125  0.92856  0.72763  1.0000
  C   C94       1.0  0.35292999999999997  0.26148  0.50364  1.0000
  C   C95       1.0  0.49334  0.15212000000000003  0.5235300000000002  1.0000
  C   C96       1.0  0.5603899999999999  0.32972  0.45935  1.0000
  C   C97       1.0  0.8717199999999998  0.48725000000000007  0.98692  1.0000
  C   C98       1.0  0.96683  0.57778  0.95748  1.0000
  N   N1        1.0  0.44864  0.4987  0.89434  1.0000
  N   N2        1.0  0.11590999999999999  0.0021100000000000194  0.43374000000000007  1.0000
  N   N3        1.0  0.06173000000000001  0.6458500000000001  0.21869000000000002  1.0000
  N   N4        1.0  0.92832  0.34787000000000007  0.23645000000000002  1.0000
  N   N5        1.0  0.61733  0.8320900000000002  0.46508  1.0000
  N   N6        1.0  0.32909  0.61809  0.24521  1.0000
  N   N7        1.0  0.55713  0.50179  0.10473  1.0000
  N   N8        1.0  0.87468  0.99612  0.5735800000000001  1.0000
  N   N9        1.0  0.94035  0.35453  0.77666  1.0000
  N   N10       1.0  0.0535  0.64101  0.76729  1.0000
  N   N11       1.0  0.37803999999999993  0.16667000000000004  0.5324200000000001  1.0000
  N   N12       1.0  0.69165  0.40177  0.7542400000000001  1.0000
  O   O1        1.0  0.12771  0.51633  0.34087  1.0000
  O   O2        1.0  0.036600000000000056  0.18278000000000008  0.5100100000000001  1.0000
  O   O3        1.0  0.15787000000000004  0.34647  0.38320000000000004  1.0000
  O   O4        1.0  0.89023  0.1731  0.42567  1.0000
  O   O5        1.0  0.15056999999999998  0.41786  0.14606  1.0000
  O   O6        1.0  0.018850000000000006  0.23030000000000003  0.09459  1.0000
  O   O7        1.0  0.2975  0.41216  0.01667  1.0000
  O   O8        1.0  0.36342  0.62262  0.01943  1.0000
  O   O9        1.0  0.8846699999999997  0.48961  0.66666  1.0000
  O   O10       1.0  0.95511  0.81712  0.49657  1.0000
  O   O11       1.0  0.8310399999999998  0.64785  0.6232300000000001  1.0000
  O   O12       1.0  0.10221000000000005  0.82287  0.57981  1.0000
  O   O13       1.0  0.86015  0.56251  0.8530400000000001  1.0000
  O   O14       1.0  0.97577  0.7599100000000001  0.89961  1.0000
  O   O15       1.0  0.7091799999999998  0.58704  0.9805200000000001  1.0000
  O   O16       1.0  0.64258  0.37728  0.98102  1.0000
