data_image0
_chemical_formula_structural       Cd8H56C72N24O24
_chemical_formula_sum              "Cd8 H56 C72 N24 O24"
_cell_length_a       4.73769
_cell_length_b       21.70394
_cell_length_c       21.67476
_cell_angle_alpha    90.03129
_cell_angle_beta     90.38944
_cell_angle_gamma    89.74341

_symmetry_space_group_name_H-M    'P 1'
_symmetry_Int_Tables_number       1

loop_
  _symmetry_equiv_pos_as_xyz
  'x,y,z'

loop_
  _atom_site_type_symbol
  _atom_site_label
  _atom_site_symmetry_multiplicity
  _atom_site_fract_x
  _atom_site_fract_y
  _atom_site_fract_z
  _atom_site_occupancy
  Cd  Cd1       1.0  0.9545099999999999  0.33138  0.7580699999999998  1.0000
  Cd  Cd2       1.0  0.96227  0.16790999999999998  0.7429699999999999  1.0000
  Cd  Cd3       1.0  0.46561  0.24241999999999994  0.8323399999999997  1.0000
  Cd  Cd4       1.0  0.45414999999999994  0.25681999999999994  0.6691999999999999  1.0000
  Cd  Cd5       1.0  0.04551  0.6686199999999999  0.24192999999999995  1.0000
  Cd  Cd6       1.0  0.037750000000000006  0.8320899999999999  0.25703  1.0000
  Cd  Cd7       1.0  0.53441  0.7575799999999999  0.16766  1.0000
  Cd  Cd8       1.0  0.5458700000000001  0.7431699999999998  0.3308  1.0000
  H   H1        1.0  0.4829  0.35819999999999996  0.7716799999999999  1.0000
  H   H2        1.0  0.14906  0.48845  0.9336499999999999  1.0000
  H   H3        1.0  0.02215  0.57942  0.9955899999999999  1.0000
  H   H4        1.0  0.27193  0.6061199999999999  0.88743  1.0000
  H   H5        1.0  0.39241  0.51204  0.8265099999999999  1.0000
  H   H6        1.0  0.82688  0.6304399999999999  0.07026  1.0000
  H   H7        1.0  0.11277  0.7419  0.03898  1.0000
  H   H8        1.0  0.49121  0.13859  0.72981  1.0000
  H   H9        1.0  0.13412  0.011929999999999998  0.56751  1.0000
  H   H10       1.0  0.016740000000000005  0.9209299999999998  0.50424  1.0000
  H   H11       1.0  0.26921999999999996  0.89028  0.60944  1.0000
  H   H12       1.0  0.37967  0.9843  0.6717499999999998  1.0000
  H   H13       1.0  0.81882  0.87081  0.42673  1.0000
  H   H14       1.0  0.10837  0.7587399999999999  0.45691999999999994  1.0000
  H   H15       1.0  0.9962100000000002  0.22895  0.8596  1.0000
  H   H16       1.0  0.6379  0.06794  0.98849  1.0000
  H   H17       1.0  0.52121  0.0038999999999999994  0.07832  1.0000
  H   H18       1.0  0.76839  0.10908  0.10905  1.0000
  H   H19       1.0  0.8766200000000001  0.17196999999999998  0.01593  1.0000
  H   H20       1.0  0.32935  0.9263599999999999  0.13013  1.0000
  H   H21       1.0  0.6193  0.9583299999999999  0.24165  1.0000
  H   H22       1.0  0.98156  0.27211  0.6417499999999999  1.0000
  H   H23       1.0  0.6372700000000001  0.4336799999999999  0.51194  1.0000
  H   H24       1.0  0.50905  0.4961599999999999  0.42120999999999986  1.0000
  H   H25       1.0  0.76034  0.3894299999999999  0.39283  1.0000
  H   H26       1.0  0.88424  0.32781  0.4867699999999999  1.0000
  H   H27       1.0  0.31448  0.5714  0.37141  1.0000
  H   H28       1.0  0.59857  0.54306  0.25903  1.0000
  H   H29       1.0  0.51712  0.64179  0.22831999999999994  1.0000
  H   H30       1.0  0.85095  0.51155  0.06635  1.0000
  H   H31       1.0  0.9778700000000001  0.42057  0.004409999999999999  1.0000
  H   H32       1.0  0.72809  0.39388  0.11258  1.0000
  H   H33       1.0  0.6076  0.4879599999999999  0.1735  1.0000
  H   H34       1.0  0.17314  0.36956  0.92974  1.0000
  H   H35       1.0  0.88724  0.25809  0.96102  1.0000
  H   H36       1.0  0.5088  0.8613999999999999  0.27019  1.0000
  H   H37       1.0  0.86589  0.98807  0.43249  1.0000
  H   H38       1.0  0.9832899999999999  0.07906  0.49576  1.0000
  H   H39       1.0  0.73079  0.10971999999999998  0.3905599999999999  1.0000
  H   H40       1.0  0.62034  0.015699999999999995  0.32825  1.0000
  H   H41       1.0  0.1812  0.12918999999999997  0.57328  1.0000
  H   H42       1.0  0.89165  0.24125  0.54309  1.0000
  H   H43       1.0  0.0038100000000000013  0.7710399999999998  0.14040999999999998  1.0000
  H   H44       1.0  0.36212  0.93206  0.01152  1.0000
  H   H45       1.0  0.47882  0.9960999999999999  0.9216799999999999  1.0000
  H   H46       1.0  0.23163000000000003  0.89092  0.8909499999999999  1.0000
  H   H47       1.0  0.12340000000000001  0.82802  0.98407  1.0000
  H   H48       1.0  0.67066  0.07363  0.8698699999999999  1.0000
  H   H49       1.0  0.38071  0.04167  0.75835  1.0000
  H   H50       1.0  0.01845  0.72789  0.3582499999999999  1.0000
  H   H51       1.0  0.36275  0.56631  0.48805999999999994  1.0000
  H   H52       1.0  0.49097  0.5038399999999998  0.57879  1.0000
  H   H53       1.0  0.23968  0.61056  0.6071699999999999  1.0000
  H   H54       1.0  0.11579  0.6721799999999998  0.51323  1.0000
  H   H55       1.0  0.68554  0.4285999999999999  0.6285899999999998  1.0000
  H   H56       1.0  0.40145  0.4569399999999999  0.7409699999999999  1.0000
  C   C1        1.0  0.83277  0.43566999999999995  0.84068  1.0000
  C   C2        1.0  0.77987  0.4945999999999999  0.87454  1.0000
  C   C3        1.0  0.9598699999999999  0.51426  0.92235  1.0000
  C   C4        1.0  0.8804100000000001  0.5636499999999999  0.9596699999999998  1.0000
  C   C5        1.0  0.62775  0.59436  0.94931  1.0000
  C   C6        1.0  0.45605000000000007  0.5787199999999999  0.8986199999999998  1.0000
  C   C7        1.0  0.53513  0.5284  0.8623  1.0000
  C   C8        1.0  0.6562  0.65512  0.04766  1.0000
  C   C9        1.0  0.28046  0.7083999999999999  0.032209999999999996  1.0000
  C   C10       1.0  0.79835  0.062169999999999996  0.66212  1.0000
  C   C11       1.0  0.76153  0.00457  0.6247599999999999  1.0000
  C   C12       1.0  0.94463  0.98618  0.57745  1.0000
  C   C13       1.0  0.87161  0.9366699999999998  0.53934  1.0000
  C   C14       1.0  0.62186  0.9049499999999998  0.54828  1.0000
  C   C15       1.0  0.44897999999999993  0.9188799999999999  0.5988299999999999  1.0000
  C   C16       1.0  0.5222899999999999  0.9690799999999998  0.6357699999999998  1.0000
  C   C17       1.0  0.64807  0.84607  0.44853999999999994  1.0000
  C   C18       1.0  0.27653  0.79204  0.4634799999999999  1.0000
  C   C19       1.0  0.30162  0.16199999999999998  0.93758  1.0000
  C   C20       1.0  0.26358  0.12541  0.9956099999999998  1.0000
  C   C21       1.0  0.4476399999999999  0.07781999999999997  0.013969999999999998  1.0000
  C   C22       1.0  0.37491  0.039279999999999995  0.06291  1.0000
  C   C23       1.0  0.12487000000000001  0.04818  0.09442999999999999  1.0000
  C   C24       1.0  0.94964  0.09880999999999997  0.08064  1.0000
  C   C25       1.0  0.02249  0.13611  0.030769999999999995  1.0000
  C   C26       1.0  0.15706  0.9487699999999999  0.15406  1.0000
  C   C27       1.0  0.78484  0.9644199999999999  0.20784  1.0000
  C   C28       1.0  0.31294  0.33909999999999996  0.5636399999999999  1.0000
  C   C29       1.0  0.26798  0.37525  0.5053699999999999  1.0000
  C   C30       1.0  0.4476399999999999  0.42280999999999996  0.48620999999999986  1.0000
  C   C31       1.0  0.36748  0.46046999999999993  0.43682  1.0000
  C   C32       1.0  0.11480000000000001  0.45085  0.4057899999999999  1.0000
  C   C33       1.0  0.94431  0.40021  0.42052999999999996  1.0000
  C   C34       1.0  0.024849999999999994  0.36366  0.47071999999999997  1.0000
  C   C35       1.0  0.14181  0.5498799999999999  0.34655  1.0000
  C   C36       1.0  0.76772  0.53575  0.29231999999999997  1.0000
  C   C37       1.0  0.16725  0.56433  0.15931999999999996  1.0000
  C   C38       1.0  0.22014  0.5053999999999998  0.12546  1.0000
  C   C39       1.0  0.04014000000000001  0.48574  0.07765  1.0000
  C   C40       1.0  0.11961  0.43634  0.04032999999999999  1.0000
  C   C41       1.0  0.37226  0.4056299999999999  0.05068999999999999  1.0000
  C   C42       1.0  0.54396  0.42127  0.10137999999999998  1.0000
  C   C43       1.0  0.46489  0.47159999999999996  0.1377  1.0000
  C   C44       1.0  0.34382  0.34488  0.95234  1.0000
  C   C45       1.0  0.7195599999999999  0.2916  0.96779  1.0000
  C   C46       1.0  0.20166999999999996  0.9378299999999999  0.33788999999999997  1.0000
  C   C47       1.0  0.23849000000000004  0.99543  0.37524  1.0000
  C   C48       1.0  0.05537999999999999  0.01382  0.42254999999999987  1.0000
  C   C49       1.0  0.12841  0.06333  0.46066  1.0000
  C   C50       1.0  0.37816  0.09504  0.4517199999999999  1.0000
  C   C51       1.0  0.55104  0.08112  0.40117  1.0000
  C   C52       1.0  0.47772  0.030919999999999996  0.36423  1.0000
  C   C53       1.0  0.35195  0.15392999999999998  0.5514699999999999  1.0000
  C   C54       1.0  0.72349  0.20795999999999995  0.53652  1.0000
  C   C55       1.0  0.6984  0.83799  0.062419999999999996  1.0000
  C   C56       1.0  0.73644  0.87458  0.0044  1.0000
  C   C57       1.0  0.55238  0.9221699999999998  0.9860399999999999  1.0000
  C   C58       1.0  0.62511  0.96072  0.9370899999999998  1.0000
  C   C59       1.0  0.8751499999999999  0.9518199999999998  0.9055699999999998  1.0000
  C   C60       1.0  0.05038000000000001  0.9011799999999998  0.9193599999999998  1.0000
  C   C61       1.0  0.97753  0.86388  0.9692299999999999  1.0000
  C   C62       1.0  0.84296  0.05123  0.84594  1.0000
  C   C63       1.0  0.21517999999999998  0.035579999999999994  0.79216  1.0000
  C   C64       1.0  0.68706  0.66089  0.43635999999999997  1.0000
  C   C65       1.0  0.73205  0.6247499999999999  0.49463  1.0000
  C   C66       1.0  0.55239  0.5771799999999999  0.5138  1.0000
  C   C67       1.0  0.63254  0.53953  0.5631799999999999  1.0000
  C   C68       1.0  0.88522  0.5491499999999999  0.59421  1.0000
  C   C69       1.0  0.05571  0.59979  0.5794699999999999  1.0000
  C   C70       1.0  0.9751699999999999  0.6363399999999999  0.52928  1.0000
  C   C71       1.0  0.8582100000000001  0.45011999999999996  0.65346  1.0000
  C   C72       1.0  0.23228999999999997  0.46424  0.7076799999999999  1.0000
  N   N1        1.0  0.54233  0.6410399999999999  0.99125  1.0000
  N   N2        1.0  0.30235  0.67462  0.9810899999999999  1.0000
  N   N3        1.0  0.49178000000000005  0.6978199999999998  0.07418999999999999  1.0000
  N   N4        1.0  0.53913  0.8586599999999999  0.50553  1.0000
  N   N5        1.0  0.302  0.82468  0.51529  1.0000
  N   N6        1.0  0.4837  0.8037899999999998  0.42147  1.0000
  N   N7        1.0  0.04471  0.00553  0.14074  1.0000
  N   N8        1.0  0.8073  0.01566  0.17457999999999999  1.0000
  N   N9        1.0  0.9934899999999999  0.9223099999999997  0.19656999999999997  1.0000
  N   N10       1.0  0.02927  0.4933699999999999  0.35938  1.0000
  N   N11       1.0  0.79012  0.48408  0.3253199999999999  1.0000
  N   N12       1.0  0.97779  0.57723  0.30404  1.0000
  N   N13       1.0  0.45769  0.35895  0.008749999999999999  1.0000
  N   N14       1.0  0.69766  0.32537999999999995  0.018909999999999996  1.0000
  N   N15       1.0  0.50824  0.30217999999999995  0.9258099999999999  1.0000
  N   N16       1.0  0.4609  0.14133  0.49448  1.0000
  N   N17       1.0  0.69802  0.17530999999999994  0.48470999999999986  1.0000
  N   N18       1.0  0.51632  0.19619999999999999  0.5785299999999999  1.0000
  N   N19       1.0  0.95531  0.9944699999999999  0.8592599999999998  1.0000
  N   N20       1.0  0.19272  0.98434  0.82542  1.0000
  N   N21       1.0  0.006529999999999997  0.07769  0.8034299999999999  1.0000
  N   N22       1.0  0.97075  0.50663  0.64062  1.0000
  N   N23       1.0  0.20990000000000003  0.51592  0.67468  1.0000
  N   N24       1.0  0.022229999999999996  0.4227699999999999  0.6959599999999999  1.0000
  O   O1        1.0  0.04625  0.40279  0.8534999999999998  1.0000
  O   O2        1.0  0.65191  0.42129  0.79879  1.0000
  O   O3        1.0  0.42582  0.31654  0.75851  1.0000
  O   O4        1.0  0.01007  0.09730999999999998  0.65306  1.0000
  O   O5        1.0  0.60641  0.07318999999999999  0.70106  1.0000
  O   O6        1.0  0.43556  0.18090999999999993  0.7434899999999998  1.0000
  O   O7        1.0  0.51552  0.15303  0.90325  1.0000
  O   O8        1.0  0.10636000000000001  0.20058999999999996  0.9256499999999999  1.0000
  O   O9        1.0  0.9378099999999999  0.24286  0.8174399999999999  1.0000
  O   O10       1.0  0.52614  0.34961999999999993  0.5982299999999999  1.0000
  O   O11       1.0  0.12520999999999996  0.29931  0.57561  1.0000
  O   O12       1.0  0.9282100000000001  0.2571  0.6833  1.0000
  O   O13       1.0  0.9537799999999999  0.5972  0.14649999999999996  1.0000
  O   O14       1.0  0.34811  0.5787  0.20121  1.0000
  O   O15       1.0  0.57419  0.6834599999999998  0.24148999999999995  1.0000
  O   O16       1.0  0.9899599999999998  0.9026799999999999  0.34694  1.0000
  O   O17       1.0  0.39362  0.9268099999999999  0.29895  1.0000
  O   O18       1.0  0.56447  0.81908  0.25650999999999996  1.0000
  O   O19       1.0  0.48450000000000004  0.8469699999999998  0.09676  1.0000
  O   O20       1.0  0.8936500000000002  0.7994  0.07435  1.0000
  O   O21       1.0  0.06220000000000001  0.7571299999999999  0.18256  1.0000
  O   O22       1.0  0.47386  0.65038  0.40176999999999996  1.0000
  O   O23       1.0  0.8747900000000001  0.7006799999999999  0.42437999999999987  1.0000
  O   O24       1.0  0.07181  0.7429  0.3166999999999999  1.0000
