data_image0
_chemical_formula_structural       Cu8H88C72N24O24
_chemical_formula_sum              "Cu8 H88 C72 N24 O24"
_cell_length_a       9.75052
_cell_length_b       10.58744
_cell_length_c       27.14785
_cell_angle_alpha    90.00759
_cell_angle_beta     90.0
_cell_angle_gamma    90.0

_space_group_name_H-M_alt    "P 1"
_space_group_IT_number       1

loop_
  _space_group_symop_operation_xyz
  'x, y, z'

loop_
  _atom_site_type_symbol
  _atom_site_label
  _atom_site_symmetry_multiplicity
  _atom_site_fract_x
  _atom_site_fract_y
  _atom_site_fract_z
  _atom_site_occupancy
  Cu  Cu1       1.0  0.81541  0.10806  0.83437  1.0000
  Cu  Cu2       1.0  0.68437  0.8821400000000003  0.6666  1.0000
  Cu  Cu3       1.0  0.81541  0.8919400000000001  0.16563000000000005  1.0000
  Cu  Cu4       1.0  0.68437  0.11786000000000003  0.33340000000000003  1.0000
  Cu  Cu5       1.0  0.18412  0.39085  0.33423000000000014  1.0000
  Cu  Cu6       1.0  0.3149  0.61628  0.16670000000000001  1.0000
  Cu  Cu7       1.0  0.18412  0.60915  0.6657700000000001  1.0000
  Cu  Cu8       1.0  0.3149  0.38371  0.8333  1.0000
  H   H1        1.0  0.03137  0.19273000000000007  0.73757  1.0000
  H   H2        1.0  0.40761  0.9326800000000001  0.7576600000000001  1.0000
  H   H3        1.0  0.9219200000000001  0.77465  0.6089100000000002  1.0000
  H   H4        1.0  0.96355  0.977  0.9042900000000003  1.0000
  H   H5        1.0  0.96078  0.94612  0.9686800000000002  1.0000
  H   H6        1.0  0.8687800000000001  0.8469000000000001  0.92817  1.0000
  H   H7        1.0  0.5398700000000001  0.03456  0.6017300000000001  1.0000
  H   H8        1.0  0.62023  0.15353000000000003  0.5654000000000001  1.0000
  H   H9        1.0  0.5179  0.03657  0.53683  1.0000
  H   H10       1.0  0.07266000000000002  0.74039  0.52949  1.0000
  H   H11       1.0  0.0272  0.8274900000000001  0.47554000000000013  1.0000
  H   H12       1.0  0.12749  0.8985300000000002  0.52247  1.0000
  H   H13       1.0  0.57583  0.22777000000000003  0.8904600000000001  1.0000
  H   H14       1.0  0.5231200000000001  0.7730100000000002  0.81137  1.0000
  H   H15       1.0  0.37199  0.7105100000000001  0.7833100000000002  1.0000
  H   H16       1.0  0.53706  0.66827  0.7599900000000003  1.0000
  H   H17       1.0  0.4367400000000001  0.13518  0.01952  1.0000
  H   H18       1.0  0.43399000000000004  0.26793  0.9790600000000002  1.0000
  H   H19       1.0  0.35575000000000007  0.12498000000000001  0.96088  1.0000
  H   H20       1.0  0.09421000000000002  0.9755400000000002  0.7070800000000003  1.0000
  H   H21       1.0  0.23506000000000002  0.05617  0.7348900000000002  1.0000
  H   H22       1.0  0.14838000000000004  0.9335000000000001  0.76717  1.0000
  H   H23       1.0  0.03137  0.80727  0.26243  1.0000
  H   H24       1.0  0.40761  0.06732000000000002  0.24234000000000006  1.0000
  H   H25       1.0  0.9219200000000001  0.22535000000000002  0.39109  1.0000
  H   H26       1.0  0.96355  0.023000000000000003  0.09571000000000002  1.0000
  H   H27       1.0  0.96078  0.053870000000000015  0.03132  1.0000
  H   H28       1.0  0.8687800000000001  0.15309000000000003  0.07183000000000002  1.0000
  H   H29       1.0  0.5398700000000001  0.96544  0.3982700000000001  1.0000
  H   H30       1.0  0.62023  0.84647  0.4346  1.0000
  H   H31       1.0  0.5179  0.96342  0.46317000000000014  1.0000
  H   H32       1.0  0.07266000000000002  0.25961  0.47051  1.0000
  H   H33       1.0  0.0272  0.1725  0.52446  1.0000
  H   H34       1.0  0.12749  0.10146  0.4775300000000001  1.0000
  H   H35       1.0  0.57583  0.77223  0.10954  1.0000
  H   H36       1.0  0.5231200000000001  0.22698000000000002  0.18863000000000002  1.0000
  H   H37       1.0  0.37199  0.28949  0.21669  1.0000
  H   H38       1.0  0.53706  0.33172  0.24001  1.0000
  H   H39       1.0  0.4367400000000001  0.8648100000000001  0.9804800000000002  1.0000
  H   H40       1.0  0.43399000000000004  0.73207  0.02094  1.0000
  H   H41       1.0  0.35575000000000007  0.87502  0.03912  1.0000
  H   H42       1.0  0.09421000000000002  0.02446  0.29292  1.0000
  H   H43       1.0  0.23506000000000002  0.9438300000000001  0.26511  1.0000
  H   H44       1.0  0.14838000000000004  0.0665  0.23283  1.0000
  H   H45       1.0  0.9679  0.30634  0.23732000000000003  1.0000
  H   H46       1.0  0.59162  0.56725  0.25721  1.0000
  H   H47       1.0  0.0796  0.72572  0.10865  1.0000
  H   H48       1.0  0.03601000000000001  0.52397  0.40423  1.0000
  H   H49       1.0  0.03869  0.55491  0.46864000000000006  1.0000
  H   H50       1.0  0.13175  0.65339  0.4281200000000001  1.0000
  H   H51       1.0  0.46183  0.46564000000000005  0.10172000000000003  1.0000
  H   H52       1.0  0.38231000000000004  0.34647  0.06517  1.0000
  H   H53       1.0  0.48385000000000006  0.4643400000000001  0.03684  1.0000
  H   H54       1.0  0.9290400000000001  0.75946  0.02951000000000001  1.0000
  H   H55       1.0  0.97379  0.67203  0.97551  1.0000
  H   H56       1.0  0.8740800000000001  0.60125  0.022710000000000008  1.0000
  H   H57       1.0  0.42318  0.27287000000000006  0.39017000000000013  1.0000
  H   H58       1.0  0.47619  0.72607  0.31137  1.0000
  H   H59       1.0  0.62764  0.7884700000000001  0.28309  1.0000
  H   H60       1.0  0.4624  0.83211  0.2604  1.0000
  H   H61       1.0  0.56149  0.3638600000000001  0.5196  1.0000
  H   H62       1.0  0.56532  0.23142  0.47896  1.0000
  H   H63       1.0  0.64314  0.37469  0.46105  1.0000
  H   H64       1.0  0.9046400000000001  0.52399  0.20715  1.0000
  H   H65       1.0  0.7638100000000001  0.44321000000000005  0.23513  1.0000
  H   H66       1.0  0.8511100000000001  0.56561  0.26747000000000004  1.0000
  H   H67       1.0  0.9679  0.69366  0.76268  1.0000
  H   H68       1.0  0.59162  0.43275  0.74279  1.0000
  H   H69       1.0  0.0796  0.27427  0.8913500000000002  1.0000
  H   H70       1.0  0.03601000000000001  0.47602  0.59577  1.0000
  H   H71       1.0  0.03869  0.44509  0.53136  1.0000
  H   H72       1.0  0.13175  0.3466  0.57188  1.0000
  H   H73       1.0  0.46183  0.53435  0.8982800000000001  1.0000
  H   H74       1.0  0.38231000000000004  0.65352  0.93483  1.0000
  H   H75       1.0  0.48385000000000006  0.53565  0.96316  1.0000
  H   H76       1.0  0.9290400000000001  0.24054000000000003  0.97049  1.0000
  H   H77       1.0  0.97379  0.32796  0.02449000000000001  1.0000
  H   H78       1.0  0.8740800000000001  0.39874  0.9772900000000001  1.0000
  H   H79       1.0  0.42318  0.72712  0.60983  1.0000
  H   H80       1.0  0.47619  0.27392  0.6886300000000002  1.0000
  H   H81       1.0  0.62764  0.21152  0.71691  1.0000
  H   H82       1.0  0.4624  0.16789000000000004  0.7396000000000003  1.0000
  H   H83       1.0  0.56149  0.63614  0.4804000000000001  1.0000
  H   H84       1.0  0.56532  0.7685800000000002  0.52104  1.0000
  H   H85       1.0  0.64314  0.62531  0.5389500000000002  1.0000
  H   H86       1.0  0.9046400000000001  0.47600000000000003  0.7928500000000002  1.0000
  H   H87       1.0  0.7638100000000001  0.55678  0.7648700000000003  1.0000
  H   H88       1.0  0.8511100000000001  0.43438  0.73253  1.0000
  C   C1        1.0  0.8208300000000001  0.00941  0.74042  1.0000
  C   C2        1.0  0.68371  0.9708200000000001  0.7625600000000001  1.0000
  C   C3        1.0  0.81401  0.9651800000000001  0.5232800000000001  1.0000
  C   C4        1.0  0.91321  0.87848  0.53959  1.0000
  C   C5        1.0  0.40905  0.81984  0.6917100000000002  1.0000
  C   C6        1.0  0.0376  0.11208  0.76334  1.0000
  C   C7        1.0  0.09290000000000001  0.16625  0.8119900000000002  1.0000
  C   C8        1.0  0.71602  0.97168  0.56178  1.0000
  C   C9        1.0  0.47246000000000005  0.8589700000000001  0.7411600000000002  1.0000
  C   C10       1.0  0.89878  0.9454600000000001  0.93498  1.0000
  C   C11       1.0  0.59193  0.05316  0.56665  1.0000
  C   C12       1.0  0.04169  0.83339  0.51558  1.0000
  C   C13       1.0  0.67388  0.03434  0.9766100000000001  1.0000
  C   C14       1.0  0.47634  0.74476  0.7763200000000002  1.0000
  C   C15       1.0  0.77527  0.027990000000000004  0.9392000000000001  1.0000
  C   C16       1.0  0.57604  0.12091000000000002  0.95916  1.0000
  C   C17       1.0  0.44387  0.16476  0.98088  1.0000
  C   C18       1.0  0.13477  0.01296  0.7417200000000003  1.0000
  C   C19       1.0  0.8208300000000001  0.9905900000000001  0.25958  1.0000
  C   C20       1.0  0.68371  0.02917000000000001  0.23744  1.0000
  C   C21       1.0  0.81401  0.03482  0.47672000000000003  1.0000
  C   C22       1.0  0.91321  0.12152  0.46041  1.0000
  C   C23       1.0  0.40905  0.18016  0.3082900000000001  1.0000
  C   C24       1.0  0.0376  0.88791  0.23666  1.0000
  C   C25       1.0  0.09290000000000001  0.8337400000000001  0.18801  1.0000
  C   C26       1.0  0.71602  0.028320000000000005  0.4382200000000001  1.0000
  C   C27       1.0  0.47246000000000005  0.14103  0.25884  1.0000
  C   C28       1.0  0.89878  0.054540000000000005  0.06502  1.0000
  C   C29       1.0  0.59193  0.94684  0.4333500000000001  1.0000
  C   C30       1.0  0.04169  0.16661  0.48442000000000013  1.0000
  C   C31       1.0  0.67388  0.9656600000000001  0.023390000000000008  1.0000
  C   C32       1.0  0.47634  0.25524  0.22368  1.0000
  C   C33       1.0  0.77527  0.9720100000000002  0.060800000000000014  1.0000
  C   C34       1.0  0.57604  0.8790900000000001  0.04084000000000001  1.0000
  C   C35       1.0  0.44387  0.8352400000000001  0.019120000000000005  1.0000
  C   C36       1.0  0.13477  0.98704  0.25828  1.0000
  C   C37       1.0  0.17791  0.48995  0.24037000000000006  1.0000
  C   C38       1.0  0.31441  0.52907  0.26268  1.0000
  C   C39       1.0  0.18764  0.53475  0.02329  1.0000
  C   C40       1.0  0.08829  0.6213300000000002  0.03955  1.0000
  C   C41       1.0  0.58877  0.67916  0.19146000000000002  1.0000
  C   C42       1.0  0.9615400000000001  0.38703  0.26311  1.0000
  C   C43       1.0  0.9069100000000001  0.3326100000000001  0.31174  1.0000
  C   C44       1.0  0.28536  0.528  0.06185  1.0000
  C   C45       1.0  0.5259  0.6409  0.24106000000000002  1.0000
  C   C46       1.0  0.10083000000000002  0.55511  0.4349700000000001  1.0000
  C   C47       1.0  0.4098800000000001  0.44699000000000005  0.06662  1.0000
  C   C48       1.0  0.9597600000000001  0.66638  0.01558  1.0000
  C   C49       1.0  0.3252  0.46551  0.47664000000000006  1.0000
  C   C50       1.0  0.52287  0.7548900000000001  0.27635000000000004  1.0000
  C   C51       1.0  0.22385  0.47205000000000014  0.43923000000000006  1.0000
  C   C52       1.0  0.4228100000000001  0.37864000000000003  0.4592  1.0000
  C   C53       1.0  0.5549400000000001  0.33456  0.48091000000000006  1.0000
  C   C54       1.0  0.8642100000000001  0.48645000000000005  0.24178  1.0000
  C   C55       1.0  0.17791  0.51004  0.7596300000000002  1.0000
  C   C56       1.0  0.31441  0.47093000000000007  0.7373200000000002  1.0000
  C   C57       1.0  0.18764  0.4652500000000001  0.97671  1.0000
  C   C58       1.0  0.08829  0.37866000000000005  0.9604500000000002  1.0000
  C   C59       1.0  0.58877  0.32084000000000007  0.8085400000000003  1.0000
  C   C60       1.0  0.9615400000000001  0.61296  0.73689  1.0000
  C   C61       1.0  0.9069100000000001  0.66738  0.6882600000000002  1.0000
  C   C62       1.0  0.28536  0.4719900000000001  0.9381500000000002  1.0000
  C   C63       1.0  0.5259  0.3591  0.7589400000000002  1.0000
  C   C64       1.0  0.10083000000000002  0.44488000000000005  0.56503  1.0000
  C   C65       1.0  0.4098800000000001  0.553  0.93338  1.0000
  C   C66       1.0  0.9597600000000001  0.3336200000000001  0.9844200000000001  1.0000
  C   C67       1.0  0.3252  0.53448  0.52336  1.0000
  C   C68       1.0  0.52287  0.24511000000000002  0.72365  1.0000
  C   C69       1.0  0.22385  0.52794  0.56077  1.0000
  C   C70       1.0  0.4228100000000001  0.6213500000000001  0.5408  1.0000
  C   C71       1.0  0.5549400000000001  0.66544  0.51909  1.0000
  C   C72       1.0  0.8642100000000001  0.51354  0.7582200000000002  1.0000
  N   N1        1.0  0.75306  0.89275  0.59836  1.0000
  N   N2        1.0  0.74185  0.10739  0.9023500000000002  1.0000
  N   N3        1.0  0.60766  0.9086500000000001  0.7309400000000003  1.0000
  N   N4        1.0  0.90094  0.06407  0.77294  1.0000
  N   N5        1.0  0.8725900000000001  0.83753  0.58452  1.0000
  N   N6        1.0  0.62107  0.16234  0.91481  1.0000
  N   N7        1.0  0.75306  0.10725  0.4016400000000001  1.0000
  N   N8        1.0  0.74185  0.89261  0.09765000000000003  1.0000
  N   N9        1.0  0.60766  0.09134  0.26906  1.0000
  N   N10       1.0  0.90094  0.9359200000000002  0.22706000000000007  1.0000
  N   N11       1.0  0.8725900000000001  0.16246  0.4154800000000001  1.0000
  N   N12       1.0  0.62107  0.8376500000000001  0.08519  1.0000
  N   N13       1.0  0.2478  0.60659  0.09848000000000003  1.0000
  N   N14       1.0  0.2571  0.39266  0.4023600000000001  1.0000
  N   N15       1.0  0.39063  0.59128  0.23117  1.0000
  N   N16       1.0  0.09812000000000001  0.43476000000000004  0.27278  1.0000
  N   N17       1.0  0.12845  0.66189  0.08457  1.0000
  N   N18       1.0  0.37759  0.33738  0.41487000000000007  1.0000
  N   N19       1.0  0.2478  0.39341  0.90152  1.0000
  N   N20       1.0  0.2571  0.60734  0.59764  1.0000
  N   N21       1.0  0.39063  0.40872  0.7688300000000002  1.0000
  N   N22       1.0  0.09812000000000001  0.5652400000000001  0.7272200000000001  1.0000
  N   N23       1.0  0.12845  0.33811  0.91543  1.0000
  N   N24       1.0  0.37759  0.6626100000000001  0.58513  1.0000
  O   O1        1.0  0.84559  0.98704  0.69479  1.0000
  O   O2        1.0  0.65462  0.00028  0.80725  1.0000
  O   O3        1.0  0.00713  0.17601  0.84897  1.0000
  O   O4        1.0  0.48943  0.8201000000000003  0.65301  1.0000
  O   O5        1.0  0.2861  0.78755  0.6901500000000002  1.0000
  O   O6        1.0  0.21563  0.19845000000000002  0.8147700000000002  1.0000
  O   O7        1.0  0.84559  0.01296  0.30521000000000004  1.0000
  O   O8        1.0  0.65462  0.99972  0.19275  1.0000
  O   O9        1.0  0.00713  0.8239800000000002  0.15103  1.0000
  O   O10       1.0  0.48943  0.1799  0.3469900000000001  1.0000
  O   O11       1.0  0.2861  0.21244  0.3098500000000001  1.0000
  O   O12       1.0  0.21563  0.8015500000000001  0.18523  1.0000
  O   O13       1.0  0.15325  0.51259  0.19474000000000005  1.0000
  O   O14       1.0  0.34248000000000006  0.49993000000000004  0.30746  1.0000
  O   O15       1.0  0.9937100000000001  0.3197900000000001  0.34817  1.0000
  O   O16       1.0  0.50941  0.67566  0.15253000000000005  1.0000
  O   O17       1.0  0.7111200000000001  0.71315  0.19007000000000002  1.0000
  O   O18       1.0  0.78376  0.30208  0.31492  1.0000
  O   O19       1.0  0.15325  0.48741000000000007  0.80526  1.0000
  O   O20       1.0  0.34248000000000006  0.50007  0.69254  1.0000
  O   O21       1.0  0.9937100000000001  0.68021  0.65183  1.0000
  O   O22       1.0  0.50941  0.3243400000000001  0.8474700000000001  1.0000
  O   O23       1.0  0.7111200000000001  0.28685  0.8099300000000003  1.0000
  O   O24       1.0  0.78376  0.69792  0.68508  1.0000
