data_image0
_chemical_formula_structural       Zn6H60C100N8O28
_chemical_formula_sum              "Zn6 H60 C100 N8 O28"
_cell_length_a       8.4915
_cell_length_b       18.87348
_cell_length_c       18.10166
_cell_angle_alpha    113.13583
_cell_angle_beta     90.15512
_cell_angle_gamma    102.92951

_symmetry_space_group_name_H-M    'P 1'
_symmetry_Int_Tables_number       1

loop_
  _symmetry_equiv_pos_as_xyz
  'x,y,z'

loop_
  _atom_site_type_symbol
  _atom_site_label
  _atom_site_symmetry_multiplicity
  _atom_site_fract_x
  _atom_site_fract_y
  _atom_site_fract_z
  _atom_site_occupancy
  Zn  Zn1       1.0  0.51598  0.58824  0.24671000000000004  1.0000
  Zn  Zn2       1.0  0.25516  0.00011999999999999889  0.74917  1.0000
  Zn  Zn3       1.0  0.48400999999999994  0.41175  0.75329  1.0000
  Zn  Zn4       1.0  0.74483  0.99987  0.25083  1.0000
  Zn  Zn5       1.0  0.07451  0.58932  0.74831  1.0000
  Zn  Zn6       1.0  0.92548  0.41068  0.25168  1.0000
  H   H1        1.0  0.4232499999999999  0.78722  0.9947199999999999  1.0000
  H   H2        1.0  0.54355  0.14338  0.19218  1.0000
  H   H3        1.0  0.19665999999999997  0.22670000000000004  0.46558  1.0000
  H   H4        1.0  0.055799999999999995  0.011660000000000012  0.34256  1.0000
  H   H5        1.0  0.39774  0.18236  0.36751  1.0000
  H   H6        1.0  0.5982099999999998  0.14358000000000007  0.6920300000000001  1.0000
  H   H7        1.0  0.43394  0.23817000000000002  0.69798  1.0000
  H   H8        1.0  0.61134  0.43266999999999994  0.31271  1.0000
  H   H9        1.0  0.008900000000000014  0.34617  0.80336  1.0000
  H   H10       1.0  0.57675  0.21277  0.00528  1.0000
  H   H11       1.0  0.95682  0.011349999999999992  0.84139  1.0000
  H   H12       1.0  0.74706  0.94401  0.43935  1.0000
  H   H13       1.0  0.38174  0.64143  0.91701  1.0000
  H   H14       1.0  0.043170000000000174  0.9886500000000004  0.15861  1.0000
  H   H15       1.0  0.73688  0.35702000000000006  0.58151  1.0000
  H   H16       1.0  0.9694  0.7743400000000001  0.03581  1.0000
  H   H17       1.0  0.3050999999999999  0.0742  0.1554  1.0000
  H   H18       1.0  0.36311  0.78917  0.49469  1.0000
  H   H19       1.0  0.4564399999999999  0.85661  0.80782  1.0000
  H   H20       1.0  0.23347999999999994  0.92599  0.34461  1.0000
  H   H21       1.0  0.7831799999999999  0.18305  0.86699  1.0000
  H   H22       1.0  0.60225  0.81763  0.63249  1.0000
  H   H23       1.0  0.80222  0.23761  0.19764  1.0000
  H   H24       1.0  0.8220299999999999  0.43267999999999995  0.8121  1.0000
  H   H25       1.0  0.85176  0.72614  0.67182  1.0000
  H   H26       1.0  0.28913999999999995  0.17824  0.82293  1.0000
  H   H27       1.0  0.26311  0.64297  0.41849  1.0000
  H   H28       1.0  0.25293  0.05598999999999999  0.56065  1.0000
  H   H29       1.0  0.38864999999999983  0.56732  0.68729  1.0000
  H   H30       1.0  0.21681999999999996  0.81695  0.13301  1.0000
  H   H31       1.0  0.1960800000000001  0.9454200000000001  0.9417  1.0000
  H   H32       1.0  0.40178  0.85641  0.30797  1.0000
  H   H33       1.0  0.63688  0.21082  0.50531  1.0000
  H   H34       1.0  0.8173  0.12114  0.49847  1.0000
  H   H35       1.0  0.76652  0.074  0.65538  1.0000
  H   H36       1.0  0.30826999999999993  0.12121000000000004  0.9966000000000002  1.0000
  H   H37       1.0  0.12446999999999998  0.27333  0.82807  1.0000
  H   H38       1.0  0.9441900000000001  0.9883300000000002  0.65744  1.0000
  H   H39       1.0  0.03060000000000004  0.22565000000000004  0.96419  1.0000
  H   H40       1.0  0.9910899999999999  0.65383  0.19664  1.0000
  H   H41       1.0  0.71085  0.8217500000000001  0.17706  1.0000
  H   H42       1.0  0.19778  0.7623800000000001  0.8023600000000001  1.0000
  H   H43       1.0  0.17795999999999998  0.56731  0.1879  1.0000
  H   H44       1.0  0.87552  0.72666  0.17193  1.0000
  H   H45       1.0  0.45227  0.012570000000000005  0.46057  1.0000
  H   H46       1.0  0.69172  0.87878  0.0034  1.0000
  H   H47       1.0  0.80392  0.054580000000000004  0.05829  1.0000
  H   H48       1.0  0.5660500000000002  0.7618200000000003  0.30202000000000007  1.0000
  H   H49       1.0  0.80333  0.7733  0.53442  1.0000
  H   H50       1.0  0.1826899999999999  0.87885  0.50152  1.0000
  H   H51       1.0  0.69489  0.9258  0.8446  1.0000
  H   H52       1.0  0.3374299999999999  0.34664999999999996  0.30395  1.0000
  H   H53       1.0  0.55898  0.012860000000000026  0.95909  1.0000
  H   H54       1.0  0.54773  0.9874300000000001  0.53943  1.0000
  H   H55       1.0  0.6625600000000001  0.6533500000000001  0.69605  1.0000
  H   H56       1.0  0.4410199999999999  0.98713  0.04091  1.0000
  H   H57       1.0  0.11028000000000002  0.82109  0.67602  1.0000
  H   H58       1.0  0.14823  0.27386  0.32817  1.0000
  H   H59       1.0  0.88972  0.1789  0.32398  1.0000
  H   H60       1.0  0.61826  0.35857  0.08299  1.0000
  C   C1        1.0  0.65594  0.20673  0.71686  1.0000
  C   C2        1.0  0.81603  0.31784  0.57744  1.0000
  C   C3        1.0  0.06854999999999996  0.85784  0.98369  1.0000
  C   C4        1.0  0.23997000000000004  0.7642400000000001  0.46505  1.0000
  C   C5        1.0  0.92377  0.70011  0.38686  1.0000
  C   C6        1.0  0.56134  0.25935  0.72201  1.0000
  C   C7        1.0  0.7492800000000001  0.8208700000000001  0.53625  1.0000
  C   C8        1.0  0.71576  0.91689  0.48217  1.0000
  C   C9        1.0  0.18396  0.68215  0.42255  1.0000
  C   C10       1.0  0.20312  0.21647  0.07038  1.0000
  C   C11       1.0  0.79104  0.15474  0.90824  1.0000
  C   C12       1.0  0.47757000000000005  0.23662  0.03478  1.0000
  C   C13       1.0  0.56218  0.90464  0.59167  1.0000
  C   C14       1.0  0.20895000000000005  0.8452500000000001  0.09176  1.0000
  C   C15       1.0  0.25072  0.17913  0.46374  1.0000
  C   C16       1.0  0.76128  0.66627  0.33809  1.0000
  C   C17       1.0  0.52242  0.76338  0.96521  1.0000
  C   C18       1.0  0.8804799999999998  0.10079999999999999  0.69392  1.0000
  C   C19       1.0  0.21876999999999996  0.10109000000000001  0.19433  1.0000
  C   C20       1.0  0.4373  0.92589  0.64864  1.0000
  C   C21       1.0  0.34406  0.79327  0.28314  1.0000
  C   C22       1.0  0.39510000000000006  0.43754000000000004  0.15924  1.0000
  C   C23       1.0  0.22047999999999998  0.63165  0.21351  1.0000
  C   C24       1.0  0.62664  0.65034  0.88443  1.0000
  C   C25       1.0  0.32797  0.18509  0.03031  1.0000
  C   C26       1.0  0.3433999999999999  0.9043900000000001  0.09279  1.0000
  C   C27       1.0  0.95889  0.56152  0.3419  1.0000
  C   C28       1.0  0.07247000000000003  0.81748  0.25726  1.0000
  C   C29       1.0  0.49909000000000003  0.68161  0.9220800000000001  1.0000
  C   C30       1.0  0.50924  0.07458000000000004  0.8509  1.0000
  C   C31       1.0  0.5626  0.68075  0.71735  1.0000
  C   C32       1.0  0.11950999999999999  0.8992  0.30608  1.0000
  C   C33       1.0  0.39603  0.059570000000000005  0.46269  1.0000
  C   C34       1.0  0.6630799999999997  0.05935999999999998  0.96115  1.0000
  C   C35       1.0  0.09162  0.33116  0.16036  1.0000
  C   C36       1.0  0.4374  0.31924  0.28265  1.0000
  C   C37       1.0  0.4386499999999998  0.74065  0.27799  1.0000
  C   C38       1.0  0.7865799999999997  0.85624  0.4814  1.0000
  C   C39       1.0  0.92753  0.18252  0.74274  1.0000
  C   C40       1.0  0.82123  0.23622000000000004  0.74691  1.0000
  C   C41       1.0  0.69637  0.25895  0.22172  1.0000
  C   C42       1.0  0.20062  0.91801  0.9842700000000001  1.0000
  C   C43       1.0  0.98608  0.15871000000000002  0.28796  1.0000
  C   C44       1.0  0.41395  0.23638000000000003  0.24708000000000002  1.0000
  C   C45       1.0  0.25392  0.18285  0.24306  1.0000
  C   C46       1.0  0.21340999999999993  0.14375000000000002  0.5186  1.0000
  C   C47       1.0  0.07065999999999997  0.05227000000000001  0.19559  1.0000
  C   C48       1.0  0.36274  0.15466  0.40932  1.0000
  C   C49       1.0  0.77793  0.70176  0.88767  1.0000
  C   C50       1.0  0.49074999999999996  0.92541  0.1491  1.0000
  C   C51       1.0  0.17208999999999997  0.15825999999999996  0.78711  1.0000
  C   C52       1.0  0.17876  0.76378  0.25309  1.0000
  C   C53       1.0  0.07622  0.29988  0.61314  1.0000
  C   C54       1.0  0.8687699999999999  0.78875  0.71047  1.0000
  C   C55       1.0  0.79937  0.08198  0.01573  1.0000
  C   C56       1.0  0.74607  0.81714  0.75694  1.0000
  C   C57       1.0  0.07903  0.2108  0.78912  1.0000
  C   C58       1.0  0.78122  0.8989  0.80567  1.0000
  C   C59       1.0  0.41151000000000004  0.6317100000000001  0.71345  1.0000
  C   C60       1.0  0.6048999999999998  0.5624600000000001  0.84076  1.0000
  C   C61       1.0  0.98389  0.7820700000000003  0.42794  1.0000
  C   C62       1.0  0.13996000000000008  0.8148100000000001  0.46846  1.0000
  C   C63       1.0  0.013909999999999988  0.84129  0.71204  1.0000
  C   C64       1.0  0.016099999999999993  0.21793  0.57206  1.0000
  C   C65       1.0  0.45076  0.79342  0.78307  1.0000
  C   C66       1.0  0.8279  0.84174  0.21289  1.0000
  C   C67       1.0  0.65659  0.09560000000000003  0.90721  1.0000
  C   C68       1.0  0.9746999999999999  0.35039  0.61548  1.0000
  C   C69       1.0  0.58848  0.36828  0.28655  1.0000
  C   C70       1.0  0.77951  0.36834000000000006  0.7864900000000001  1.0000
  C   C71       1.0  0.76002  0.23575  0.53495  1.0000
  C   C72       1.0  0.0411  0.43847  0.6581  1.0000
  C   C73       1.0  0.98025  0.05192  0.69462  1.0000
  C   C74       1.0  0.3733599999999999  0.34966  0.11557  1.0000
  C   C75       1.0  0.5860399999999998  0.76361  0.75292  1.0000
  C   C76       1.0  0.9285600000000002  0.17827000000000007  0.96214  1.0000
  C   C77       1.0  0.23871000000000003  0.33372  0.66191  1.0000
  C   C78       1.0  0.67203  0.8149  0.9696899999999999  1.0000
  C   C79       1.0  0.9083700000000001  0.6688300000000001  0.83964  1.0000
  C   C80       1.0  0.8812600000000002  0.31901000000000007  0.78237  1.0000
  C   C81       1.0  0.33691  0.94063  0.03885  1.0000
  C   C82       1.0  0.86004  0.18519  0.53154  1.0000
  C   C83       1.0  0.5492299999999999  0.20656999999999998  0.21693  1.0000
  C   C84       1.0  0.11873999999999998  0.68098  0.21763  1.0000
  C   C85       1.0  0.6372499999999999  0.8453299999999999  0.59068  1.0000
  C   C86       1.0  0.019739999999999973  0.94807  0.30538  1.0000
  C   C87       1.0  0.22205999999999992  0.29824  0.11233  1.0000
  C   C88       1.0  0.3036299999999999  0.74104  0.77828  1.0000
  C   C89       1.0  0.025289999999999972  0.6496  0.38452  1.0000
  C   C90       1.0  0.13123  0.21125  0.28953  1.0000
  C   C91       1.0  0.5626899999999999  0.07409999999999999  0.35136  1.0000
  C   C92       1.0  0.92096  0.78919  0.21088  1.0000
  C   C93       1.0  0.50091  0.31838  0.07792  1.0000
  C   C94       1.0  0.9293300000000001  0.9477200000000001  0.80441  1.0000
  C   C95       1.0  0.07143000000000001  0.82172  0.03786  1.0000
  C   C96       1.0  0.7968800000000001  0.7835300000000001  0.92962  1.0000
  C   C97       1.0  0.43780999999999987  0.09535000000000002  0.40833  1.0000
  C   C98       1.0  0.28423000000000004  0.08310000000000001  0.51783  1.0000
  C   C99       1.0  0.93145  0.14216  0.0163  1.0000
  C   C100      1.0  0.60397  0.94042  0.53731  1.0000
  N   N1        1.0  0.71624  0.33875  0.25609  1.0000
  N   N2        1.0  0.28376000000000007  0.6612500000000001  0.74391  1.0000
  N   N3        1.0  0.37832  0.66086  0.24346  1.0000
  N   N4        1.0  0.9557699999999999  0.07984  0.24253  1.0000
  N   N5        1.0  0.62167  0.33914  0.75654  1.0000
  N   N6        1.0  0.12342000000000003  0.07950000000000002  0.74128  1.0000
  N   N7        1.0  0.04422999999999998  0.92015  0.75747  1.0000
  N   N8        1.0  0.87658  0.9205  0.25872  1.0000
  O   O1        1.0  0.37029  0.34413  0.63012  1.0000
  O   O2        1.0  0.8894800000000002  0.6498300000000001  0.76313  1.0000
  O   O3        1.0  0.72123  0.5318500000000002  0.8404  1.0000
  O   O4        1.0  0.37788  0.028609999999999976  0.85905  1.0000
  O   O5        1.0  0.18423  0.46902  0.65201  1.0000
  O   O6        1.0  0.8157699999999998  0.53098  0.34799  1.0000
  O   O7        1.0  0.27875999999999995  0.46814  0.1596  1.0000
  O   O8        1.0  0.029609999999999984  0.65877  0.87203  1.0000
  O   O9        1.0  0.6297  0.65587  0.36988  1.0000
  O   O10       1.0  0.94361  0.47957  0.7005  1.0000
  O   O11       1.0  0.51483  0.10112999999999998  0.79665  1.0000
  O   O12       1.0  0.060419999999999995  0.16389  0.07383  1.0000
  O   O13       1.0  0.10985999999999997  0.16722  0.57733  1.0000
  O   O14       1.0  0.6221199999999999  0.9713900000000001  0.14095  1.0000
  O   O15       1.0  0.056379999999999944  0.52042  0.2995  1.0000
  O   O16       1.0  0.34970000000000007  0.9711600000000001  0.64031  1.0000
  O   O17       1.0  0.4609299999999999  0.5211400000000002  0.8042  1.0000
  O   O18       1.0  0.93957  0.83611  0.92617  1.0000
  O   O19       1.0  0.9703799999999999  0.34123  0.12797  1.0000
  O   O20       1.0  0.5805200000000001  0.10004  0.29668  1.0000
  O   O21       1.0  0.89013  0.8327800000000001  0.42267  1.0000
  O   O22       1.0  0.7619299999999998  0.64678  0.26162  1.0000
  O   O23       1.0  0.6502899999999999  0.028839999999999998  0.35969  1.0000
  O   O24       1.0  0.4851599999999999  0.89886  0.20335  1.0000
  O   O25       1.0  0.23806999999999998  0.35321  0.73838  1.0000
  O   O26       1.0  0.11050999999999997  0.35016  0.23687  1.0000
  O   O27       1.0  0.41947  0.89995  0.70332  1.0000
  O   O28       1.0  0.53907  0.47885  0.1958  1.0000
