data_image0
_chemical_formula_structural       Zn12H36C96N12O48
_chemical_formula_sum              "Zn12 H36 C96 N12 O48"
_cell_length_a       18.81799
_cell_length_b       18.83556
_cell_length_c       23.47602
_cell_angle_alpha    65.80925
_cell_angle_beta     65.79386
_cell_angle_gamma    59.52516

_symmetry_space_group_name_H-M    'P 1'
_symmetry_Int_Tables_number       1

loop_
  _symmetry_equiv_pos_as_xyz
  'x,y,z'

loop_
  _atom_site_type_symbol
  _atom_site_label
  _atom_site_symmetry_multiplicity
  _atom_site_fract_x
  _atom_site_fract_y
  _atom_site_fract_z
  _atom_site_occupancy
  Zn  Zn1       1.0  0.75643  0.2717099999999999  0.1944  1.0000
  Zn  Zn2       1.0  0.67395  0.3300399999999999  0.29709  1.0000
  Zn  Zn3       1.0  0.6753000000000001  0.7427399999999997  0.30252  1.0000
  Zn  Zn4       1.0  0.2283100000000001  0.7437599999999998  0.30573  1.0000
  Zn  Zn5       1.0  0.16981000000000018  0.8260499999999997  0.20289999999999997  1.0000
  Zn  Zn6       1.0  0.7571700000000001  0.82479  0.19747  1.0000
  Zn  Zn7       1.0  0.24357000000000004  0.72829  0.8056  1.0000
  Zn  Zn8       1.0  0.32604  0.66997  0.70291  1.0000
  Zn  Zn9       1.0  0.3247000000000001  0.2572699999999998  0.69747  1.0000
  Zn  Zn10      1.0  0.77169  0.25625  0.69427  1.0000
  Zn  Zn11      1.0  0.8301900000000001  0.17395000000000002  0.7970999999999999  1.0000
  Zn  Zn12      1.0  0.24282999999999996  0.17521000000000006  0.8025199999999999  1.0000
  H   H1        1.0  0.43117000000000005  0.5465999999999998  0.24206  1.0000
  H   H2        1.0  0.3440700000000001  0.6438199999999997  0.07031  1.0000
  H   H3        1.0  0.5796800000000001  0.42243999999999987  0.08678  1.0000
  H   H4        1.0  0.5650099999999999  0.14905000000000002  0.41258  1.0000
  H   H5        1.0  0.5658  0.9198299999999999  0.41270999999999997  1.0000
  H   H6        1.0  0.7001500000000002  0.053089999999999984  0.24268  1.0000
  H   H7        1.0  0.9066899999999999  0.4214  0.07223  1.0000
  H   H8        1.0  0.9099100000000001  0.6493599999999998  0.06993  1.0000
  H   H9        1.0  0.74548  0.53913  0.23038999999999998  1.0000
  H   H10       1.0  0.95332  0.06902000000000001  0.25792  1.0000
  H   H11       1.0  0.85631  0.15597000000000005  0.42972999999999995  1.0000
  H   H12       1.0  0.07737000000000012  0.9202999999999999  0.41331999999999997  1.0000
  H   H13       1.0  0.3508300000000001  0.93488  0.08739  1.0000
  H   H14       1.0  0.58025  0.93462  0.08695  1.0000
  H   H15       1.0  0.44692000000000004  0.80042  0.25712  1.0000
  H   H16       1.0  0.07875000000000006  0.59305  0.428  1.0000
  H   H17       1.0  0.8503699999999997  0.59019  0.43028  1.0000
  H   H18       1.0  0.9607100000000001  0.75462  0.27006  1.0000
  H   H19       1.0  0.5688299999999996  0.45341  0.75793  1.0000
  H   H20       1.0  0.65592  0.35617999999999994  0.92968  1.0000
  H   H21       1.0  0.42032000000000014  0.57756  0.9132199999999999  1.0000
  H   H22       1.0  0.43498999999999993  0.85096  0.58742  1.0000
  H   H23       1.0  0.4342000000000001  0.08017999999999999  0.58729  1.0000
  H   H24       1.0  0.29984999999999995  0.9469199999999999  0.75732  1.0000
  H   H25       1.0  0.09331000000000002  0.5786  0.9277599999999999  1.0000
  H   H26       1.0  0.09009  0.3506500000000001  0.93007  1.0000
  H   H27       1.0  0.25452  0.46087  0.76961  1.0000
  H   H28       1.0  0.04667999999999979  0.9309900000000001  0.74207  1.0000
  H   H29       1.0  0.14368999999999996  0.84404  0.57027  1.0000
  H   H30       1.0  0.9226299999999998  0.07971000000000003  0.58668  1.0000
  H   H31       1.0  0.64917  0.06513000000000002  0.9126099999999999  1.0000
  H   H32       1.0  0.41975000000000023  0.06539000000000005  0.9130499999999999  1.0000
  H   H33       1.0  0.55308  0.19958  0.74288  1.0000
  H   H34       1.0  0.9212500000000001  0.40696000000000004  0.572  1.0000
  H   H35       1.0  0.14963000000000015  0.4098199999999998  0.56972  1.0000
  H   H36       1.0  0.039290000000000054  0.24538  0.72994  1.0000
  C   C1        1.0  0.58042  0.41485  0.20422  1.0000
  C   C2        1.0  0.51274  0.47783999999999993  0.16854  1.0000
  C   C3        1.0  0.44001  0.54253  0.19461000000000003  1.0000
  C   C4        1.0  0.37904  0.60264  0.15941  1.0000
  C   C5        1.0  0.39051  0.59732  0.09824  1.0000
  C   C6        1.0  0.4624000000000002  0.5315199999999998  0.07256  1.0000
  C   C7        1.0  0.52373  0.47227  0.10759999999999999  1.0000
  C   C8        1.0  0.6644099999999998  0.17988  0.28848  1.0000
  C   C9        1.0  0.6351300000000001  0.10913999999999999  0.32348  1.0000
  C   C10       1.0  0.58465  0.10208  0.38752  1.0000
  C   C11       1.0  0.5597899999999999  0.03362999999999999  0.42014  1.0000
  C   C12       1.0  0.58494  0.97278  0.38782  1.0000
  C   C13       1.0  0.6349700000000001  0.9804299999999999  0.32395  1.0000
  C   C14       1.0  0.6604300000000001  0.048129999999999985  0.29196  1.0000
  C   C15       1.0  0.66394  0.9153099999999998  0.28947  1.0000
  C   C16       1.0  0.78678  0.4067899999999999  0.18436  1.0000
  C   C17       1.0  0.82157  0.47363999999999995  0.15419  1.0000
  C   C18       1.0  0.8835600000000001  0.4712299999999999  0.09551  1.0000
  C   C19       1.0  0.9165299999999997  0.53361  0.06645  1.0000
  C   C20       1.0  0.8853499999999999  0.60017  0.09425  1.0000
  C   C21       1.0  0.82409  0.60198  0.1536  1.0000
  C   C22       1.0  0.79273  0.53818  0.18405  1.0000
  C   C23       1.0  0.7924200000000001  0.67211  0.18393  1.0000
  C   C24       1.0  0.30377  0.67238  0.18815  1.0000
  C   C25       1.0  0.08524000000000022  0.9197299999999996  0.29575  1.0000
  C   C26       1.0  0.022140000000000062  0.9873499999999998  0.33147  1.0000
  C   C27       1.0  0.95745  0.060070000000000005  0.30538999999999994  1.0000
  C   C28       1.0  0.8973599999999999  0.12099999999999994  0.34063  1.0000
  C   C29       1.0  0.90269  0.10953999999999994  0.40179  1.0000
  C   C30       1.0  0.96843  0.03765  0.42749  1.0000
  C   C31       1.0  0.027650000000000084  0.9763299999999999  0.39245  1.0000
  C   C32       1.0  0.3201699999999999  0.83556  0.2114  1.0000
  C   C33       1.0  0.39079  0.86508  0.17641  1.0000
  C   C34       1.0  0.39786000000000016  0.9154199999999998  0.11238999999999999  1.0000
  C   C35       1.0  0.4663599999999999  0.94029  0.07979  1.0000
  C   C36       1.0  0.52729  0.91538  0.11202  1.0000
  C   C37       1.0  0.5195599999999999  0.86547  0.17592  1.0000
  C   C38       1.0  0.45182  0.84003  0.20785  1.0000
  C   C39       1.0  0.58455  0.8363300000000001  0.21062999999999998  1.0000
  C   C40       1.0  0.09309000000000013  0.7134399999999997  0.31604  1.0000
  C   C41       1.0  0.02634000000000007  0.6784999999999999  0.34617  1.0000
  C   C42       1.0  0.028820000000000106  0.6163699999999998  0.40472  1.0000
  C   C43       1.0  0.96624  0.58358  0.43370000000000003  1.0000
  C   C44       1.0  0.89958  0.6148  0.40592  1.0000
  C   C45       1.0  0.8979200000000002  0.6760299999999999  0.34658  1.0000
  C   C46       1.0  0.9617500000000001  0.70736  0.31634  1.0000
  C   C47       1.0  0.8280300000000002  0.70792  0.31591  1.0000
  C   C48       1.0  0.82756  0.19622  0.31197  1.0000
  C   C49       1.0  0.4195799999999999  0.58516  0.79577  1.0000
  C   C50       1.0  0.48725999999999997  0.52216  0.83146  1.0000
  C   C51       1.0  0.5599900000000001  0.45747000000000004  0.8053799999999999  1.0000
  C   C52       1.0  0.62096  0.39736999999999995  0.84059  1.0000
  C   C53       1.0  0.6094900000000001  0.40268999999999977  0.90176  1.0000
  C   C54       1.0  0.5376  0.4684799999999998  0.9274400000000002  1.0000
  C   C55       1.0  0.4762699999999999  0.52774  0.8924000000000001  1.0000
  C   C56       1.0  0.33558999999999994  0.82013  0.71152  1.0000
  C   C57       1.0  0.36487000000000014  0.89087  0.67652  1.0000
  C   C58       1.0  0.41535000000000016  0.8979299999999999  0.61248  1.0000
  C   C59       1.0  0.44021000000000016  0.9663699999999995  0.57986  1.0000
  C   C60       1.0  0.41506000000000004  0.02721999999999996  0.61217  1.0000
  C   C61       1.0  0.36502999999999997  0.019570000000000008  0.67605  1.0000
  C   C62       1.0  0.3395699999999999  0.9518800000000001  0.7080299999999999  1.0000
  C   C63       1.0  0.3360599999999999  0.08468999999999999  0.71053  1.0000
  C   C64       1.0  0.21322000000000008  0.59322  0.81563  1.0000
  C   C65       1.0  0.1784300000000002  0.52637  0.8457999999999999  1.0000
  C   C66       1.0  0.11644000000000006  0.52878  0.90448  1.0000
  C   C67       1.0  0.08347000000000016  0.46638999999999997  0.93355  1.0000
  C   C68       1.0  0.11465000000000009  0.39982999999999996  0.90575  1.0000
  C   C69       1.0  0.17591  0.39803  0.8464  1.0000
  C   C70       1.0  0.20727000000000004  0.4618300000000001  0.8159499999999998  1.0000
  C   C71       1.0  0.20758  0.32788999999999996  0.81606  1.0000
  C   C72       1.0  0.6962300000000001  0.3276200000000001  0.81184  1.0000
  C   C73       1.0  0.91476  0.08027000000000002  0.70424  1.0000
  C   C74       1.0  0.97786  0.012660000000000001  0.66853  1.0000
  C   C75       1.0  0.042550000000000136  0.9399299999999999  0.69461  1.0000
  C   C76       1.0  0.10264000000000001  0.87901  0.65937  1.0000
  C   C77       1.0  0.09731  0.8904699999999999  0.5982  1.0000
  C   C78       1.0  0.031569999999999966  0.96236  0.57251  1.0000
  C   C79       1.0  0.97235  0.023679999999999972  0.60755  1.0000
  C   C80       1.0  0.67983  0.16444  0.7886  1.0000
  C   C81       1.0  0.60921  0.13493000000000005  0.8235899999999999  1.0000
  C   C82       1.0  0.6021400000000002  0.08459000000000001  0.8876099999999999  1.0000
  C   C83       1.0  0.53364  0.059720000000000044  0.9201999999999999  1.0000
  C   C84       1.0  0.47271000000000013  0.08463000000000002  0.88797  1.0000
  C   C85       1.0  0.4804400000000001  0.13453  0.82407  1.0000
  C   C86       1.0  0.54818  0.1599799999999999  0.79215  1.0000
  C   C87       1.0  0.41545  0.16368000000000005  0.7893699999999999  1.0000
  C   C88       1.0  0.9069099999999999  0.28657000000000005  0.68396  1.0000
  C   C89       1.0  0.9736600000000001  0.32150999999999996  0.65383  1.0000
  C   C90       1.0  0.9711799999999999  0.3836399999999999  0.59527  1.0000
  C   C91       1.0  0.033760000000000026  0.41642999999999997  0.56629  1.0000
  C   C92       1.0  0.10042  0.38521  0.59408  1.0000
  C   C93       1.0  0.10208  0.32397  0.65342  1.0000
  C   C94       1.0  0.038249999999999965  0.2926500000000001  0.68366  1.0000
  C   C95       1.0  0.17197  0.29208  0.68409  1.0000
  C   C96       1.0  0.17244000000000004  0.8037899999999999  0.6880299999999999  1.0000
  N   N1        1.0  0.4675599999999999  0.53078  0.01067  1.0000
  N   N2        1.0  0.50966  0.032090000000000035  0.4852699999999999  1.0000
  N   N3        1.0  0.9813300000000001  0.53469  0.00837  1.0000
  N   N4        1.0  0.96922  0.03246999999999995  0.48935  1.0000
  N   N5        1.0  0.46791000000000005  0.9902899999999999  0.014689999999999998  1.0000
  N   N6        1.0  0.96521  0.51878  0.4917099999999999  1.0000
  N   N7        1.0  0.53244  0.4692299999999999  0.98933  1.0000
  N   N8        1.0  0.49034  0.96791  0.51472  1.0000
  N   N9        1.0  0.018670000000000016  0.46532  0.99162  1.0000
  N   N10       1.0  0.03078  0.96753  0.51065  1.0000
  N   N11       1.0  0.53209  0.00971000000000002  0.98531  1.0000
  N   N12       1.0  0.03479000000000008  0.48122  0.50828  1.0000
  O   O1        1.0  0.6444599999999997  0.36052  0.17445  1.0000
  O   O2        1.0  0.5711400000000001  0.41912999999999984  0.26016  1.0000
  O   O3        1.0  0.7143800000000001  0.17917999999999998  0.23134  1.0000
  O   O4        1.0  0.63807  0.23541999999999996  0.31856  1.0000
  O   O5        1.0  0.8077499999999999  0.35715  0.15031  1.0000
  O   O6        1.0  0.7386199999999999  0.40445  0.24180999999999997  1.0000
  O   O7        1.0  0.29564  0.66451  0.24695  1.0000
  O   O8        1.0  0.25375000000000003  0.73467  0.15359  1.0000
  O   O9        1.0  0.7117800000000001  0.9247899999999999  0.23145  1.0000
  O   O10       1.0  0.63973  0.85453  0.32054  1.0000
  O   O11       1.0  0.8159299999999999  0.73403  0.15081  1.0000
  O   O12       1.0  0.74354  0.66543  0.24090999999999999  1.0000
  O   O13       1.0  0.13973000000000002  0.85584  0.32548  1.0000
  O   O14       1.0  0.08090000000000003  0.9289499999999999  0.23986  1.0000
  O   O15       1.0  0.32096999999999987  0.78569  0.26852  1.0000
  O   O16       1.0  0.26471999999999996  0.86161  0.18125999999999998  1.0000
  O   O17       1.0  0.14288  0.69239  0.35004  1.0000
  O   O18       1.0  0.09514000000000004  0.76186  0.25873  1.0000
  O   O19       1.0  0.8354799999999998  0.20447000000000004  0.25311  1.0000
  O   O20       1.0  0.76518  0.24605999999999997  0.3466  1.0000
  O   O21       1.0  0.5748900000000001  0.78874  0.2687  1.0000
  O   O22       1.0  0.6456200000000001  0.8601599999999998  0.1795  1.0000
  O   O23       1.0  0.7658  0.68475  0.34905  1.0000
  O   O24       1.0  0.8350400000000001  0.7564299999999998  0.25886  1.0000
  O   O25       1.0  0.35554000000000013  0.6394899999999999  0.82554  1.0000
  O   O26       1.0  0.42886  0.58088  0.73984  1.0000
  O   O27       1.0  0.2856199999999998  0.82083  0.76865  1.0000
  O   O28       1.0  0.36193000000000003  0.7645899999999999  0.68144  1.0000
  O   O29       1.0  0.19225000000000012  0.6428499999999999  0.84968  1.0000
  O   O30       1.0  0.26138000000000006  0.59556  0.75818  1.0000
  O   O31       1.0  0.7043600000000001  0.3355  0.75304  1.0000
  O   O32       1.0  0.7462500000000001  0.26534  0.8464099999999999  1.0000
  O   O33       1.0  0.2882199999999999  0.07521999999999998  0.76855  1.0000
  O   O34       1.0  0.36027000000000003  0.14546999999999996  0.67946  1.0000
  O   O35       1.0  0.18407  0.26597000000000004  0.8491799999999999  1.0000
  O   O36       1.0  0.25646000000000013  0.33457  0.75908  1.0000
  O   O37       1.0  0.8602699999999999  0.14415999999999998  0.67451  1.0000
  O   O38       1.0  0.9190999999999999  0.07106  0.76014  1.0000
  O   O39       1.0  0.67903  0.21432  0.73147  1.0000
  O   O40       1.0  0.7352799999999999  0.13839  0.81873  1.0000
  O   O41       1.0  0.85712  0.30761000000000005  0.64996  1.0000
  O   O42       1.0  0.90486  0.23814999999999997  0.74127  1.0000
  O   O43       1.0  0.1645200000000001  0.79553  0.74689  1.0000
  O   O44       1.0  0.23482  0.75395  0.6534  1.0000
  O   O45       1.0  0.42510999999999977  0.21126  0.73129  1.0000
  O   O46       1.0  0.3543799999999999  0.13984  0.82049  1.0000
  O   O47       1.0  0.2341999999999998  0.31525000000000003  0.65094  1.0000
  O   O48       1.0  0.16495999999999997  0.24357000000000004  0.74114  1.0000
