data_image0
_chemical_formula_structural       Zn8H40C88O32
_chemical_formula_sum              "Zn8 H40 C88 O32"
_cell_length_a       10.18047
_cell_length_b       18.595870000000005
_cell_length_c       28.1692
_cell_angle_alpha    89.99955
_cell_angle_beta     90.0
_cell_angle_gamma    89.69242

_space_group_name_H-M_alt    "P 1"
_space_group_IT_number       1

loop_
  _space_group_symop_operation_xyz
  'x, y, z'

loop_
  _atom_site_type_symbol
  _atom_site_label
  _atom_site_symmetry_multiplicity
  _atom_site_fract_x
  _atom_site_fract_y
  _atom_site_fract_z
  _atom_site_occupancy
  Zn  Zn1       1.0  0.30201000000000006  0.19399999999999995  0.04711999999999999  1.0000
  Zn  Zn2       1.0  0.9717400000000002  0.33747  0.46589  1.0000
  Zn  Zn3       1.0  0.698  0.8059999999999998  0.54712  1.0000
  Zn  Zn4       1.0  0.02826  0.66252  0.9658799999999998  1.0000
  Zn  Zn5       1.0  0.19791  0.68619  0.04485999999999998  1.0000
  Zn  Zn6       1.0  0.52963  0.83956  0.46793999999999997  1.0000
  Zn  Zn7       1.0  0.8020900000000001  0.3138  0.54485  1.0000
  Zn  Zn8       1.0  0.47039  0.16043  0.96795  1.0000
  H   H1        1.0  0.23623000000000002  0.42877  0.0038799999999999993  1.0000
  H   H2        1.0  0.17634  0.51564  0.86358  1.0000
  H   H3        1.0  0.3309000000000001  0.30149  0.88118  1.0000
  H   H4        1.0  0.4641000000000001  0.31008  0.73278  1.0000
  H   H5        1.0  0.44752  0.33379  0.8183499999999998  1.0000
  H   H6        1.0  0.09568  0.45797999999999994  0.79499  1.0000
  H   H7        1.0  0.35093  0.32334999999999997  0.52626  1.0000
  H   H8        1.0  0.11541  0.43720999999999993  0.7088  1.0000
  H   H9        1.0  0.09679999999999998  0.35138  0.64737  1.0000
  H   H10       1.0  0.5187700000000001  0.36253  0.66329  1.0000
  H   H11       1.0  0.76377  0.5712199999999998  0.50388  1.0000
  H   H12       1.0  0.82367  0.48435999999999996  0.36357999999999996  1.0000
  H   H13       1.0  0.66912  0.69851  0.38118  1.0000
  H   H14       1.0  0.53592  0.68992  0.23278  1.0000
  H   H15       1.0  0.5525000000000001  0.66621  0.31834999999999997  1.0000
  H   H16       1.0  0.90433  0.54202  0.29498999999999986  1.0000
  H   H17       1.0  0.64908  0.6766499999999999  0.02626  1.0000
  H   H18       1.0  0.8846100000000002  0.56279  0.2088  1.0000
  H   H19       1.0  0.90322  0.64861  0.14737  1.0000
  H   H20       1.0  0.48125  0.63747  0.16329  1.0000
  H   H21       1.0  0.26643  0.92715  0.0048  1.0000
  H   H22       1.0  0.32372  0.01597  0.86516  1.0000
  H   H23       1.0  0.17065000000000002  0.8024199999999998  0.881  1.0000
  H   H24       1.0  0.03429  0.8130799999999999  0.73363  1.0000
  H   H25       1.0  0.05087  0.83718  0.81906  1.0000
  H   H26       1.0  0.40154  0.96008  0.79504  1.0000
  H   H27       1.0  0.15052000000000001  0.82097  0.5272  1.0000
  H   H28       1.0  0.3811300000000001  0.9389500000000001  0.7090299999999998  1.0000
  H   H29       1.0  0.40287000000000006  0.85236  0.6480999999999998  1.0000
  H   H30       1.0  0.9804600000000002  0.85982  0.6640999999999999  1.0000
  H   H31       1.0  0.73358  0.07285999999999998  0.5048  1.0000
  H   H32       1.0  0.6763  0.9840299999999998  0.36516  1.0000
  H   H33       1.0  0.8293600000000001  0.19758  0.381  1.0000
  H   H34       1.0  0.9657300000000001  0.18692  0.23363  1.0000
  H   H35       1.0  0.94915  0.16282  0.31907  1.0000
  H   H36       1.0  0.59848  0.03992  0.29505  1.0000
  H   H37       1.0  0.8494800000000001  0.17903  0.0272  1.0000
  H   H38       1.0  0.61889  0.06103999999999999  0.20902999999999997  1.0000
  H   H39       1.0  0.59714  0.14764  0.1481  1.0000
  H   H40       1.0  0.01955  0.14018  0.1641  1.0000
  C   C1        1.0  0.24256000000000003  0.42322  0.9654899999999997  1.0000
  C   C2        1.0  0.20899  0.47112999999999994  0.88574  1.0000
  C   C3        1.0  0.29698  0.3523299999999999  0.8956799999999999  1.0000
  C   C4        1.0  0.38416  0.34354999999999997  0.74599  1.0000
  C   C5        1.0  0.27048000000000005  0.39785  0.8132199999999999  1.0000
  C   C6        1.0  0.14337  0.54675  0.95425  1.0000
  C   C7        1.0  0.37389000000000006  0.35616  0.7945099999999999  1.0000
  C   C8        1.0  0.25909000000000004  0.40808  0.8651499999999998  1.0000
  C   C9        1.0  0.17781  0.42653  0.7813499999999999  1.0000
  C   C10       1.0  0.28823  0.35909  0.9451499999999998  1.0000
  C   C11       1.0  0.29171  0.37233  0.71398  1.0000
  C   C12       1.0  0.33735  0.33297999999999994  0.56403  1.0000
  C   C13       1.0  0.09438000000000002  0.32919  0.55257  1.0000
  C   C14       1.0  0.44724000000000014  0.34115  0.5933  1.0000
  C   C15       1.0  0.18806  0.41387  0.73267  1.0000
  C   C16       1.0  0.1957  0.34986  0.63273  1.0000
  C   C17       1.0  0.32325  0.2948  0.97395  1.0000
  C   C18       1.0  0.30545  0.35897  0.6623799999999997  1.0000
  C   C19       1.0  0.21119  0.33731  0.5838499999999998  1.0000
  C   C20       1.0  0.20153  0.47884  0.93536  1.0000
  C   C21       1.0  0.43116  0.3545  0.6418599999999999  1.0000
  C   C22       1.0  0.5818400000000001  0.33432  0.57305  1.0000
  C   C23       1.0  0.7574500000000001  0.57678  0.4655  1.0000
  C   C24       1.0  0.79102  0.52886  0.38574  1.0000
  C   C25       1.0  0.70305  0.64767  0.39568  1.0000
  C   C26       1.0  0.61586  0.65645  0.24599  1.0000
  C   C27       1.0  0.7295400000000001  0.60215  0.31322  1.0000
  C   C28       1.0  0.8566  0.45324  0.45425  1.0000
  C   C29       1.0  0.6261300000000001  0.64384  0.2945199999999999  1.0000
  C   C30       1.0  0.7409300000000001  0.59192  0.3651499999999999  1.0000
  C   C31       1.0  0.82221  0.57347  0.28135  1.0000
  C   C32       1.0  0.7117900000000001  0.64091  0.44515  1.0000
  C   C33       1.0  0.70831  0.62766  0.21397999999999995  1.0000
  C   C34       1.0  0.66267  0.66702  0.06403  1.0000
  C   C35       1.0  0.9056300000000002  0.6708  0.05257  1.0000
  C   C36       1.0  0.55278  0.6588499999999998  0.0933  1.0000
  C   C37       1.0  0.8119600000000001  0.58612  0.23267  1.0000
  C   C38       1.0  0.80431  0.65014  0.13273  1.0000
  C   C39       1.0  0.67677  0.70519  0.47395  1.0000
  C   C40       1.0  0.69457  0.64103  0.16238  1.0000
  C   C41       1.0  0.78882  0.66269  0.08385  1.0000
  C   C42       1.0  0.79848  0.52116  0.43536  1.0000
  C   C43       1.0  0.56886  0.6455  0.14186  1.0000
  C   C44       1.0  0.41817000000000004  0.6656599999999999  0.07306  1.0000
  C   C45       1.0  0.25977  0.9217199999999999  0.9663899999999997  1.0000
  C   C46       1.0  0.29170000000000007  0.97121  0.88694  1.0000
  C   C47       1.0  0.20445000000000002  0.8527799999999999  0.89596  1.0000
  C   C48       1.0  0.11443000000000002  0.84593  0.7467099999999998  1.0000
  C   C49       1.0  0.2286  0.8996  0.81383  1.0000
  C   C50       1.0  0.35842  0.04539  0.95556  1.0000
  C   C51       1.0  0.12486  0.85871  0.79519  1.0000
  C   C52       1.0  0.24110000000000004  0.9090099999999999  0.86581  1.0000
  C   C53       1.0  0.32012000000000007  0.92831  0.7817199999999997  1.0000
  C   C54       1.0  0.21423  0.85801  0.94553  1.0000
  C   C55       1.0  0.20693  0.8737200000000002  0.7145799999999999  1.0000
  C   C56       1.0  0.16288000000000002  0.8311499999999999  0.56493  1.0000
  C   C57       1.0  0.40545  0.82831  0.55362  1.0000
  C   C58       1.0  0.0526  0.83852  0.59415  1.0000
  C   C59       1.0  0.3095300000000001  0.91553  0.73307  1.0000
  C   C60       1.0  0.3039  0.84993  0.6335999999999999  1.0000
  C   C61       1.0  0.17926  0.79233  0.9731  1.0000
  C   C62       1.0  0.19383000000000003  0.85909  0.66312  1.0000
  C   C63       1.0  0.2887  0.83636  0.58488  1.0000
  C   C64       1.0  0.30005  0.97789  0.93661  1.0000
  C   C65       1.0  0.06840000000000003  0.8528099999999997  0.64264  1.0000
  C   C66       1.0  0.91834  0.8299  0.5741899999999998  1.0000
  C   C67       1.0  0.74024  0.07827  0.4663899999999999  1.0000
  C   C68       1.0  0.70831  0.02879  0.38694  1.0000
  C   C69       1.0  0.7955700000000002  0.14722  0.39595999999999987  1.0000
  C   C70       1.0  0.8855900000000001  0.15407  0.24671  1.0000
  C   C71       1.0  0.7714200000000001  0.10039999999999998  0.31383  1.0000
  C   C72       1.0  0.64159  0.9546099999999998  0.45557  1.0000
  C   C73       1.0  0.87516  0.14129  0.2952  1.0000
  C   C74       1.0  0.7589100000000001  0.09099  0.36581  1.0000
  C   C75       1.0  0.67989  0.07169  0.28172  1.0000
  C   C76       1.0  0.7857900000000003  0.14198  0.44553  1.0000
  C   C77       1.0  0.79308  0.12628  0.21458  1.0000
  C   C78       1.0  0.83712  0.16885  0.06493  1.0000
  C   C79       1.0  0.5945600000000001  0.17169  0.05362  1.0000
  C   C80       1.0  0.94741  0.16147999999999998  0.09416  1.0000
  C   C81       1.0  0.69049  0.08446999999999999  0.23306999999999994  1.0000
  C   C82       1.0  0.6961100000000001  0.15007  0.1336  1.0000
  C   C83       1.0  0.82076  0.20765  0.4731  1.0000
  C   C84       1.0  0.8061900000000001  0.14091  0.16313  1.0000
  C   C85       1.0  0.71131  0.16364  0.08488  1.0000
  C   C86       1.0  0.69996  0.02211  0.4366099999999999  1.0000
  C   C87       1.0  0.93161  0.14719  0.14264  1.0000
  C   C88       1.0  0.08167  0.1701  0.07419  1.0000
  O   O1        1.0  0.06421000000000002  0.58041  0.92555  1.0000
  O   O2        1.0  0.16727  0.57062  0.99558  1.0000
  O   O3        1.0  0.36106  0.23974999999999996  0.9496199999999998  1.0000
  O   O4        1.0  0.98016  0.33138999999999996  0.5712299999999998  1.0000
  O   O5        1.0  0.68218  0.3372899999999999  0.60086  1.0000
  O   O6        1.0  0.59798  0.32400999999999996  0.52862  1.0000
  O   O7        1.0  0.11693  0.32125  0.50775  1.0000
  O   O8        1.0  0.3118600000000001  0.2949399999999999  0.01896  1.0000
  O   O9        1.0  0.9358  0.41958  0.4255599999999999  1.0000
  O   O10       1.0  0.83261  0.42937  0.49557  1.0000
  O   O11       1.0  0.63897  0.76024  0.44962  1.0000
  O   O12       1.0  0.019840000000000007  0.66861  0.07123  1.0000
  O   O13       1.0  0.31784  0.66267  0.10087  1.0000
  O   O14       1.0  0.40202000000000004  0.67599  0.028629999999999996  1.0000
  O   O15       1.0  0.8830800000000002  0.67873  0.00775  1.0000
  O   O16       1.0  0.6881500000000002  0.70505  0.51896  1.0000
  O   O17       1.0  0.4348  0.07977  0.92625  1.0000
  O   O18       1.0  0.33669  0.06875  0.99722  1.0000
  O   O19       1.0  0.14219  0.7385099999999999  0.9472799999999998  1.0000
  O   O20       1.0  0.51991  0.82925  0.5721  1.0000
  O   O21       1.0  0.81884  0.82864  0.60265  1.0000
  O   O22       1.0  0.90066  0.82193  0.52958  1.0000
  O   O23       1.0  0.38298  0.8220499999999998  0.50877  1.0000
  O   O24       1.0  0.18893000000000001  0.7892999999999999  0.01804  1.0000
  O   O25       1.0  0.56521  0.9202299999999999  0.42625  1.0000
  O   O26       1.0  0.66333  0.93125  0.4972199999999999  1.0000
  O   O27       1.0  0.8578200000000001  0.26148  0.44727999999999996  1.0000
  O   O28       1.0  0.4801  0.17075  0.0721  1.0000
  O   O29       1.0  0.18117  0.17136  0.10265  1.0000
  O   O30       1.0  0.09935  0.17808  0.029589999999999995  1.0000
  O   O31       1.0  0.61703  0.17795  0.00877  1.0000
  O   O32       1.0  0.81109  0.21068999999999996  0.51804  1.0000
