data_image0
_chemical_formula_structural       Tb2Cu8H48C72I8N6O12
_chemical_formula_sum              "Tb2 Cu8 H48 C72 I8 N6 O12"
_cell_length_a       9.66365
_cell_length_b       16.48436
_cell_length_c       21.12061
_cell_angle_alpha    104.36855
_cell_angle_beta     100.48380999999999
_cell_angle_gamma    97.14065

_symmetry_space_group_name_H-M    'P 1'
_symmetry_Int_Tables_number       1

loop_
  _symmetry_equiv_pos_as_xyz
  'x,y,z'

loop_
  _atom_site_type_symbol
  _atom_site_label
  _atom_site_symmetry_multiplicity
  _atom_site_fract_x
  _atom_site_fract_y
  _atom_site_fract_z
  _atom_site_occupancy
  Tb  Tb1       1.0  0.28999999999999987  0.5146  0.99831  1.0000
  Tb  Tb2       1.0  0.71  0.4854  0.00169  1.0000
  Cu  Cu1       1.0  0.006570000000000033  0.94081  0.53906  1.0000
  Cu  Cu2       1.0  0.75884  0.83026  0.50083  1.0000
  Cu  Cu3       1.0  0.8237499999999998  0.94503  0.6158  1.0000
  Cu  Cu4       1.0  0.9592000000000004  0.82146  0.59668  1.0000
  Cu  Cu5       1.0  0.9934199999999999  0.05918999999999998  0.46093999999999996  1.0000
  Cu  Cu6       1.0  0.24115999999999999  0.16972999999999996  0.49915999999999994  1.0000
  Cu  Cu7       1.0  0.17624999999999996  0.05495999999999998  0.38419999999999993  1.0000
  Cu  Cu8       1.0  0.04079999999999997  0.17853999999999998  0.40331999999999996  1.0000
  H   H1        1.0  0.4539999999999998  0.84642  0.4735499999999999  1.0000
  H   H2        1.0  0.22692999999999994  0.76658  0.39549999999999996  1.0000
  H   H3        1.0  0.47110999999999964  0.59014  0.2992099999999999  1.0000
  H   H4        1.0  0.6892099999999999  0.67735  0.38236999999999993  1.0000
  H   H5        1.0  0.2836699999999999  0.60873  0.20422  1.0000
  H   H6        1.0  0.8408  0.49583  0.16817  1.0000
  H   H7        1.0  0.85059  0.54207  0.29119  1.0000
  H   H8        1.0  0.0757  0.62321  0.37011999999999995  1.0000
  H   H9        1.0  0.8852399999999999  0.11518999999999996  0.7227399999999999  1.0000
  H   H10       1.0  0.73823  0.21877999999999995  0.76997  1.0000
  H   H11       1.0  0.36335  0.03510000000000001  0.65387  1.0000
  H   H12       1.0  0.52514  0.9393  0.61281  1.0000
  H   H13       1.0  0.57928  0.2572499999999999  0.8374899999999998  1.0000
  H   H14       1.0  0.16748999999999992  0.33131999999999995  0.8070499999999999  1.0000
  H   H15       1.0  0.10109999999999997  0.23094000000000003  0.69116  1.0000
  H   H16       1.0  0.27202999999999994  0.14502  0.64933  1.0000
  H   H17       1.0  0.25929  0.81746  0.6101499999999999  1.0000
  H   H18       1.0  0.44714  0.75599  0.66986  1.0000
  H   H19       1.0  0.11344999999999995  0.61999  0.7352899999999999  1.0000
  H   H20       1.0  0.94041  0.69031  0.67483  1.0000
  H   H21       1.0  0.30097  0.64452  0.82693  1.0000
  H   H22       1.0  0.6995099999999999  0.55392  0.8458  1.0000
  H   H23       1.0  0.72596  0.57823  0.73597  1.0000
  H   H24       1.0  0.54007  0.63576  0.67194  1.0000
  H   H25       1.0  0.546  0.15357  0.52645  1.0000
  H   H26       1.0  0.77307  0.23341  0.6045  1.0000
  H   H27       1.0  0.52889  0.40985999999999995  0.7007899999999999  1.0000
  H   H28       1.0  0.3107899999999999  0.32264  0.61763  1.0000
  H   H29       1.0  0.7163299999999999  0.39126  0.79578  1.0000
  H   H30       1.0  0.15919999999999995  0.5041699999999999  0.8318199999999999  1.0000
  H   H31       1.0  0.1494099999999999  0.45792000000000005  0.7088  1.0000
  H   H32       1.0  0.9243  0.37678  0.62988  1.0000
  H   H33       1.0  0.11476  0.8848  0.27726  1.0000
  H   H34       1.0  0.26177  0.7812099999999998  0.23002  1.0000
  H   H35       1.0  0.63665  0.9649  0.34613  1.0000
  H   H36       1.0  0.47486  0.06069000000000003  0.38719  1.0000
  H   H37       1.0  0.42071999999999987  0.74274  0.16250999999999996  1.0000
  H   H38       1.0  0.83251  0.66867  0.19295  1.0000
  H   H39       1.0  0.8988999999999999  0.7690499999999999  0.30883999999999995  1.0000
  H   H40       1.0  0.7279699999999998  0.85497  0.35067  1.0000
  H   H41       1.0  0.74071  0.18253999999999998  0.3898499999999999  1.0000
  H   H42       1.0  0.55286  0.244  0.33013  1.0000
  H   H43       1.0  0.8865499999999998  0.37999999999999995  0.26470999999999995  1.0000
  H   H44       1.0  0.05958999999999999  0.30968  0.32516  1.0000
  H   H45       1.0  0.6990299999999999  0.35547  0.17306999999999995  1.0000
  H   H46       1.0  0.30048999999999987  0.44607  0.1542  1.0000
  H   H47       1.0  0.27404  0.42176  0.26403  1.0000
  H   H48       1.0  0.45993  0.36423  0.32805  1.0000
  C   C1        1.0  0.4532599999999997  0.7888999999999999  0.4345799999999999  1.0000
  C   C2        1.0  0.32652999999999993  0.74381  0.39087999999999995  1.0000
  C   C3        1.0  0.32909  0.67068  0.34033  1.0000
  C   C4        1.0  0.4623999999999999  0.64662  0.33695  1.0000
  C   C5        1.0  0.5842499999999999  0.69457  0.3832299999999999  1.0000
  C   C6        1.0  0.19575  0.62161  0.2929  1.0000
  C   C7        1.0  0.18975  0.59412  0.22385999999999998  1.0000
  C   C8        1.0  0.061639999999999986  0.54965  0.17903999999999998  1.0000
  C   C9        1.0  0.9393399999999998  0.53051  0.20345999999999997  1.0000
  C   C10       1.0  0.9453099999999999  0.55675  0.27217  1.0000
  C   C11       1.0  0.07192999999999998  0.6026  0.31659  1.0000
  C   C12       1.0  0.05397000000000002  0.52404  0.10507999999999999  1.0000
  C   C13       1.0  0.76877  0.10009999999999995  0.7093999999999999  1.0000
  C   C14       1.0  0.6854599999999998  0.1572799999999999  0.7357099999999998  1.0000
  C   C15       1.0  0.5354099999999999  0.1363799999999999  0.7159399999999999  1.0000
  C   C16       1.0  0.47809  0.05617999999999998  0.67048  1.0000
  C   C17       1.0  0.56788  0.0021999999999999967  0.64732  1.0000
  C   C18       1.0  0.43805999999999984  0.19290999999999991  0.7405499999999998  1.0000
  C   C19       1.0  0.47566  0.25107  0.80451  1.0000
  C   C20       1.0  0.3784299999999999  0.30073999999999995  0.8282799999999999  1.0000
  C   C21       1.0  0.24199999999999997  0.29271  0.78785  1.0000
  C   C22       1.0  0.20501  0.23648999999999995  0.72374  1.0000
  C   C23       1.0  0.30184  0.18706  0.70017  1.0000
  C   C24       1.0  0.4201999999999999  0.36329999999999996  0.8958499999999999  1.0000
  C   C25       1.0  0.23202999999999982  0.77322  0.6384399999999999  1.0000
  C   C26       1.0  0.33596999999999994  0.73797  0.6714399999999999  1.0000
  C   C27       1.0  0.29724000000000006  0.68173  0.70805  1.0000
  C   C28       1.0  0.15155  0.6641  0.7089  1.0000
  C   C29       1.0  0.05380999999999993  0.70232  0.6747599999999998  1.0000
  C   C30       1.0  0.40652  0.64469  0.74468  1.0000
  C   C31       1.0  0.3923199999999998  0.6294199999999999  0.8058199999999998  1.0000
  C   C32       1.0  0.49772999999999984  0.5972199999999999  0.8421599999999999  1.0000
  C   C33       1.0  0.6189199999999997  0.57929  0.8171699999999998  1.0000
  C   C34       1.0  0.63313  0.59327  0.7559399999999998  1.0000
  C   C35       1.0  0.5281499999999998  0.62573  0.71989  1.0000
  C   C36       1.0  0.47826999999999986  0.5797799999999999  0.9062999999999999  1.0000
  C   C37       1.0  0.54674  0.21109  0.56542  1.0000
  C   C38       1.0  0.6734699999999998  0.25618  0.60911  1.0000
  C   C39       1.0  0.6709099999999999  0.32931  0.65967  1.0000
  C   C40       1.0  0.5375999999999999  0.35337  0.6630499999999999  1.0000
  C   C41       1.0  0.41574999999999995  0.30542  0.61676  1.0000
  C   C42       1.0  0.8042499999999998  0.37837999999999994  0.7070999999999997  1.0000
  C   C43       1.0  0.8102499999999998  0.40586999999999995  0.7761399999999998  1.0000
  C   C44       1.0  0.9383599999999997  0.45033999999999996  0.8209599999999999  1.0000
  C   C45       1.0  0.06066000000000001  0.46948  0.79653  1.0000
  C   C46       1.0  0.05469000000000002  0.44325  0.72783  1.0000
  C   C47       1.0  0.9280699999999998  0.3974  0.68341  1.0000
  C   C48       1.0  0.94602  0.47594999999999993  0.8949099999999999  1.0000
  C   C49       1.0  0.23123  0.89989  0.2906  1.0000
  C   C50       1.0  0.31454  0.84271  0.26429  1.0000
  C   C51       1.0  0.46458999999999995  0.86361  0.2840599999999999  1.0000
  C   C52       1.0  0.5218999999999999  0.94381  0.32952  1.0000
  C   C53       1.0  0.43212  0.9977899999999998  0.35268  1.0000
  C   C54       1.0  0.5619399999999999  0.80709  0.25945  1.0000
  C   C55       1.0  0.5243299999999997  0.74892  0.19547999999999993  1.0000
  C   C56       1.0  0.62156  0.69926  0.17171  1.0000
  C   C57       1.0  0.758  0.70728  0.21214999999999998  1.0000
  C   C58       1.0  0.79498  0.7635  0.27625999999999995  1.0000
  C   C59       1.0  0.69816  0.81293  0.29983  1.0000
  C   C60       1.0  0.5798  0.63669  0.10414999999999999  1.0000
  C   C61       1.0  0.76797  0.22677  0.36156  1.0000
  C   C62       1.0  0.6640299999999997  0.26203  0.32856  1.0000
  C   C63       1.0  0.70276  0.31826  0.29195  1.0000
  C   C64       1.0  0.8484499999999999  0.33589  0.2910999999999999  1.0000
  C   C65       1.0  0.9461899999999999  0.29767  0.32523  1.0000
  C   C66       1.0  0.59348  0.3553  0.25532  1.0000
  C   C67       1.0  0.60767  0.37056999999999995  0.19418  1.0000
  C   C68       1.0  0.50227  0.40277  0.15784  1.0000
  C   C69       1.0  0.38108  0.4207  0.18282999999999996  1.0000
  C   C70       1.0  0.36687  0.40672  0.24406  1.0000
  C   C71       1.0  0.47185  0.37427  0.28011  1.0000
  C   C72       1.0  0.52173  0.42021  0.09369999999999999  1.0000
  I   I1        1.0  0.7598499999999997  0.9962999999999999  0.49718999999999997  1.0000
  I   I2        1.0  0.98772  0.772  0.46569  1.0000
  I   I3        1.0  0.09420999999999989  0.98198  0.6773699999999999  1.0000
  I   I4        1.0  0.6893999999999999  0.78389  0.6091899999999999  1.0000
  I   I5        1.0  0.24014999999999997  0.003689999999999992  0.50281  1.0000
  I   I6        1.0  0.012270000000000005  0.22799  0.53431  1.0000
  I   I7        1.0  0.9057899999999999  0.018009999999999995  0.32263  1.0000
  I   I8        1.0  0.31059999999999993  0.21610999999999997  0.39080999999999994  1.0000
  N   N1        1.0  0.58145  0.76523  0.43147  1.0000
  N   N2        1.0  0.7118599999999997  0.023120000000000005  0.66547  1.0000
  N   N3        1.0  0.09225000000000001  0.75651  0.63984  1.0000
  N   N4        1.0  0.4185499999999999  0.23476  0.56852  1.0000
  N   N5        1.0  0.28814  0.9768699999999999  0.33452999999999994  1.0000
  N   N6        1.0  0.9077499999999998  0.24347999999999997  0.36015999999999987  1.0000
  O   O1        1.0  0.17108999999999996  0.53174  0.08563  1.0000
  O   O2        1.0  0.93113  0.49545999999999996  0.06577  1.0000
  O   O3        1.0  0.5480199999999998  0.37311  0.9297599999999999  1.0000
  O   O4        1.0  0.3255199999999999  0.40533  0.91536  1.0000
  O   O5        1.0  0.35983000000000004  0.5874  0.92351  1.0000
  O   O6        1.0  0.5807  0.5555  0.94039  1.0000
  O   O7        1.0  0.82891  0.46825  0.91437  1.0000
  O   O8        1.0  0.06886999999999997  0.50453  0.9342299999999999  1.0000
  O   O9        1.0  0.4519699999999999  0.62688  0.07024  1.0000
  O   O10       1.0  0.6744799999999997  0.59467  0.08464  1.0000
  O   O11       1.0  0.64017  0.41259  0.07649  1.0000
  O   O12       1.0  0.41929  0.44449  0.05961  1.0000
