data_image0
_chemical_formula_structural       Cu12Mo4H72C94S16N22
_chemical_formula_sum              "Cu12 Mo4 H72 C94 S16 N22"
_cell_length_a       16.64081
_cell_length_b       18.153369999999995
_cell_length_c       20.26615
_cell_angle_alpha    74.72544
_cell_angle_beta     90.92057000000001
_cell_angle_gamma    71.96263

_space_group_name_H-M_alt    "P 1"
_space_group_IT_number       1

loop_
  _space_group_symop_operation_xyz
  'x, y, z'

loop_
  _atom_site_type_symbol
  _atom_site_label
  _atom_site_symmetry_multiplicity
  _atom_site_fract_x
  _atom_site_fract_y
  _atom_site_fract_z
  _atom_site_occupancy
  Cu  Cu1       1.0  0.05074  0.15635  0.69108  1.0000
  Cu  Cu2       1.0  0.9993799999999999  0.30751000000000006  0.7961599999999999  1.0000
  Cu  Cu3       1.0  0.17449  0.3045  0.6737999999999998  1.0000
  Cu  Cu4       1.0  0.37006000000000006  0.69835  0.22043  1.0000
  Cu  Cu5       1.0  0.52733  0.65123  0.08277  1.0000
  Cu  Cu6       1.0  0.48338000000000003  0.18047000000000005  0.8362199999999999  1.0000
  Cu  Cu7       1.0  0.94926  0.8436500000000001  0.30892  1.0000
  Cu  Cu8       1.0  0.0006199999999999894  0.69249  0.20383  1.0000
  Cu  Cu9       1.0  0.82552  0.69551  0.3262  1.0000
  Cu  Cu10      1.0  0.62994  0.30165000000000003  0.77957  1.0000
  Cu  Cu11      1.0  0.47267000000000003  0.34877  0.91723  1.0000
  Cu  Cu12      1.0  0.51662  0.81953  0.16378  1.0000
  Mo  Mo1       1.0  0.010419999999999995  0.31561  0.6641299999999999  1.0000
  Mo  Mo2       1.0  0.53761  0.66274  0.21052  1.0000
  Mo  Mo3       1.0  0.98959  0.68439  0.33587  1.0000
  Mo  Mo4       1.0  0.46239  0.33727  0.78948  1.0000
  H   H1        1.0  0.08406000000000002  0.9819199999999999  0.69299  1.0000
  H   H2        1.0  0.07658000000000006  0.91082  0.60667  1.0000
  H   H3        1.0  0.92792  0.14235000000000003  0.46770999999999996  1.0000
  H   H4        1.0  0.9420800000000001  0.20317000000000002  0.5603  1.0000
  H   H5        1.0  0.22370000000000004  0.71235  0.302  1.0000
  H   H6        1.0  0.17602  0.63623  0.40481  1.0000
  H   H7        1.0  0.41839  0.44642  0.43187999999999993  1.0000
  H   H8        1.0  0.45571999999999996  0.53167  0.3268  1.0000
  H   H9        1.0  0.13172000000000003  0.53331  0.4504099999999999  1.0000
  H   H10       1.0  0.09083  0.44393  0.55012  1.0000
  H   H11       1.0  0.3394000000000001  0.33875999999999995  0.64167  1.0000
  H   H12       1.0  0.39176000000000005  0.42301  0.54619  1.0000
  H   H13       1.0  0.3471600000000001  0.74625  0.07988  1.0000
  H   H14       1.0  0.23649999999999996  0.86234  0.0016100000000000003  1.0000
  H   H15       1.0  0.40964000000000006  0.8489499999999999  0.84411  1.0000
  H   H16       1.0  0.51352  0.7334699999999998  0.9300799999999999  1.0000
  H   H17       1.0  0.13759000000000002  0.92454  0.91346  1.0000
  H   H18       1.0  0.03865  0.04354000000000001  0.82632  1.0000
  H   H19       1.0  0.23669999999999997  0.09021000000000005  0.7206899999999999  1.0000
  H   H20       1.0  0.34421999999999997  0.9761  0.80401  1.0000
  H   H21       1.0  0.7113  0.5843  0.08624  1.0000
  H   H22       1.0  0.8174  0.51056  0.0222  1.0000
  H   H23       1.0  0.60837  0.4919899999999999  0.9044199999999999  1.0000
  H   H24       1.0  0.5115  0.5666500000000001  0.9735699999999999  1.0000
  H   H25       1.0  0.88038  0.5086200000000001  0.93018  1.0000
  H   H26       1.0  0.9825299999999998  0.4354100000000001  0.86329  1.0000
  H   H27       1.0  0.81751  0.31928  0.82038  1.0000
  H   H28       1.0  0.7087299999999999  0.38652  0.8850099999999999  1.0000
  H   H29       1.0  0.33447  0.89665  0.16352  1.0000
  H   H30       1.0  0.21599999999999997  0.009780000000000004  0.08856  1.0000
  H   H31       1.0  0.38641  0.026400000000000062  0.9303199999999999  1.0000
  H   H32       1.0  0.498  0.91172  0.01251  1.0000
  H   H33       1.0  0.12003  0.05377000000000004  0.9962699999999999  1.0000
  H   H34       1.0  0.007679999999999995  0.16875000000000004  0.91575  1.0000
  H   H35       1.0  0.18547  0.27041000000000004  0.82647  1.0000
  H   H36       1.0  0.305  0.16046  0.90256  1.0000
  H   H37       1.0  0.91594  0.01807999999999999  0.30701  1.0000
  H   H38       1.0  0.92342  0.08917999999999998  0.39333  1.0000
  H   H39       1.0  0.07207999999999996  0.85765  0.53229  1.0000
  H   H40       1.0  0.05791999999999996  0.7968200000000001  0.4397  1.0000
  H   H41       1.0  0.77631  0.2876500000000001  0.698  1.0000
  H   H42       1.0  0.82399  0.36377000000000004  0.59519  1.0000
  H   H43       1.0  0.58162  0.55358  0.56811  1.0000
  H   H44       1.0  0.54428  0.46832999999999997  0.67319  1.0000
  H   H45       1.0  0.8682800000000002  0.46669  0.54959  1.0000
  H   H46       1.0  0.9091800000000001  0.5560699999999998  0.44988  1.0000
  H   H47       1.0  0.6606  0.66124  0.35832  1.0000
  H   H48       1.0  0.60825  0.57699  0.45381  1.0000
  H   H49       1.0  0.65284  0.2537499999999999  0.92012  1.0000
  H   H50       1.0  0.7635  0.13766000000000003  0.99839  1.0000
  H   H51       1.0  0.59036  0.15105  0.15589  1.0000
  H   H52       1.0  0.48648000000000013  0.26653  0.06992  1.0000
  H   H53       1.0  0.86241  0.07546000000000001  0.08653  1.0000
  H   H54       1.0  0.96135  0.95646  0.17368  1.0000
  H   H55       1.0  0.7633  0.90979  0.27931  1.0000
  H   H56       1.0  0.65579  0.023900000000000005  0.19599  1.0000
  H   H57       1.0  0.2887  0.41570000000000007  0.91376  1.0000
  H   H58       1.0  0.18260999999999997  0.48944  0.9777900000000002  1.0000
  H   H59       1.0  0.39164  0.50801  0.09558  1.0000
  H   H60       1.0  0.48850000000000005  0.43335  0.02642  1.0000
  H   H61       1.0  0.11962999999999999  0.49138  0.06981  1.0000
  H   H62       1.0  0.01747  0.56459  0.13671  1.0000
  H   H63       1.0  0.1825  0.68072  0.17962  1.0000
  H   H64       1.0  0.29128  0.61348  0.11499  1.0000
  H   H65       1.0  0.66553  0.10335000000000003  0.83648  1.0000
  H   H66       1.0  0.7839999999999999  0.99022  0.9114400000000001  1.0000
  H   H67       1.0  0.61359  0.9735900000000001  0.06968  1.0000
  H   H68       1.0  0.5019999999999999  0.08828000000000004  0.98749  1.0000
  H   H69       1.0  0.87997  0.94623  0.00373  1.0000
  H   H70       1.0  0.99232  0.83125  0.08423999999999998  1.0000
  H   H71       1.0  0.8145299999999999  0.72959  0.17352  1.0000
  H   H72       1.0  0.695  0.83953  0.09744  1.0000
  C   C1        1.0  0.04988  0.015259999999999994  0.64232  1.0000
  C   C2        1.0  0.04551  0.97578  0.59312  1.0000
  C   C3        1.0  0.0022299999999999976  0.019530000000000006  0.52703  1.0000
  C   C4        1.0  0.9635099999999999  0.10344  0.51649  1.0000
  C   C5        1.0  0.97059  0.13839999999999997  0.56839  1.0000
  C   C6        1.0  0.2656  0.65363  0.33268  1.0000
  C   C7        1.0  0.23945000000000002  0.6104  0.39071  1.0000
  C   C8        1.0  0.29385000000000006  0.5340900000000001  0.42880999999999997  1.0000
  C   C9        1.0  0.37383999999999995  0.5057500000000001  0.40557  1.0000
  C   C10       1.0  0.39498  0.55269  0.3468  1.0000
  C   C11       1.0  0.26657  0.48494000000000004  0.48874999999999996  1.0000
  C   C12       1.0  0.18035  0.49117000000000005  0.49169  1.0000
  C   C13       1.0  0.15691999999999998  0.44140000000000007  0.54711  1.0000
  C   C14       1.0  0.2956  0.38206  0.59805  1.0000
  C   C15       1.0  0.3245  0.42927000000000004  0.54414  1.0000
  C   C16       1.0  0.35800000000000004  0.77021  0.026819999999999997  1.0000
  C   C17       1.0  0.29606999999999994  0.8354700000000002  0.98221  1.0000
  C   C18       1.0  0.31289  0.86691  0.9147  1.0000
  C   C19       1.0  0.39296  0.8287600000000002  0.89589  1.0000
  C   C20       1.0  0.45122  0.76375  0.9435  1.0000
  C   C21       1.0  0.25071  0.93723  0.86556  1.0000
  C   C22       1.0  0.16286000000000006  0.9589  0.87146  1.0000
  C   C23       1.0  0.10697999999999999  0.02492000000000002  0.8227299999999999  1.0000
  C   C24       1.0  0.21769  0.051039999999999995  0.76358  1.0000
  C   C25       1.0  0.27729000000000004  0.9861999999999999  0.81023  1.0000
  C   C26       1.0  0.69149  0.56283  0.04541  1.0000
  C   C27       1.0  0.7502100000000002  0.52221  0.00872  1.0000
  C   C28       1.0  0.72321  0.4950000000000001  0.9558999999999999  1.0000
  C   C29       1.0  0.6348699999999999  0.5106700000000001  0.9442699999999999  1.0000
  C   C30       1.0  0.57996  0.55254  0.98291  1.0000
  C   C31       1.0  0.7846000000000001  0.45360000000000006  0.91544  1.0000
  C   C32       1.0  0.8639800000000001  0.46610000000000007  0.90797  1.0000
  C   C33       1.0  0.92144  0.42585  0.87023  1.0000
  C   C34       1.0  0.8293300000000001  0.36154  0.84549  1.0000
  C   C35       1.0  0.76823  0.39991  0.88216  1.0000
  C   C36       1.0  0.34338  0.9277600000000001  0.11183999999999998  1.0000
  C   C37       1.0  0.27751999999999993  0.9909900000000001  0.06943  1.0000
  C   C38       1.0  0.29137  0.02946  0.00292  1.0000
  C   C39       1.0  0.37255  0.0003199999999999998  0.9820299999999998  1.0000
  C   C40       1.0  0.43483  0.9362599999999999  0.02738  1.0000
  C   C41       1.0  0.22288  0.09713  0.95692  1.0000
  C   C42       1.0  0.13729  0.10140000000000003  0.9604399999999998  1.0000
  C   C43       1.0  0.07428  0.1654  0.9158  1.0000
  C   C44       1.0  0.1737  0.22178999999999993  0.86541  1.0000
  C   C45       1.0  0.24034  0.15947  0.90791  1.0000
  C   C46       1.0  0.33669  0.17345000000000002  0.7588999999999999  1.0000
  C   C47       1.0  0.20048  0.82716  0.14115  1.0000
  C   C48       1.0  0.95012  0.98474  0.35768  1.0000
  C   C49       1.0  0.9544900000000001  0.02421999999999999  0.40688  1.0000
  C   C50       1.0  0.9977699999999998  0.9804700000000001  0.47297  1.0000
  C   C51       1.0  0.0364999999999999  0.8965600000000002  0.48351  1.0000
  C   C52       1.0  0.029409999999999974  0.8616  0.43159999999999993  1.0000
  C   C53       1.0  0.7344099999999999  0.34637000000000007  0.66731  1.0000
  C   C54       1.0  0.76055  0.3896  0.60928  1.0000
  C   C55       1.0  0.70615  0.46590999999999994  0.57119  1.0000
  C   C56       1.0  0.62616  0.49425  0.59443  1.0000
  C   C57       1.0  0.6050299999999998  0.44731  0.65319  1.0000
  C   C58       1.0  0.73343  0.51506  0.51125  1.0000
  C   C59       1.0  0.8196600000000003  0.50883  0.5083  1.0000
  C   C60       1.0  0.84308  0.5586  0.45289  1.0000
  C   C61       1.0  0.70441  0.61794  0.40195  1.0000
  C   C62       1.0  0.67551  0.57073  0.45586  1.0000
  C   C63       1.0  0.642  0.22979000000000002  0.97317  1.0000
  C   C64       1.0  0.70393  0.16453  0.01779  1.0000
  C   C65       1.0  0.68711  0.13309  0.0853  1.0000
  C   C66       1.0  0.60704  0.17124  0.10411  1.0000
  C   C67       1.0  0.5487899999999999  0.23625  0.056499999999999995  1.0000
  C   C68       1.0  0.74929  0.06277  0.13443  1.0000
  C   C69       1.0  0.83714  0.0411  0.12853  1.0000
  C   C70       1.0  0.8930200000000001  0.97508  0.17725999999999997  1.0000
  C   C71       1.0  0.7823099999999998  0.9489600000000001  0.23641999999999996  1.0000
  C   C72       1.0  0.72272  0.013799999999999998  0.18976  1.0000
  C   C73       1.0  0.3085100000000001  0.43717000000000006  0.9545899999999999  1.0000
  C   C74       1.0  0.24978999999999996  0.47779000000000005  0.99127  1.0000
  C   C75       1.0  0.27679  0.50499  0.0441  1.0000
  C   C76       1.0  0.36513000000000007  0.48933  0.05572  1.0000
  C   C77       1.0  0.4200400000000001  0.44746  0.01708  1.0000
  C   C78       1.0  0.2154  0.5464  0.08455  1.0000
  C   C79       1.0  0.13602  0.53389  0.09203  1.0000
  C   C80       1.0  0.07857  0.57415  0.12977  1.0000
  C   C81       1.0  0.17067  0.63846  0.1545  1.0000
  C   C82       1.0  0.23178000000000007  0.6000899999999999  0.11784  1.0000
  C   C83       1.0  0.65662  0.07223999999999997  0.88816  1.0000
  C   C84       1.0  0.72248  0.00900999999999998  0.93057  1.0000
  C   C85       1.0  0.7086300000000001  0.97054  0.9970799999999999  1.0000
  C   C86       1.0  0.62745  0.99968  0.01797  1.0000
  C   C87       1.0  0.56517  0.06374000000000002  0.9726199999999999  1.0000
  C   C88       1.0  0.7771199999999999  0.90287  0.04308  1.0000
  C   C89       1.0  0.86271  0.8986  0.03956  1.0000
  C   C90       1.0  0.9257200000000001  0.8346  0.0842  1.0000
  C   C91       1.0  0.8263000000000001  0.7782  0.13459  1.0000
  C   C92       1.0  0.7596700000000001  0.84053  0.09208  1.0000
  C   C93       1.0  0.66332  0.82655  0.24109  1.0000
  C   C94       1.0  0.79952  0.17283999999999997  0.85884  1.0000
  S   S1        1.0  0.9435400000000002  0.24171  0.73255  1.0000
  S   S2        1.0  0.10808999999999999  0.24173  0.61379  1.0000
  S   S3        1.0  0.06151999999999999  0.38711  0.71678  1.0000
  S   S4        1.0  0.4595800000000001  0.5979  0.17445  1.0000
  S   S5        1.0  0.46423999999999993  0.75291  0.26066  1.0000
  S   S6        1.0  0.6086399999999998  0.7142  0.12845  1.0000
  S   S7        1.0  0.41949  0.09817999999999999  0.80238  1.0000
  S   S8        1.0  0.11678  0.89712  0.09514  1.0000
  S   S9        1.0  0.056459999999999975  0.75829  0.26745  1.0000
  S   S10       1.0  0.8919200000000002  0.75827  0.38621  1.0000
  S   S11       1.0  0.93848  0.61289  0.28322  1.0000
  S   S12       1.0  0.54042  0.4021  0.82555  1.0000
  S   S13       1.0  0.53576  0.24708999999999995  0.73934  1.0000
  S   S14       1.0  0.39136  0.2857999999999999  0.8715500000000002  1.0000
  S   S15       1.0  0.5805100000000001  0.9018099999999999  0.19761  1.0000
  S   S16       1.0  0.88322  0.10287999999999997  0.90486  1.0000
  N   N1        1.0  0.013989999999999999  0.09603  0.6311  1.0000
  N   N2        1.0  0.3418900000000001  0.62586  0.31015  1.0000
  N   N3        1.0  0.21304999999999996  0.3867400000000001  0.59964  1.0000
  N   N4        1.0  0.43495000000000017  0.73425  0.00854  1.0000
  N   N5        1.0  0.13322  0.07026000000000002  0.7686  1.0000
  N   N6        1.0  0.60651  0.57916  0.03318  1.0000
  N   N7        1.0  0.90583  0.37318  0.83933  1.0000
  N   N8        1.0  0.4216  0.90053  0.09188  1.0000
  N   N9        1.0  0.09164999999999997  0.22515000000000004  0.8686499999999999  1.0000
  N   N10       1.0  0.27665  0.22753000000000004  0.72817  1.0000
  N   N11       1.0  0.26215  0.77572  0.17374999999999996  1.0000
  N   N12       1.0  0.98601  0.90397  0.3689  1.0000
  N   N13       1.0  0.65811  0.37414000000000003  0.68984  1.0000
  N   N14       1.0  0.7869500000000001  0.61326  0.40034999999999993  1.0000
  N   N15       1.0  0.56505  0.26574999999999993  0.9914600000000001  1.0000
  N   N16       1.0  0.8667899999999998  0.9297400000000001  0.2314  1.0000
  N   N17       1.0  0.39349  0.42084  0.96682  1.0000
  N   N18       1.0  0.09417000000000002  0.62682  0.16066  1.0000
  N   N19       1.0  0.5784  0.09947000000000006  0.9081199999999999  1.0000
  N   N20       1.0  0.90836  0.77485  0.13135  1.0000
  N   N21       1.0  0.72334  0.77247  0.27184  1.0000
  N   N22       1.0  0.73785  0.22428000000000006  0.8262399999999999  1.0000
