data_image0
_chemical_formula_structural       Co8H48C74O44
_chemical_formula_sum              "Co8 H48 C74 O44"
_cell_length_a       11.75782
_cell_length_b       20.01537
_cell_length_c       20.00421
_cell_angle_alpha    89.99184999999999
_cell_angle_beta     89.95138
_cell_angle_gamma    89.93971

_symmetry_space_group_name_H-M    'P 1'
_symmetry_Int_Tables_number       1

loop_
  _symmetry_equiv_pos_as_xyz
  'x,y,z'

loop_
  _atom_site_type_symbol
  _atom_site_label
  _atom_site_symmetry_multiplicity
  _atom_site_fract_x
  _atom_site_fract_y
  _atom_site_fract_z
  _atom_site_occupancy
  Co  Co1       1.0  0.51322  0.263  0.76549  1.0000
  Co  Co2       1.0  0.45847  0.35498  0.8557300000000001  1.0000
  Co  Co3       1.0  0.51349  0.737  0.23480999999999996  1.0000
  Co  Co4       1.0  0.45847  0.64522  0.1443  1.0000
  Co  Co5       1.0  0.48752  0.76428  0.73686  1.0000
  Co  Co6       1.0  0.5414  0.85546  0.64477  1.0000
  Co  Co7       1.0  0.48639  0.23468  0.26262  1.0000
  Co  Co8       1.0  0.54127  0.14429  0.35439  1.0000
  H   H1        1.0  0.32212  0.31998  0.74597  1.0000
  H   H2        1.0  0.7523600000000003  0.16119  0.89386  1.0000
  H   H3        1.0  0.78984  0.11728  0.10442999999999998  1.0000
  H   H4        1.0  0.54601  0.26319  0.04081  1.0000
  H   H5        1.0  0.9759600000000003  0.09102  0.05826  1.0000
  H   H6        1.0  0.86506  0.03033  0.0659  1.0000
  H   H7        1.0  0.32221000000000005  0.68005  0.25428  1.0000
  H   H8        1.0  0.7521600000000002  0.83887  0.10596000000000001  1.0000
  H   H9        1.0  0.7902900000000003  0.88275  0.8954099999999999  1.0000
  H   H10       1.0  0.5468100000000001  0.73676  0.9589800000000002  1.0000
  H   H11       1.0  0.97589  0.90881  0.9411799999999999  1.0000
  H   H12       1.0  0.86512  0.96977  0.9337199999999999  1.0000
  H   H13       1.0  0.67633  0.74942  0.68085  1.0000
  H   H14       1.0  0.249  0.89416  0.8388799999999998  1.0000
  H   H15       1.0  0.21022  0.10461  0.8826000000000002  1.0000
  H   H16       1.0  0.4539  0.04127  0.73643  1.0000
  H   H17       1.0  0.024550000000000002  0.058399999999999994  0.9087499999999998  1.0000
  H   H18       1.0  0.13511  0.06583  0.96968  1.0000
  H   H19       1.0  0.6777800000000002  0.25444  0.31999  1.0000
  H   H20       1.0  0.24742000000000003  0.10558000000000001  0.16067  1.0000
  H   H21       1.0  0.21051  0.8950099999999999  0.11743000000000002  1.0000
  H   H22       1.0  0.45413  0.95932  0.263  1.0000
  H   H23       1.0  0.023870000000000002  0.94107  0.09091  1.0000
  H   H24       1.0  0.13484  0.9334799999999999  0.03007  1.0000
  H   H25       1.0  0.6745600000000002  0.18037  0.25574  1.0000
  H   H26       1.0  0.25024  0.34073  0.39374  1.0000
  H   H27       1.0  0.20978000000000002  0.38317  0.60429  1.0000
  H   H28       1.0  0.4527400000000001  0.23633  0.54075  1.0000
  H   H29       1.0  0.024090000000000004  0.40845  0.55768  1.0000
  H   H30       1.0  0.13368  0.4698  0.56665  1.0000
  H   H31       1.0  0.67537  0.82028  0.74663  1.0000
  H   H32       1.0  0.24942  0.65941  0.60643  1.0000
  H   H33       1.0  0.20996  0.61694  0.39586  1.0000
  H   H34       1.0  0.45234  0.76361  0.45953  1.0000
  H   H35       1.0  0.024200000000000003  0.59167  0.44222  1.0000
  H   H36       1.0  0.13399  0.53027  0.43331  1.0000
  H   H37       1.0  0.32567000000000007  0.74423  0.18025  1.0000
  H   H38       1.0  0.7494600000000002  0.60616  0.34079  1.0000
  H   H39       1.0  0.78986  0.39575  0.38314  1.0000
  H   H40       1.0  0.54727  0.45936  0.23625999999999997  1.0000
  H   H41       1.0  0.97571  0.44245000000000007  0.40819  1.0000
  H   H42       1.0  0.86636  0.43332999999999994  0.46981  1.0000
  H   H43       1.0  0.32518  0.25593  0.8201699999999998  1.0000
  H   H44       1.0  0.7498900000000002  0.39375  0.65934  1.0000
  H   H45       1.0  0.79006  0.60426  0.61693  1.0000
  H   H46       1.0  0.54712  0.54071  0.76368  1.0000
  H   H47       1.0  0.9756400000000001  0.55771  0.59164  1.0000
  H   H48       1.0  0.86594  0.56666  0.53031  1.0000
  C   C1        1.0  0.59142  0.25629  0.90753  1.0000
  C   C2        1.0  0.64488  0.21646  0.9618  1.0000
  C   C3        1.0  0.7283600000000001  0.16909  0.94573  1.0000
  C   C4        1.0  0.7814100000000002  0.13261  0.9967799999999999  1.0000
  C   C5        1.0  0.75018  0.14352  0.06313  1.0000
  C   C6        1.0  0.66434  0.18973  0.07888  1.0000
  C   C7        1.0  0.6114000000000002  0.22677  0.02864  1.0000
  C   C8        1.0  0.63542  0.1967  0.15144  1.0000
  C   C9        1.0  0.9245500000000002  0.054290000000000005  0.03091  1.0000
  C   C10       1.0  0.5914000000000001  0.74384  0.09238  1.0000
  C   C11       1.0  0.6450200000000001  0.78361  0.03807  1.0000
  C   C12       1.0  0.72835  0.8309900000000001  0.05407  1.0000
  C   C13       1.0  0.78138  0.86741  0.00292  1.0000
  C   C14       1.0  0.75046  0.85638  0.9365600000000001  1.0000
  C   C15       1.0  0.6651200000000002  0.80993  0.92092  1.0000
  C   C16       1.0  0.61203  0.77311  0.97124  1.0000
  C   C17       1.0  0.6362  0.8021200000000002  0.8485899999999998  1.0000
  C   C18       1.0  0.9245300000000002  0.94561  0.9686099999999999  1.0000
  C   C19       1.0  0.4101000000000001  0.90782  0.74414  1.0000
  C   C20       1.0  0.35578000000000004  0.96218  0.7834  1.0000
  C   C21       1.0  0.27248  0.9460299999999999  0.83085  1.0000
  C   C22       1.0  0.21902  0.99699  0.86726  1.0000
  C   C23       1.0  0.25003000000000003  0.06333  0.8563799999999999  1.0000
  C   C24       1.0  0.33568  0.07912  0.81005  1.0000
  C   C25       1.0  0.3886  0.02898  0.77284  1.0000
  C   C26       1.0  0.36476  0.15163  0.80336  1.0000
  C   C27       1.0  0.07572  0.03095  0.94557  1.0000
  C   C28       1.0  0.40901  0.09254  0.25478  1.0000
  C   C29       1.0  0.35509  0.0379  0.21587000000000003  1.0000
  C   C30       1.0  0.27137  0.05375  0.16868  1.0000
  C   C31       1.0  0.21846  0.00254  0.13251  1.0000
  C   C32       1.0  0.25001  0.93634  0.14357  1.0000
  C   C33       1.0  0.33587  0.92083  0.18978  1.0000
  C   C34       1.0  0.38867  0.9712  0.22658  1.0000
  C   C35       1.0  0.36500000000000005  0.84837  0.19673  1.0000
  C   C36       1.0  0.07537  0.96842  0.05417999999999999  1.0000
  C   C37       1.0  0.40954  0.24458999999999997  0.40664000000000006  1.0000
  C   C38       1.0  0.35611  0.28423  0.46145  1.0000
  C   C39       1.0  0.27352000000000004  0.33224  0.4456399999999999  1.0000
  C   C40       1.0  0.2198  0.36824  0.4969  1.0000
  C   C41       1.0  0.24989  0.35662  0.56334  1.0000
  C   C42       1.0  0.3349  0.30976  0.57875  1.0000
  C   C43       1.0  0.3881100000000001  0.27305  0.52828  1.0000
  C   C44       1.0  0.36500000000000005  0.30053  0.6505  1.0000
  C   C45       1.0  0.07541  0.4457900000000001  0.53109  1.0000
  C   C46       1.0  0.4094900000000001  0.75494  0.59337  1.0000
  C   C47       1.0  0.3553400000000001  0.71573  0.53868  1.0000
  C   C48       1.0  0.27268  0.66786  0.5545  1.0000
  C   C49       1.0  0.2193  0.63185  0.50321  1.0000
  C   C50       1.0  0.24982000000000001  0.64344  0.43683  1.0000
  C   C51       1.0  0.33474  0.69029  0.42144999999999994  1.0000
  C   C52       1.0  0.38760000000000006  0.72698  0.47189999999999993  1.0000
  C   C53       1.0  0.36501000000000006  0.69946  0.34974  1.0000
  C   C54       1.0  0.07543000000000001  0.55427  0.46883  1.0000
  C   C55       1.0  0.5903500000000002  0.59329  0.24467  1.0000
  C   C56       1.0  0.64384  0.53853  0.28421  1.0000
  C   C57       1.0  0.72622  0.5543  0.33227  1.0000
  C   C58       1.0  0.7799  0.50307  0.36827  1.0000
  C   C59       1.0  0.7498  0.43671  0.35662  1.0000
  C   C60       1.0  0.66488  0.42138000000000003  0.30974  1.0000
  C   C61       1.0  0.6118  0.47179000000000004  0.273  1.0000
  C   C62       1.0  0.6348600000000001  0.34972  0.30051  1.0000
  C   C63       1.0  0.92445  0.46894  0.4457  1.0000
  C   C64       1.0  0.59034  0.4068  0.75533  1.0000
  C   C65       1.0  0.64392  0.4615699999999999  0.71579  1.0000
  C   C66       1.0  0.72656  0.44564999999999994  0.66779  1.0000
  C   C67       1.0  0.7802100000000001  0.49688  0.63184  1.0000
  C   C68       1.0  0.75004  0.56331  0.64344  1.0000
  C   C69       1.0  0.66507  0.57893  0.69026  1.0000
  C   C70       1.0  0.61189  0.52842  0.72694  1.0000
  C   C71       1.0  0.63541  0.65098  0.69922  1.0000
  C   C72       1.0  0.92442  0.53113  0.55427  1.0000
  C   C73       1.0  2.9999999999999533e-05  0.9998200000000002  0.99984  1.0000
  C   C74       1.0  0.99993  0.50005  0.49992999999999993  1.0000
  O   O1        1.0  0.61181  0.24188  0.84652  1.0000
  O   O2        1.0  0.5256700000000001  0.30489  0.9260100000000001  1.0000
  O   O3        1.0  0.5458000000000001  0.22934999999999997  0.16818  1.0000
  O   O4        1.0  0.7035  0.16804  0.19208  1.0000
  O   O5        1.0  0.8629400000000002  0.08719  0.97763  1.0000
  O   O6        1.0  0.61181  0.75818  0.15334  1.0000
  O   O7        1.0  0.5256  0.69534  0.07396  1.0000
  O   O8        1.0  0.54896  0.76782  0.83179  1.0000
  O   O9        1.0  0.7032300000000001  0.8320000000000001  0.80782  1.0000
  O   O10       1.0  0.86281  0.91279  0.02185  1.0000
  O   O11       1.0  0.39421  0.84711  0.7611  1.0000
  O   O12       1.0  0.47164  0.92586  0.69352  1.0000
  O   O13       1.0  0.45473  0.16832  0.77096  1.0000
  O   O14       1.0  0.29645  0.19213  0.83204  1.0000
  O   O15       1.0  0.13751000000000002  0.9777699999999999  0.91267  1.0000
  O   O16       1.0  0.3889300000000001  0.15328  0.23934  1.0000
  O   O17       1.0  0.4746200000000001  0.07438  0.30353  1.0000
  O   O18       1.0  0.45484  0.8316499999999999  0.22918000000000002  1.0000
  O   O19       1.0  0.29684  0.8078299999999999  0.16812  1.0000
  O   O20       1.0  0.13695  0.0214  0.08714  1.0000
  O   O21       1.0  0.39458000000000004  0.26255  0.34623  1.0000
  O   O22       1.0  0.46886  0.19297  0.42440000000000005  1.0000
  O   O23       1.0  0.4510800000000001  0.26642  0.6672  1.0000
  O   O24       1.0  0.29672  0.33042  0.69216  1.0000
  O   O25       1.0  0.13858  0.41392  0.47795999999999994  1.0000
  O   O26       1.0  0.3948500000000001  0.73707  0.65386  1.0000
  O   O27       1.0  0.4690900000000001  0.8062399999999998  0.57545  1.0000
  O   O28       1.0  0.45109000000000005  0.73351  0.33293  1.0000
  O   O29       1.0  0.29674000000000006  0.66958  0.30829  1.0000
  O   O30       1.0  0.13825  0.58608  0.52204  1.0000
  O   O31       1.0  0.60529  0.65365  0.26263  1.0000
  O   O32       1.0  0.53109  0.57554  0.19308  1.0000
  O   O33       1.0  0.54887  0.3329  0.26645  1.0000
  O   O34       1.0  0.7033  0.30828  0.33046  1.0000
  O   O35       1.0  0.861  0.52202  0.41395999999999994  1.0000
  O   O36       1.0  0.60517  0.3464  0.73736  1.0000
  O   O37       1.0  0.5310500000000001  0.42454  0.8070199999999998  1.0000
  O   O38       1.0  0.54852  0.66716  0.73339  1.0000
  O   O39       1.0  0.7028400000000001  0.69281  0.66973  1.0000
  O   O40       1.0  0.86156  0.47795999999999994  0.58611  1.0000
  O   O41       1.0  0.36012000000000005  0.30388  0.8035599999999999  1.0000
  O   O42       1.0  0.3604200000000001  0.69619  0.19715  1.0000
  O   O43       1.0  0.64033  0.80407  0.69659  1.0000
  O   O44       1.0  0.63944  0.1973  0.30372  1.0000
