data_image0
_chemical_formula_structural       Ni8H64C96N16O36
_chemical_formula_sum              "Ni8 H64 C96 N16 O36"
_cell_length_a       10.46721
_cell_length_b       13.84021
_cell_length_c       19.17715
_cell_angle_alpha    89.88441
_cell_angle_beta     89.86020999999998
_cell_angle_gamma    103.97588

_symmetry_space_group_name_H-M    'P 1'
_symmetry_Int_Tables_number       1

loop_
  _symmetry_equiv_pos_as_xyz
  'x,y,z'

loop_
  _atom_site_type_symbol
  _atom_site_label
  _atom_site_symmetry_multiplicity
  _atom_site_fract_x
  _atom_site_fract_y
  _atom_site_fract_z
  _atom_site_occupancy
  Ni  Ni1       1.0  0.75286  0.21609  0.96361  1.0000
  Ni  Ni2       1.0  0.60322  0.35482  0.8843499999999999  1.0000
  Ni  Ni3       1.0  0.25376  0.28831  0.4680099999999999  1.0000
  Ni  Ni4       1.0  0.39692  0.14542  0.38673  1.0000
  Ni  Ni5       1.0  0.24715000000000006  0.7839100000000002  0.03639  1.0000
  Ni  Ni6       1.0  0.39678  0.6451800000000001  0.11565  1.0000
  Ni  Ni7       1.0  0.74623  0.71169  0.53199  1.0000
  Ni  Ni8       1.0  0.60308  0.85458  0.61327  1.0000
  H   H1        1.0  0.67545  0.90627  0.9169000000000002  1.0000
  H   H2        1.0  0.59282  0.73412  0.86601  1.0000
  H   H3        1.0  0.57532  0.7164900000000002  0.73617  1.0000
  H   H4        1.0  0.70616  0.0216  0.70762  1.0000
  H   H5        1.0  0.10467000000000001  0.94519  0.79599  1.0000
  H   H6        1.0  0.09156  0.81283  0.88687  1.0000
  H   H7        1.0  0.39664  0.98958  0.99874  1.0000
  H   H8        1.0  0.28211  0.10451  0.80616  1.0000
  H   H9        1.0  0.85544  0.46582  0.1218  1.0000
  H   H10       1.0  0.86136  0.62138  0.18899  1.0000
  H   H11       1.0  0.6605900000000001  0.6910300000000001  0.19096  1.0000
  H   H12       1.0  0.4625  0.47247  0.05768  1.0000
  H   H13       1.0  0.32108  0.34279  0.03612  1.0000
  H   H14       1.0  0.23742  0.18670000000000006  0.96804  1.0000
  H   H15       1.0  0.99783  0.13849  0.9339699999999999  1.0000
  H   H16       1.0  0.9326200000000001  0.39387  0.0238  1.0000
  H   H17       1.0  0.32163  0.59276  0.41903  1.0000
  H   H18       1.0  0.40191  0.76496  0.36781  1.0000
  H   H19       1.0  0.42378000000000005  0.7830400000000002  0.23789  1.0000
  H   H20       1.0  0.30087  0.4775200000000001  0.2102  1.0000
  H   H21       1.0  0.8944100000000001  0.56248  0.29889  1.0000
  H   H22       1.0  0.90051  0.69324  0.38954  1.0000
  H   H23       1.0  0.5994900000000001  0.50949  0.50118  1.0000
  H   H24       1.0  0.72056  0.40066000000000007  0.30815  1.0000
  H   H25       1.0  0.14488  0.03624  0.62214  1.0000
  H   H26       1.0  0.1373900000000001  0.8793300000000002  0.68813  1.0000
  H   H27       1.0  0.33763999999999994  0.80922  0.68987  1.0000
  H   H28       1.0  0.53838  0.030100000000000002  0.55795  1.0000
  H   H29       1.0  0.68322  0.15741  0.53188  1.0000
  H   H30       1.0  0.77104  0.31536  0.46568  1.0000
  H   H31       1.0  0.012839999999999999  0.36507  0.43582  1.0000
  H   H32       1.0  0.07319  0.10781000000000002  0.52551  1.0000
  H   H33       1.0  0.32455  0.09373  0.0831  1.0000
  H   H34       1.0  0.40717  0.26588  0.13399  1.0000
  H   H35       1.0  0.42468000000000006  0.28351  0.26383  1.0000
  H   H36       1.0  0.29384000000000005  0.9784000000000003  0.29238  1.0000
  H   H37       1.0  0.89533  0.05481  0.20402  1.0000
  H   H38       1.0  0.9084400000000001  0.18717000000000003  0.11313  1.0000
  H   H39       1.0  0.60336  0.010420000000000002  0.00126  1.0000
  H   H40       1.0  0.71788  0.89549  0.19384  1.0000
  H   H41       1.0  0.14455  0.53418  0.8781999999999999  1.0000
  H   H42       1.0  0.13864  0.37862  0.8110099999999999  1.0000
  H   H43       1.0  0.33940000000000003  0.3089700000000001  0.80904  1.0000
  H   H44       1.0  0.5375  0.52753  0.94232  1.0000
  H   H45       1.0  0.6789100000000001  0.6572100000000001  0.96388  1.0000
  H   H46       1.0  0.76258  0.8133  0.03196  1.0000
  H   H47       1.0  0.0021700000000000226  0.86151  0.06604  1.0000
  H   H48       1.0  0.06737000000000004  0.6061300000000001  0.9762099999999999  1.0000
  H   H49       1.0  0.6783700000000001  0.40724  0.58097  1.0000
  H   H50       1.0  0.59809  0.23503  0.63219  1.0000
  H   H51       1.0  0.57622  0.21696000000000001  0.7621099999999998  1.0000
  H   H52       1.0  0.69913  0.52248  0.7897999999999998  1.0000
  H   H53       1.0  0.10558  0.43752  0.70111  1.0000
  H   H54       1.0  0.09949  0.30676  0.61047  1.0000
  H   H55       1.0  0.40051000000000003  0.49051  0.49881999999999993  1.0000
  H   H56       1.0  0.27944000000000013  0.5993400000000002  0.69185  1.0000
  H   H57       1.0  0.85512  0.96376  0.37786  1.0000
  H   H58       1.0  0.8626100000000001  0.12067  0.31187  1.0000
  H   H59       1.0  0.66236  0.19078  0.31013  1.0000
  H   H60       1.0  0.46161  0.96989  0.44204999999999994  1.0000
  H   H61       1.0  0.31677  0.84259  0.46812  1.0000
  H   H62       1.0  0.22896  0.68464  0.53432  1.0000
  H   H63       1.0  0.98716  0.63493  0.56418  1.0000
  H   H64       1.0  0.9268100000000001  0.8921900000000003  0.47448999999999997  1.0000
  C   C1        1.0  0.74351  0.08310000000000001  0.84081  1.0000
  C   C2        1.0  0.69898  0.97653  0.8157199999999999  1.0000
  C   C3        1.0  0.6659600000000001  0.89463  0.86089  1.0000
  C   C4        1.0  0.61989  0.7997600000000001  0.83281  1.0000
  C   C5        1.0  0.6076100000000001  0.7887600000000002  0.76076  1.0000
  C   C6        1.0  0.68298  0.95975  0.7442  1.0000
  C   C7        1.0  0.17294  0.95757  0.8395499999999999  1.0000
  C   C8        1.0  0.16415000000000007  0.8837900000000001  0.89042  1.0000
  C   C9        1.0  0.3355700000000001  0.9821300000000002  0.95258  1.0000
  C   C10       1.0  0.27014  0.04612  0.84548  1.0000
  C   C11       1.0  0.35425  0.05874999999999999  0.90316  1.0000
  C   C12       1.0  0.46493000000000007  0.14959  0.91426  1.0000
  C   C13       1.0  0.64575  0.36781  0.03718  1.0000
  C   C14       1.0  0.65524  0.45429  0.08609  1.0000
  C   C15       1.0  0.7690299999999999  0.4965800000000001  0.12411  1.0000
  C   C16       1.0  0.7724200000000001  0.58346  0.1617  1.0000
  C   C17       1.0  0.6624700000000001  0.6236  0.16249  1.0000
  C   C18       1.0  0.55092  0.50062  0.0878  1.0000
  C   C19       1.0  0.16517  0.47477  0.07991  1.0000
  C   C20       1.0  0.13113  0.37976  0.03719  1.0000
  C   C21       1.0  0.2184  0.32109000000000004  0.02039  1.0000
  C   C22       1.0  0.17223  0.23397  0.9820599999999999  1.0000
  C   C23       1.0  0.04051  0.20679  0.96215  1.0000
  C   C24       1.0  0.0020700000000000197  0.34923000000000004  0.01301  1.0000
  C   C25       1.0  0.25918  0.41492  0.34261  1.0000
  C   C26       1.0  0.30351000000000006  0.5221500000000001  0.31814  1.0000
  C   C27       1.0  0.33317  0.6041500000000001  0.36301  1.0000
  C   C28       1.0  0.37802  0.69932  0.33476  1.0000
  C   C29       1.0  0.39263000000000003  0.7106500000000001  0.26276  1.0000
  C   C30       1.0  0.32176  0.5393  0.24665  1.0000
  C   C31       1.0  0.825  0.54836  0.34217  1.0000
  C   C32       1.0  0.83023  0.62127  0.39304  1.0000
  C   C33       1.0  0.66063  0.51906  0.45488  1.0000
  C   C34       1.0  0.73  0.45848  0.34754  1.0000
  C   C35       1.0  0.64466  0.44366  0.40499  1.0000
  C   C36       1.0  0.53511  0.35133  0.41489  1.0000
  C   C37       1.0  0.35862000000000005  0.13638000000000003  0.5384  1.0000
  C   C38       1.0  0.34579  0.04863  0.5867  1.0000
  C   C39       1.0  0.23131  0.005579999999999999  0.62429  1.0000
  C   C40       1.0  0.22692000000000004  0.91775  0.66123  1.0000
  C   C41       1.0  0.33653000000000005  0.8772800000000001  0.66176  1.0000
  C   C42       1.0  0.44956  0.00161  0.58798  1.0000
  C   C43       1.0  0.83641  0.02527  0.57801  1.0000
  C   C44       1.0  0.8735200000000001  0.12105  0.53581  1.0000
  C   C45       1.0  0.78701  0.17984000000000003  0.51794  1.0000
  C   C46       1.0  0.83557  0.26805  0.48076  1.0000
  C   C47       1.0  0.9685800000000002  0.29601000000000005  0.46305999999999997  1.0000
  C   C48       1.0  0.0042699999999999995  0.15255  0.51385  1.0000
  C   C49       1.0  0.25648000000000004  0.9169  0.15919  1.0000
  C   C50       1.0  0.30101  0.023470000000000005  0.18428  1.0000
  C   C51       1.0  0.33404000000000006  0.10537000000000003  0.13912  1.0000
  C   C52       1.0  0.38011  0.20024  0.16719  1.0000
  C   C53       1.0  0.39239  0.21124  0.23924000000000004  1.0000
  C   C54       1.0  0.31701  0.04025000000000001  0.25581  1.0000
  C   C55       1.0  0.8270500000000001  0.04242000000000001  0.16045  1.0000
  C   C56       1.0  0.83584  0.11621  0.10958  1.0000
  C   C57       1.0  0.66443  0.01787  0.04742  1.0000
  C   C58       1.0  0.7298500000000001  0.95387  0.15452  1.0000
  C   C59       1.0  0.64575  0.94125  0.09684  1.0000
  C   C60       1.0  0.5350700000000002  0.8504000000000003  0.08575  1.0000
  C   C61       1.0  0.35425000000000006  0.63218  0.9628199999999999  1.0000
  C   C62       1.0  0.34476  0.54571  0.9139099999999999  1.0000
  C   C63       1.0  0.23097  0.50342  0.87589  1.0000
  C   C64       1.0  0.22758  0.41654  0.8383  1.0000
  C   C65       1.0  0.33753000000000005  0.3764000000000001  0.83751  1.0000
  C   C66       1.0  0.44908000000000003  0.49938  0.9122  1.0000
  C   C67       1.0  0.83483  0.52523  0.9200899999999999  1.0000
  C   C68       1.0  0.8688600000000002  0.6202400000000002  0.9628100000000002  1.0000
  C   C69       1.0  0.7815999999999999  0.6789100000000002  0.97961  1.0000
  C   C70       1.0  0.82776  0.76603  0.01794  1.0000
  C   C71       1.0  0.9594800000000001  0.79321  0.03785  1.0000
  C   C72       1.0  0.9979200000000003  0.6507700000000002  0.9869899999999999  1.0000
  C   C73       1.0  0.74082  0.58508  0.65739  1.0000
  C   C74       1.0  0.69648  0.47785  0.6818599999999999  1.0000
  C   C75       1.0  0.66683  0.39585  0.63699  1.0000
  C   C76       1.0  0.62198  0.30068  0.66524  1.0000
  C   C77       1.0  0.60737  0.28935000000000005  0.73724  1.0000
  C   C78       1.0  0.67824  0.4607  0.75335  1.0000
  C   C79       1.0  0.175  0.45164  0.65783  1.0000
  C   C80       1.0  0.16977000000000006  0.3787300000000001  0.60696  1.0000
  C   C81       1.0  0.33937  0.48094  0.54512  1.0000
  C   C82       1.0  0.27  0.54152  0.65246  1.0000
  C   C83       1.0  0.35534  0.55634  0.59501  1.0000
  C   C84       1.0  0.4648900000000001  0.64867  0.58511  1.0000
  C   C85       1.0  0.64137  0.86362  0.4616  1.0000
  C   C86       1.0  0.6542000000000002  0.9513700000000003  0.4133  1.0000
  C   C87       1.0  0.76869  0.99442  0.37571  1.0000
  C   C88       1.0  0.77308  0.08225  0.33877  1.0000
  C   C89       1.0  0.66346  0.12272  0.33824  1.0000
  C   C90       1.0  0.55044  0.9983900000000001  0.41202  1.0000
  C   C91       1.0  0.1635900000000001  0.9747300000000002  0.422  1.0000
  C   C92       1.0  0.12647000000000005  0.8789500000000002  0.46418999999999994  1.0000
  C   C93       1.0  0.21298000000000003  0.82016  0.48206  1.0000
  C   C94       1.0  0.16443000000000002  0.73195  0.51924  1.0000
  C   C95       1.0  0.031410000000000084  0.7039900000000002  0.53695  1.0000
  C   C96       1.0  0.99573  0.84745  0.48615  1.0000
  N   N1        1.0  0.63759  0.86812  0.7175  1.0000
  N   N2        1.0  0.24409000000000008  0.8961100000000002  0.94627  1.0000
  N   N3        1.0  0.55297  0.58225  0.12589  1.0000
  N   N4        1.0  0.9569100000000001  0.26429  0.97761  1.0000
  N   N5        1.0  0.3658600000000001  0.63117  0.21987999999999996  1.0000
  N   N6        1.0  0.7496100000000001  0.6066500000000002  0.4490100000000001  1.0000
  N   N7        1.0  0.44663  0.9190200000000002  0.62536  1.0000
  N   N8        1.0  0.05175  0.23859  0.4796500000000001  1.0000
  N   N9        1.0  0.36241  0.13188  0.2825  1.0000
  N   N10       1.0  0.75591  0.10388  0.05374  1.0000
  N   N11       1.0  0.44703  0.4177500000000001  0.8741099999999999  1.0000
  N   N12       1.0  0.043089999999999996  0.73571  0.0224  1.0000
  N   N13       1.0  0.63414  0.36883  0.78012  1.0000
  N   N14       1.0  0.25039  0.39335  0.55099  1.0000
  N   N15       1.0  0.55336  0.08098  0.37464  1.0000
  N   N16       1.0  0.94825  0.7614100000000001  0.5203499999999999  1.0000
  O   O1        1.0  0.7681  0.09071000000000003  0.90707  1.0000
  O   O2        1.0  0.75051  0.15171000000000007  0.79787  1.0000
  O   O3        1.0  0.54099  0.14681999999999998  0.96483  1.0000
  O   O4        1.0  0.4708700000000001  0.22154000000000004  0.8712199999999999  1.0000
  O   O5        1.0  0.55658  0.35656  0.99063  1.0000
  O   O6        1.0  0.72948  0.31585  0.04518  1.0000
  O   O7        1.0  0.07541000000000003  0.51422  0.09745999999999999  1.0000
  O   O8        1.0  0.28996  0.50482  0.09368  1.0000
  O   O9        1.0  0.74071  0.30039  0.8930599999999999  1.0000
  O   O10       1.0  0.23788  0.40591000000000005  0.40937  1.0000
  O   O11       1.0  0.24907  0.34766  0.29874  1.0000
  O   O12       1.0  0.45678  0.3528200000000001  0.46507  1.0000
  O   O13       1.0  0.5314  0.28052000000000005  0.37172  1.0000
  O   O14       1.0  0.44978000000000007  0.14776000000000006  0.49283  1.0000
  O   O15       1.0  0.27599  0.18982  0.54552  1.0000
  O   O16       1.0  0.92494  0.98572  0.59739  1.0000
  O   O17       1.0  0.7108000000000002  0.9950200000000002  0.58971  1.0000
  O   O18       1.0  0.26156  0.20154  0.39921  1.0000
  O   O19       1.0  0.2319  0.9092800000000001  0.09293  1.0000
  O   O20       1.0  0.24949000000000002  0.8483  0.20213  1.0000
  O   O21       1.0  0.45900000000000013  0.8531700000000002  0.03517  1.0000
  O   O22       1.0  0.52913  0.77846  0.12878  1.0000
  O   O23       1.0  0.44342  0.64344  0.00937  1.0000
  O   O24       1.0  0.27051  0.68415  0.95482  1.0000
  O   O25       1.0  0.92459  0.48577  0.90254  1.0000
  O   O26       1.0  0.7100400000000001  0.4951800000000001  0.9063200000000001  1.0000
  O   O27       1.0  0.2592900000000001  0.6996100000000001  0.10692999999999998  1.0000
  O   O28       1.0  0.7621200000000001  0.5940900000000002  0.59063  1.0000
  O   O29       1.0  0.7509300000000002  0.65234  0.70126  1.0000
  O   O30       1.0  0.54322  0.64718  0.53494  1.0000
  O   O31       1.0  0.46860000000000007  0.71948  0.6282799999999998  1.0000
  O   O32       1.0  0.5502100000000001  0.8522400000000001  0.50717  1.0000
  O   O33       1.0  0.72401  0.81018  0.45448999999999995  1.0000
  O   O34       1.0  0.07505  0.01428  0.40261  1.0000
  O   O35       1.0  0.2892  0.00498  0.41029  1.0000
  O   O36       1.0  0.7384300000000001  0.79846  0.60079  1.0000
