data_image0
_chemical_formula_structural       Cd16H32C48N128
_chemical_formula_sum              "Cd16 H32 C48 N128"
_cell_length_a       9.99153
_cell_length_b       16.35931
_cell_length_c       21.8799
_cell_angle_alpha    114.19906
_cell_angle_beta     89.99953999999998
_cell_angle_gamma    90.00047

_space_group_name_H-M_alt    "P 1"
_space_group_IT_number       1

loop_
  _space_group_symop_operation_xyz
  'x, y, z'

loop_
  _atom_site_type_symbol
  _atom_site_label
  _atom_site_symmetry_multiplicity
  _atom_site_fract_x
  _atom_site_fract_y
  _atom_site_fract_z
  _atom_site_occupancy
  Cd  Cd1       1.0  0.98457  0.89494  0.6415  1.0000
  Cd  Cd2       1.0  0.48859  0.622  0.47924  1.0000
  Cd  Cd3       1.0  0.62468  0.03230999999999996  0.66588  1.0000
  Cd  Cd4       1.0  0.67236  0.25433  0.6367  1.0000
  Cd  Cd5       1.0  0.48456999999999995  0.10505999999999999  0.8585  1.0000
  Cd  Cd6       1.0  0.98858  0.37799  0.02074  1.0000
  Cd  Cd7       1.0  0.12467999999999999  0.96768  0.8341  1.0000
  Cd  Cd8       1.0  0.17236  0.74567  0.8633  1.0000
  Cd  Cd9       1.0  0.01542  0.10504999999999999  0.35849999999999993  1.0000
  Cd  Cd10      1.0  0.51141  0.378  0.52075  1.0000
  Cd  Cd11      1.0  0.37532  0.96769  0.3341199999999999  1.0000
  Cd  Cd12      1.0  0.32764  0.7456599999999999  0.36329999999999996  1.0000
  Cd  Cd13      1.0  0.51542  0.89494  0.14149  1.0000
  Cd  Cd14      1.0  0.01142  0.6220099999999998  0.9792599999999999  1.0000
  Cd  Cd15      1.0  0.8753099999999999  0.03230999999999997  0.16589999999999996  1.0000
  Cd  Cd16      1.0  0.8276399999999999  0.25433  0.1367  1.0000
  H   H1        1.0  0.85231  0.65647  0.47084  1.0000
  H   H2        1.0  0.93464  0.6846799999999998  0.5487699999999999  1.0000
  H   H3        1.0  0.12847  0.5491799999999999  0.6883899999999998  1.0000
  H   H4        1.0  0.95917  0.54853  0.6634  1.0000
  H   H5        1.0  0.20992999999999998  0.95871  0.55577  1.0000
  H   H6        1.0  0.36822  0.9036599999999999  0.54906  1.0000
  H   H7        1.0  0.08469  0.15105000000000005  0.51551  1.0000
  H   H8        1.0  0.05269  0.24595  0.59034  1.0000
  H   H9        1.0  0.35230999999999996  0.34352  0.029149999999999992  1.0000
  H   H10       1.0  0.43462999999999996  0.3153200000000001  0.95122  1.0000
  H   H11       1.0  0.62848  0.45081  0.8116  1.0000
  H   H12       1.0  0.45918  0.45146  0.83659  1.0000
  H   H13       1.0  0.7099399999999999  0.04129000000000005  0.94422  1.0000
  H   H14       1.0  0.86822  0.09633999999999998  0.95093  1.0000
  H   H15       1.0  0.58468  0.84897  0.9844799999999999  1.0000
  H   H16       1.0  0.5527  0.7540599999999998  0.9096599999999999  1.0000
  H   H17       1.0  0.14768999999999996  0.34353  0.52916  1.0000
  H   H18       1.0  0.06536  0.31532  0.45123  1.0000
  H   H19       1.0  0.87153  0.4508199999999999  0.31161  1.0000
  H   H20       1.0  0.04083  0.45147  0.33659999999999995  1.0000
  H   H21       1.0  0.7900699999999999  0.04129000000000002  0.44423  1.0000
  H   H22       1.0  0.63178  0.09633999999999998  0.45093999999999995  1.0000
  H   H23       1.0  0.91531  0.84895  0.48447999999999997  1.0000
  H   H24       1.0  0.9473099999999999  0.75405  0.40965999999999997  1.0000
  H   H25       1.0  0.64769  0.65648  0.97085  1.0000
  H   H26       1.0  0.5653699999999999  0.68468  0.04877999999999998  1.0000
  H   H27       1.0  0.37152  0.54919  0.18839  1.0000
  H   H28       1.0  0.5408199999999999  0.54853  0.1634  1.0000
  H   H29       1.0  0.29006  0.95871  0.05578  1.0000
  H   H30       1.0  0.13177  0.9036599999999998  0.04907  1.0000
  H   H31       1.0  0.41531999999999997  0.15103  0.01551  1.0000
  H   H32       1.0  0.44729  0.24594  0.09033999999999999  1.0000
  C   C1        1.0  0.98537  0.57571  0.76687  1.0000
  C   C2        1.0  0.74341  0.7455  0.55522  1.0000
  C   C3        1.0  0.8372099999999999  0.66821  0.52373  1.0000
  C   C4        1.0  0.79008  0.58369  0.52732  1.0000
  C   C5        1.0  0.04422  0.6778999999999998  0.71072  1.0000
  C   C6        1.0  0.03078  0.58326  0.70386  1.0000
  C   C7        1.0  0.30259  0.9795199999999998  0.6484699999999999  1.0000
  C   C8        1.0  0.31099999999999994  0.9655  0.57652  1.0000
  C   C9        1.0  0.37585  0.04348  0.56932  1.0000
  C   C10       1.0  0.9552799999999999  0.1262499999999999  0.5827399999999999  1.0000
  C   C11       1.0  0.005519999999999999  0.1864599999999999  0.5513999999999999  1.0000
  C   C12       1.0  0.8962  0.21618000000000004  0.51819  1.0000
  C   C13       1.0  0.48535999999999996  0.42428  0.73313  1.0000
  C   C14       1.0  0.24340999999999996  0.2545  0.94477  1.0000
  C   C15       1.0  0.33721  0.33178000000000013  0.97625  1.0000
  C   C16       1.0  0.29007  0.41629999999999995  0.9726699999999999  1.0000
  C   C17       1.0  0.54421  0.3221  0.78927  1.0000
  C   C18       1.0  0.53078  0.4167299999999999  0.79613  1.0000
  C   C19       1.0  0.80259  0.02048000000000004  0.85152  1.0000
  C   C20       1.0  0.81101  0.034510000000000075  0.92347  1.0000
  C   C21       1.0  0.8758599999999999  0.9565299999999999  0.9306699999999999  1.0000
  C   C22       1.0  0.45528  0.8737600000000001  0.9172599999999999  1.0000
  C   C23       1.0  0.50552  0.8135499999999998  0.9485899999999998  1.0000
  C   C24       1.0  0.39619999999999994  0.7838299999999999  0.9817999999999999  1.0000
  C   C25       1.0  0.01463  0.42429  0.23312999999999998  1.0000
  C   C26       1.0  0.25658  0.25449999999999995  0.44477999999999995  1.0000
  C   C27       1.0  0.16278  0.33179  0.47625999999999996  1.0000
  C   C28       1.0  0.20992  0.41630999999999996  0.47267999999999993  1.0000
  C   C29       1.0  0.95578  0.3221  0.28927  1.0000
  C   C30       1.0  0.96922  0.41673999999999994  0.29613  1.0000
  C   C31       1.0  0.6974  0.020479999999999988  0.35152  1.0000
  C   C32       1.0  0.68899  0.03450000000000002  0.42347  1.0000
  C   C33       1.0  0.6241399999999999  0.95652  0.43068  1.0000
  C   C34       1.0  0.04472  0.87375  0.41725999999999996  1.0000
  C   C35       1.0  0.99448  0.81354  0.44859  1.0000
  C   C36       1.0  0.10378999999999998  0.78382  0.48181  1.0000
  C   C37       1.0  0.51463  0.57571  0.26687  1.0000
  C   C38       1.0  0.75659  0.7455  0.05523  1.0000
  C   C39       1.0  0.66279  0.66821  0.023739999999999997  1.0000
  C   C40       1.0  0.70993  0.58369  0.02732  1.0000
  C   C41       1.0  0.45577999999999996  0.6778999999999998  0.21073  1.0000
  C   C42       1.0  0.46922  0.58326  0.20387  1.0000
  C   C43       1.0  0.19739999999999996  0.9795199999999998  0.14848  1.0000
  C   C44       1.0  0.18899  0.96549  0.07653  1.0000
  C   C45       1.0  0.12413  0.043469999999999995  0.06932999999999999  1.0000
  C   C46       1.0  0.54472  0.12624  0.08274  1.0000
  C   C47       1.0  0.4944799999999999  0.18645  0.05141  1.0000
  C   C48       1.0  0.60379  0.21617  0.01819  1.0000
  N   N1        1.0  0.97012  0.59223  0.8691  1.0000
  N   N2        1.0  0.87767  0.53347  0.83406  1.0000
  N   N3        1.0  0.8851799999999999  0.5221699999999999  0.7696799999999999  1.0000
  N   N4        1.0  0.04033  0.61971  0.82801  1.0000
  N   N5        1.0  0.7793  0.83048  0.59275  1.0000
  N   N6        1.0  0.66325  0.87761  0.60818  1.0000
  N   N7        1.0  0.5611299999999999  0.8245999999999999  0.5819299999999998  1.0000
  N   N8        1.0  0.60918  0.74137  0.54849  1.0000
  N   N9        1.0  0.66861  0.54673  0.50758  1.0000
  N   N10       1.0  0.6718299999999999  0.47176000000000007  0.5193  1.0000
  N   N11       1.0  0.7895999999999999  0.46447  0.54488  1.0000
  N   N12       1.0  0.86571  0.5343199999999999  0.5503799999999999  1.0000
  N   N13       1.0  0.02716  0.79764  0.6951099999999999  1.0000
  N   N14       1.0  0.10123  0.81701  0.74946  1.0000
  N   N15       1.0  0.11376999999999998  0.7423199999999999  0.7601599999999998  1.0000
  N   N16       1.0  0.98991  0.71138  0.66956  1.0000
  N   N17       1.0  0.9340599999999999  0.018450000000000015  0.61247  1.0000
  N   N18       1.0  0.8297999999999999  0.07233000000000002  0.63638  1.0000
  N   N19       1.0  0.84107  0.1411  0.61848  1.0000
  N   N20       1.0  0.01488  0.050530000000000005  0.57878  1.0000
  N   N21       1.0  0.8925599999999999  0.20137  0.45307  1.0000
  N   N22       1.0  0.77686  0.23767  0.44312  1.0000
  N   N23       1.0  0.71299  0.27278  0.50041  1.0000
  N   N24       1.0  0.7855  0.26108  0.54863  1.0000
  N   N25       1.0  0.35954  0.014759999999999947  0.7512199999999999  1.0000
  N   N26       1.0  0.40540999999999994  0.007749999999999959  0.6917399999999999  1.0000
  N   N27       1.0  0.23252  0.9910799999999998  0.74448  1.0000
  N   N28       1.0  0.194  0.9685699999999999  0.68075  1.0000
  N   N29       1.0  0.31749  0.09584000000000004  0.54284  1.0000
  N   N30       1.0  0.4063399999999999  0.16108999999999996  0.5507199999999999  1.0000
  N   N31       1.0  0.51491  0.14772999999999994  0.5802599999999999  1.0000
  N   N32       1.0  0.49892999999999993  0.07373000000000002  0.59241  1.0000
  N   N33       1.0  0.4701199999999999  0.40778  0.6309  1.0000
  N   N34       1.0  0.37766  0.46653  0.66594  1.0000
  N   N35       1.0  0.38517  0.47783  0.73032  1.0000
  N   N36       1.0  0.54033  0.38029  0.67198  1.0000
  N   N37       1.0  0.27929  0.16951000000000008  0.90724  1.0000
  N   N38       1.0  0.16324999999999998  0.12239000000000004  0.89181  1.0000
  N   N39       1.0  0.06112999999999999  0.17539  0.91806  1.0000
  N   N40       1.0  0.10918  0.25862999999999997  0.9514999999999999  1.0000
  N   N41       1.0  0.16861  0.4532699999999999  0.9924099999999998  1.0000
  N   N42       1.0  0.17182  0.5282399999999998  0.9806899999999997  1.0000
  N   N43       1.0  0.2896  0.53552  0.95511  1.0000
  N   N44       1.0  0.3657  0.4656799999999999  0.9496099999999998  1.0000
  N   N45       1.0  0.52716  0.20235  0.80488  1.0000
  N   N46       1.0  0.60122  0.18298000000000006  0.75053  1.0000
  N   N47       1.0  0.61376  0.25768  0.73983  1.0000
  N   N48       1.0  0.48991  0.28861999999999993  0.8304399999999998  1.0000
  N   N49       1.0  0.43405999999999995  0.98155  0.88752  1.0000
  N   N50       1.0  0.32981  0.92766  0.8636  1.0000
  N   N51       1.0  0.34108  0.85889  0.88151  1.0000
  N   N52       1.0  0.5148799999999999  0.94948  0.92121  1.0000
  N   N53       1.0  0.39256  0.79862  0.04692  1.0000
  N   N54       1.0  0.27686999999999995  0.76232  0.05688  1.0000
  N   N55       1.0  0.213  0.72721  0.99959  1.0000
  N   N56       1.0  0.2854999999999999  0.73892  0.95136  1.0000
  N   N57       1.0  0.85953  0.9852399999999999  0.7487599999999999  1.0000
  N   N58       1.0  0.90541  0.9922499999999999  0.8082399999999998  1.0000
  N   N59       1.0  0.73252  0.008920000000000003  0.75551  1.0000
  N   N60       1.0  0.694  0.03142999999999991  0.8192399999999999  1.0000
  N   N61       1.0  0.8175  0.90417  0.95715  1.0000
  N   N62       1.0  0.9063499999999999  0.8389199999999999  0.9492699999999998  1.0000
  N   N63       1.0  0.014909999999999998  0.8522699999999997  0.91973  1.0000
  N   N64       1.0  0.9989399999999999  0.9262699999999999  0.90757  1.0000
  N   N65       1.0  0.029879999999999993  0.40777  0.1309  1.0000
  N   N66       1.0  0.12233  0.46653  0.16593  1.0000
  N   N67       1.0  0.11482  0.47783  0.23032  1.0000
  N   N68       1.0  0.95967  0.38027999999999995  0.17198  1.0000
  N   N69       1.0  0.2207  0.16951  0.40725  1.0000
  N   N70       1.0  0.33674  0.12238999999999998  0.39180999999999994  1.0000
  N   N71       1.0  0.43887  0.1754  0.41807  1.0000
  N   N72       1.0  0.39081  0.25863  0.45151  1.0000
  N   N73       1.0  0.33137999999999995  0.45327  0.49240999999999996  1.0000
  N   N74       1.0  0.32817  0.52824  0.4807  1.0000
  N   N75       1.0  0.2104  0.53553  0.45510999999999996  1.0000
  N   N76       1.0  0.13429  0.46568  0.44961  1.0000
  N   N77       1.0  0.9728299999999999  0.20236  0.30489  1.0000
  N   N78       1.0  0.8987699999999998  0.18299  0.25054  1.0000
  N   N79       1.0  0.8862299999999999  0.25768  0.23984  1.0000
  N   N80       1.0  0.01009  0.28862  0.33044  1.0000
  N   N81       1.0  0.06593999999999998  0.98155  0.38752999999999993  1.0000
  N   N82       1.0  0.17019  0.92767  0.36361  1.0000
  N   N83       1.0  0.15892  0.8589  0.38151  1.0000
  N   N84       1.0  0.9851199999999999  0.94947  0.4212099999999999  1.0000
  N   N85       1.0  0.10743999999999998  0.79862  0.54692  1.0000
  N   N86       1.0  0.22313999999999998  0.76233  0.55688  1.0000
  N   N87       1.0  0.2869999999999999  0.72722  0.4995899999999999  1.0000
  N   N88       1.0  0.2145  0.73891  0.45136999999999994  1.0000
  N   N89       1.0  0.64046  0.9852399999999999  0.24876999999999994  1.0000
  N   N90       1.0  0.59459  0.9922499999999999  0.30825  1.0000
  N   N91       1.0  0.7674699999999999  0.008920000000000003  0.25551  1.0000
  N   N92       1.0  0.8059899999999999  0.03143000000000002  0.31925  1.0000
  N   N93       1.0  0.68251  0.9041599999999999  0.45715  1.0000
  N   N94       1.0  0.59365  0.83891  0.44927  1.0000
  N   N95       1.0  0.48508999999999997  0.85226  0.41973  1.0000
  N   N96       1.0  0.50107  0.92627  0.40758  1.0000
  N   N97       1.0  0.52988  0.59222  0.3691  1.0000
  N   N98       1.0  0.62233  0.53347  0.33406  1.0000
  N   N99       1.0  0.61482  0.52217  0.2696799999999999  1.0000
  N   N100      1.0  0.45967  0.61971  0.32801  1.0000
  N   N101      1.0  0.7207  0.83049  0.09276  1.0000
  N   N102      1.0  0.83674  0.87761  0.10819  1.0000
  N   N103      1.0  0.93887  0.82461  0.08194  1.0000
  N   N104      1.0  0.8908199999999998  0.74137  0.0485  1.0000
  N   N105      1.0  0.8313899999999999  0.54673  0.00759  1.0000
  N   N106      1.0  0.82817  0.47176  0.019299999999999998  1.0000
  N   N107      1.0  0.7104  0.46447  0.04489  1.0000
  N   N108      1.0  0.6343  0.53432  0.05038999999999999  1.0000
  N   N109      1.0  0.4728299999999999  0.79765  0.19511  1.0000
  N   N110      1.0  0.39876999999999996  0.81702  0.24947  1.0000
  N   N111      1.0  0.38623  0.7423200000000001  0.26017  1.0000
  N   N112      1.0  0.51008  0.71138  0.16955999999999996  1.0000
  N   N113      1.0  0.56594  0.018449999999999994  0.11247999999999998  1.0000
  N   N114      1.0  0.67018  0.07234  0.1364  1.0000
  N   N115      1.0  0.65892  0.14109999999999998  0.11848999999999998  1.0000
  N   N116      1.0  0.48512  0.05052  0.07878  1.0000
  N   N117      1.0  0.60743  0.20137  0.95307  1.0000
  N   N118      1.0  0.7231299999999999  0.23766999999999985  0.9431199999999997  1.0000
  N   N119      1.0  0.7869899999999999  0.2727899999999999  0.00041  1.0000
  N   N120      1.0  0.7144999999999999  0.26108  0.04863  1.0000
  N   N121      1.0  0.14046  0.01476  0.25123  1.0000
  N   N122      1.0  0.09459  0.00775  0.19175  1.0000
  N   N123      1.0  0.26748  0.9910799999999998  0.24449  1.0000
  N   N124      1.0  0.30599  0.9685599999999998  0.18075999999999998  1.0000
  N   N125      1.0  0.1825  0.09583  0.04284  1.0000
  N   N126      1.0  0.09364  0.16108  0.050719999999999994  1.0000
  N   N127      1.0  0.9850899999999999  0.14773  0.08027  1.0000
  N   N128      1.0  0.00106  0.07372999999999999  0.09242999999999998  1.0000
