data_image0
_chemical_formula_structural       Cd6H40C88O32
_chemical_formula_sum              "Cd6 H40 C88 O32"
_cell_length_a       11.35827
_cell_length_b       15.4606
_cell_length_c       18.044959999999996
_cell_angle_alpha    100.17753
_cell_angle_beta     96.67027
_cell_angle_gamma    100.48402

_space_group_name_H-M_alt    "P 1"
_space_group_IT_number       1

loop_
  _space_group_symop_operation_xyz
  'x, y, z'

loop_
  _atom_site_type_symbol
  _atom_site_label
  _atom_site_symmetry_multiplicity
  _atom_site_fract_x
  _atom_site_fract_y
  _atom_site_fract_z
  _atom_site_occupancy
  Cd  Cd1       1.0  0.7118700000000001  0.23074999999999996  0.62761  1.0000
  Cd  Cd2       1.0  0.64273  0.67324  0.8960399999999997  1.0000
  Cd  Cd3       1.0  0.6618500000000002  0.4497299999999999  0.72871  1.0000
  Cd  Cd4       1.0  0.28813  0.76925  0.37239  1.0000
  Cd  Cd5       1.0  0.35727  0.32676  0.10395999999999998  1.0000
  Cd  Cd6       1.0  0.33815  0.55027  0.27129  1.0000
  H   H1        1.0  0.30871999999999994  0.14383999999999988  0.5702199999999997  1.0000
  H   H2        1.0  0.99354  0.24768999999999997  0.4991  1.0000
  H   H3        1.0  0.12518999999999997  0.3974999999999999  0.51582  1.0000
  H   H4        1.0  0.34743000000000007  0.42182  0.56079  1.0000
  H   H5        1.0  0.78713  0.9664499999999998  0.521  1.0000
  H   H6        1.0  0.7937600000000002  0.38301999999999997  0.9151199999999999  1.0000
  H   H7        1.0  0.79617  0.3649399999999999  0.05047  1.0000
  H   H8        1.0  0.6816499999999999  0.22474999999999995  0.07815  1.0000
  H   H9        1.0  0.58931  0.11379999999999994  0.83663  1.0000
  H   H10       1.0  0.36739  0.010769999999999993  0.10057999999999999  1.0000
  H   H11       1.0  0.16043999999999994  0.6349699999999998  0.55257  1.0000
  H   H12       1.0  0.22180999999999998  0.6025099999999999  0.6812699999999999  1.0000
  H   H13       1.0  0.23997999999999994  0.6816099999999998  0.81445  1.0000
  H   H14       1.0  0.05306999999999995  0.7113599999999998  0.86912  1.0000
  H   H15       1.0  0.8381299999999998  0.5981399999999997  0.6506899999999999  1.0000
  H   H16       1.0  0.2733699999999999  0.3927799999999998  0.6918299999999997  1.0000
  H   H17       1.0  0.04818999999999996  0.3459199999999999  0.6811  1.0000
  H   H18       1.0  0.94702  0.3871799999999999  0.79298  1.0000
  H   H19       1.0  0.29741000000000006  0.51591  0.92655  1.0000
  H   H20       1.0  0.92204  0.52719  0.87389  1.0000
  H   H21       1.0  0.69128  0.8561699999999998  0.42978  1.0000
  H   H22       1.0  0.006459999999999987  0.7523099999999998  0.5009  1.0000
  H   H23       1.0  0.8748099999999998  0.6025099999999999  0.48418  1.0000
  H   H24       1.0  0.6525699999999999  0.5781799999999998  0.43921  1.0000
  H   H25       1.0  0.21286  0.033560000000000006  0.479  1.0000
  H   H26       1.0  0.20624  0.61698  0.08488  1.0000
  H   H27       1.0  0.20383  0.63506  0.94953  1.0000
  H   H28       1.0  0.31834999999999997  0.7752499999999999  0.9218499999999998  1.0000
  H   H29       1.0  0.41069  0.8862099999999998  0.16337  1.0000
  H   H30       1.0  0.63261  0.98923  0.89942  1.0000
  H   H31       1.0  0.8395500000000001  0.3650299999999999  0.44742999999999994  1.0000
  H   H32       1.0  0.77819  0.3974999999999999  0.31873  1.0000
  H   H33       1.0  0.7600200000000001  0.3183899999999999  0.18555  1.0000
  H   H34       1.0  0.9469300000000002  0.28865  0.13087999999999997  1.0000
  H   H35       1.0  0.16187  0.40186  0.3493099999999999  1.0000
  H   H36       1.0  0.7266300000000002  0.6072199999999998  0.30817  1.0000
  H   H37       1.0  0.9518000000000001  0.6540799999999998  0.3189  1.0000
  H   H38       1.0  0.052979999999999985  0.61283  0.20701999999999998  1.0000
  H   H39       1.0  0.70259  0.4840899999999999  0.07344999999999999  1.0000
  H   H40       1.0  0.07795999999999999  0.4728199999999999  0.12611  1.0000
  C   C1        1.0  0.34047999999999995  0.2835699999999999  0.56783  1.0000
  C   C2        1.0  0.26655  0.19824999999999995  0.55716  1.0000
  C   C3        1.0  0.14031  0.18323999999999993  0.53277  1.0000
  C   C4        1.0  0.09011999999999996  0.2570699999999999  0.51874  1.0000
  C   C5        1.0  0.16441999999999998  0.34158999999999984  0.5277599999999999  1.0000
  C   C6        1.0  0.28908999999999996  0.3556499999999999  0.55257  1.0000
  C   C7        1.0  0.06687999999999998  0.09160999999999998  0.51874  1.0000
  C   C8        1.0  0.9427000000000002  0.06946  0.5294  1.0000
  C   C9        1.0  0.8802100000000003  0.9802699999999998  0.51019  1.0000
  C   C10       1.0  0.47377  0.2971399999999999  0.59669  1.0000
  C   C11       1.0  0.8743600000000001  0.13411  0.56803  1.0000
  C   C12       1.0  0.70183  0.25867999999999997  0.78793  1.0000
  C   C13       1.0  0.6934500000000001  0.24911999999999995  0.86831  1.0000
  C   C14       1.0  0.74934  0.3206999999999999  0.92846  1.0000
  C   C15       1.0  0.7480100000000001  0.31108999999999987  0.00392  1.0000
  C   C16       1.0  0.68436  0.23256999999999994  0.01959  1.0000
  C   C17       1.0  0.6249300000000001  0.16064999999999993  0.95967  1.0000
  C   C18       1.0  0.6332699999999999  0.16855999999999996  0.8838299999999998  1.0000
  C   C19       1.0  0.55824  0.07882999999999997  0.9780499999999999  1.0000
  C   C20       1.0  0.48178000000000004  0.08386999999999996  0.03606999999999999  1.0000
  C   C21       1.0  0.42774  0.005979999999999998  0.05806999999999999  1.0000
  C   C22       1.0  0.44709000000000004  0.17084  0.06705999999999998  1.0000
  C   C23       1.0  0.8413300000000001  0.4123999999999998  0.5938  1.0000
  C   C24       1.0  0.92027  0.46413  0.54712  1.0000
  C   C25       1.0  0.013409999999999934  0.5411599999999998  0.57847  1.0000
  C   C26       1.0  0.09216  0.57381  0.53029  1.0000
  C   C27       1.0  0.02763999999999992  0.5907499999999998  0.65727  1.0000
  C   C28       1.0  0.14148  0.61787  0.7037799999999997  1.0000
  C   C29       1.0  0.15109999999999996  0.6617799999999998  0.7794  1.0000
  C   C30       1.0  0.04722999999999995  0.6780899999999997  0.80994  1.0000
  C   C31       1.0  0.93314  0.6510499999999999  0.76416  1.0000
  C   C32       1.0  0.92455  0.6111899999999998  0.68752  1.0000
  C   C33       1.0  0.8200800000000001  0.6584599999999998  0.79713  1.0000
  C   C34       1.0  0.42962000000000006  0.50016  0.81231  1.0000
  C   C35       1.0  0.2969399999999999  0.4609699999999998  0.8088099999999998  1.0000
  C   C36       1.0  0.22767999999999988  0.4107099999999998  0.7402499999999997  1.0000
  C   C37       1.0  0.10156000000000001  0.3851499999999999  0.73439  1.0000
  C   C38       1.0  0.04499999999999999  0.40727  0.7973899999999999  1.0000
  C   C39       1.0  0.11530999999999998  0.4513699999999999  0.8682999999999998  1.0000
  C   C40       1.0  0.24206  0.47824999999999984  0.87339  1.0000
  C   C41       1.0  0.9559  0.5139999999999999  0.9288199999999999  1.0000
  C   C42       1.0  0.05702000000000001  0.47446999999999995  0.93518  1.0000
  C   C43       1.0  0.10112  0.4604699999999999  0.00878  1.0000
  C   C44       1.0  0.20228999999999997  0.4131999999999999  0.02295  1.0000
  C   C45       1.0  0.6595199999999999  0.7164299999999998  0.43217  1.0000
  C   C46       1.0  0.73345  0.8017499999999997  0.44284  1.0000
  C   C47       1.0  0.8596899999999997  0.8167699999999998  0.4672299999999999  1.0000
  C   C48       1.0  0.9098699999999998  0.7429299999999998  0.48125999999999997  1.0000
  C   C49       1.0  0.83558  0.65841  0.47224  1.0000
  C   C50       1.0  0.71091  0.6443499999999998  0.44742999999999994  1.0000
  C   C51       1.0  0.9331199999999997  0.9083999999999998  0.48125999999999997  1.0000
  C   C52       1.0  0.057299999999999914  0.9305399999999998  0.47059999999999996  1.0000
  C   C53       1.0  0.11979000000000002  0.019729999999999963  0.48980999999999997  1.0000
  C   C54       1.0  0.52623  0.7028599999999998  0.40331  1.0000
  C   C55       1.0  0.12564  0.86589  0.43197  1.0000
  C   C56       1.0  0.29816  0.7413199999999998  0.21207  1.0000
  C   C57       1.0  0.3065500000000001  0.75088  0.13169  1.0000
  C   C58       1.0  0.25064999999999993  0.6793099999999997  0.07154  1.0000
  C   C59       1.0  0.2519899999999999  0.6889099999999998  0.99608  1.0000
  C   C60       1.0  0.31564  0.76744  0.9804  1.0000
  C   C61       1.0  0.3750599999999999  0.8393599999999998  0.04033  1.0000
  C   C62       1.0  0.36673000000000006  0.8314499999999998  0.11617  1.0000
  C   C63       1.0  0.44176  0.9211699999999999  0.021949999999999994  1.0000
  C   C64       1.0  0.51822  0.9161299999999999  0.96393  1.0000
  C   C65       1.0  0.5722499999999999  0.9940199999999999  0.9419299999999999  1.0000
  C   C66       1.0  0.5529099999999999  0.8291599999999998  0.93294  1.0000
  C   C67       1.0  0.15866999999999998  0.5876099999999999  0.4062  1.0000
  C   C68       1.0  0.07973  0.53587  0.45288  1.0000
  C   C69       1.0  0.9865800000000002  0.45884  0.42152999999999996  1.0000
  C   C70       1.0  0.9078399999999998  0.4261899999999999  0.46970999999999996  1.0000
  C   C71       1.0  0.97235  0.4092599999999999  0.34272999999999987  1.0000
  C   C72       1.0  0.8585200000000001  0.38212999999999986  0.29622  1.0000
  C   C73       1.0  0.8488999999999999  0.3382299999999998  0.22059999999999994  1.0000
  C   C74       1.0  0.95277  0.32190999999999986  0.19005999999999995  1.0000
  C   C75       1.0  0.06685999999999999  0.34894999999999987  0.23583999999999997  1.0000
  C   C76       1.0  0.07544999999999999  0.3888099999999999  0.31248  1.0000
  C   C77       1.0  0.17992  0.34155  0.20287  1.0000
  C   C78       1.0  0.57038  0.4998399999999999  0.18769  1.0000
  C   C79       1.0  0.70306  0.5390399999999997  0.19119  1.0000
  C   C80       1.0  0.7723200000000002  0.5892899999999999  0.25975  1.0000
  C   C81       1.0  0.8984400000000001  0.6148499999999998  0.26561  1.0000
  C   C82       1.0  0.955  0.5927299999999998  0.20260999999999998  1.0000
  C   C83       1.0  0.8846900000000001  0.54863  0.1317  1.0000
  C   C84       1.0  0.75794  0.52175  0.12661  1.0000
  C   C85       1.0  0.044100000000000035  0.486  0.07118  1.0000
  C   C86       1.0  0.94298  0.5255299999999999  0.06482  1.0000
  C   C87       1.0  0.89888  0.53953  0.99122  1.0000
  C   C88       1.0  0.79771  0.5867999999999998  0.9770499999999999  1.0000
  O   O1        1.0  0.51386  0.22533  0.59648  1.0000
  O   O2        1.0  0.53495  0.3774299999999999  0.61826  1.0000
  O   O3        1.0  0.9228600000000002  0.18666999999999995  0.63021  1.0000
  O   O4        1.0  0.7649699999999999  0.12784999999999994  0.53714  1.0000
  O   O5        1.0  0.67856  0.18703999999999996  0.7372  1.0000
  O   O6        1.0  0.73763  0.3373899999999999  0.77392  1.0000
  O   O7        1.0  0.3928400000000001  0.20742  0.018899999999999997  1.0000
  O   O8        1.0  0.4703000000000001  0.20280999999999993  0.13774  1.0000
  O   O9        1.0  0.79713  0.33095  0.5626199999999998  1.0000
  O   O10       1.0  0.82712  0.4502199999999999  0.65971  1.0000
  O   O11       1.0  0.7203899999999998  0.6019199999999998  0.76662  1.0000
  O   O12       1.0  0.8257499999999999  0.7185599999999998  0.8558399999999998  1.0000
  O   O13       1.0  0.48812000000000005  0.44996999999999987  0.7744099999999998  1.0000
  O   O14       1.0  0.46449000000000007  0.5794299999999999  0.85161  1.0000
  O   O15       1.0  0.19612999999999992  0.33550999999999986  0.98556  1.0000
  O   O16       1.0  0.28657  0.45429  0.07808  1.0000
  O   O17       1.0  0.48613999999999985  0.7746699999999997  0.40351  1.0000
  O   O18       1.0  0.46504999999999996  0.6225799999999998  0.38174  1.0000
  O   O19       1.0  0.07713999999999988  0.8133299999999996  0.36979  1.0000
  O   O20       1.0  0.23503  0.8721499999999999  0.46285999999999994  1.0000
  O   O21       1.0  0.32144  0.8129599999999998  0.2628  1.0000
  O   O22       1.0  0.26237  0.6626099999999998  0.22608  1.0000
  O   O23       1.0  0.60716  0.7925799999999997  0.9810899999999999  1.0000
  O   O24       1.0  0.5296999999999998  0.7971899999999997  0.8622599999999999  1.0000
  O   O25       1.0  0.20286999999999994  0.6690599999999998  0.43737999999999994  1.0000
  O   O26       1.0  0.17287999999999998  0.5497799999999998  0.34029  1.0000
  O   O27       1.0  0.2796  0.3980799999999999  0.23338  1.0000
  O   O28       1.0  0.17425  0.28144  0.14416  1.0000
  O   O29       1.0  0.51188  0.55003  0.22559  1.0000
  O   O30       1.0  0.53551  0.4205799999999999  0.14839  1.0000
  O   O31       1.0  0.8038700000000001  0.66449  0.014429999999999998  1.0000
  O   O32       1.0  0.7134300000000001  0.54571  0.92192  1.0000
