data_image0
_chemical_formula_structural       Ag8H80C80S8N32
_chemical_formula_sum              "Ag8 H80 C80 S8 N32"
_cell_length_a       10.65712
_cell_length_b       12.948869999999998
_cell_length_c       20.94656
_cell_angle_alpha    89.99895999999998
_cell_angle_beta     93.99375
_cell_angle_gamma    90.0018

_symmetry_space_group_name_H-M    'P 1'
_symmetry_Int_Tables_number       1

loop_
  _symmetry_equiv_pos_as_xyz
  'x,y,z'

loop_
  _atom_site_type_symbol
  _atom_site_label
  _atom_site_symmetry_multiplicity
  _atom_site_fract_x
  _atom_site_fract_y
  _atom_site_fract_z
  _atom_site_occupancy
  Ag  Ag1       1.0  0.19494  0.18617000000000006  0.07124999999999998  1.0000
  Ag  Ag2       1.0  0.10261999999999999  0.9986600000000001  0.39995  1.0000
  Ag  Ag3       1.0  0.30499  0.6862200000000002  0.92875  1.0000
  Ag  Ag4       1.0  0.3973999999999999  0.4986500000000001  0.60007  1.0000
  Ag  Ag5       1.0  0.80435  0.81409  0.9289399999999999  1.0000
  Ag  Ag6       1.0  0.8982299999999998  0.9979300000000001  0.60044  1.0000
  Ag  Ag7       1.0  0.69566  0.3140600000000001  0.07106  1.0000
  Ag  Ag8       1.0  0.6016299999999999  0.4979600000000001  0.3995599999999999  1.0000
  H   H1        1.0  0.34626  0.04201  0.18594  1.0000
  H   H2        1.0  0.27643999999999996  0.95255  0.2833399999999999  1.0000
  H   H3        1.0  0.9845199999999997  0.16552000000000006  0.29245  1.0000
  H   H4        1.0  0.9447399999999999  0.29158000000000006  0.21024999999999994  1.0000
  H   H5        1.0  0.08008999999999998  0.3397500000000001  0.17334999999999995  1.0000
  H   H6        1.0  0.8160499999999999  0.13898000000000002  0.1618  1.0000
  H   H7        1.0  0.9430599999999999  0.057000000000000016  0.14169  1.0000
  H   H8        1.0  0.9053999999999999  0.94059  0.05269999999999999  1.0000
  H   H9        1.0  0.5803099999999999  0.97273  0.93063  1.0000
  H   H10       1.0  0.53476  0.14069  0.9824299999999999  1.0000
  H   H11       1.0  0.9248399999999998  0.17116  0.71188  1.0000
  H   H12       1.0  0.09147  0.2855  0.76476  1.0000
  H   H13       1.0  0.30959  0.24636  0.6092199999999999  1.0000
  H   H14       1.0  0.15898  0.032  0.54617  1.0000
  H   H15       1.0  0.24057  0.14234  0.52069  1.0000
  H   H16       1.0  0.9629199999999999  0.27401  0.41525999999999996  1.0000
  H   H17       1.0  0.13052999999999998  0.26114  0.42156999999999994  1.0000
  H   H18       1.0  0.25344  0.36567  0.49235  1.0000
  H   H19       1.0  0.09177  0.53659  0.6338  1.0000
  H   H20       1.0  0.88758  0.44804000000000005  0.60772  1.0000
  H   H21       1.0  0.15371999999999997  0.542  0.8140499999999998  1.0000
  H   H22       1.0  0.22352999999999984  0.45256000000000013  0.7166499999999998  1.0000
  H   H23       1.0  0.51551  0.6654700000000002  0.70758  1.0000
  H   H24       1.0  0.5553  0.7915500000000002  0.7897499999999998  1.0000
  H   H25       1.0  0.41992999999999997  0.8397300000000001  0.82664  1.0000
  H   H26       1.0  0.68399  0.6389600000000002  0.83824  1.0000
  H   H27       1.0  0.55696  0.5569700000000001  0.85833  1.0000
  H   H28       1.0  0.59458  0.4406  0.9473799999999999  1.0000
  H   H29       1.0  0.91969  0.47280000000000005  0.06943999999999999  1.0000
  H   H30       1.0  0.96523  0.64075  0.01759  1.0000
  H   H31       1.0  0.57511  0.67117  0.28812  1.0000
  H   H32       1.0  0.40848999999999996  0.78554  0.23527  1.0000
  H   H33       1.0  0.19038999999999998  0.7463600000000002  0.39082  1.0000
  H   H34       1.0  0.34101  0.53198  0.45384  1.0000
  H   H35       1.0  0.25943999999999995  0.6423000000000002  0.47931999999999997  1.0000
  H   H36       1.0  0.53708  0.77399  0.5847499999999999  1.0000
  H   H37       1.0  0.3695  0.7611200000000002  0.57844  1.0000
  H   H38       1.0  0.24658  0.8656900000000001  0.50768  1.0000
  H   H39       1.0  0.40824999999999995  0.03658  0.3662299999999999  1.0000
  H   H40       1.0  0.61243  0.9480500000000001  0.39228  1.0000
  H   H41       1.0  0.65604  0.9594100000000002  0.81479  1.0000
  H   H42       1.0  0.7252699999999997  0.04688000000000001  0.71659  1.0000
  H   H43       1.0  0.015129999999999984  0.8319800000000002  0.70768  1.0000
  H   H44       1.0  0.05570999999999998  0.7078700000000002  0.7907399999999999  1.0000
  H   H45       1.0  0.9202899999999999  0.6603000000000001  0.82781  1.0000
  H   H46       1.0  0.1843  0.8609400000000001  0.83862  1.0000
  H   H47       1.0  0.05744999999999999  0.9430500000000002  0.8587599999999999  1.0000
  H   H48       1.0  0.09527999999999995  0.05971  0.9475799999999998  1.0000
  H   H49       1.0  0.42012  0.02766  0.06983  1.0000
  H   H50       1.0  0.46590999999999994  0.8597  0.01797  1.0000
  H   H51       1.0  0.07445  0.83005  0.288  1.0000
  H   H52       1.0  0.90865  0.7146800000000001  0.23545  1.0000
  H   H53       1.0  0.6909799999999999  0.7525900000000002  0.39129  1.0000
  H   H54       1.0  0.84111  0.9683300000000001  0.4541099999999999  1.0000
  H   H55       1.0  0.75911  0.85807  0.4794399999999999  1.0000
  H   H56       1.0  0.03474  0.7255800000000001  0.58535  1.0000
  H   H57       1.0  0.86731  0.7392  0.57793  1.0000
  H   H58       1.0  0.7452599999999999  0.6351200000000001  0.50654  1.0000
  H   H59       1.0  0.90863  0.4650300000000001  0.36537  1.0000
  H   H60       1.0  0.11369999999999998  0.55078  0.3936499999999999  1.0000
  H   H61       1.0  0.84396  0.45940000000000003  0.18521  1.0000
  H   H62       1.0  0.77478  0.5469  0.28341  1.0000
  H   H63       1.0  0.48486  0.3320200000000001  0.29231999999999997  1.0000
  H   H64       1.0  0.44424  0.20789000000000005  0.20926  1.0000
  H   H65       1.0  0.57971  0.16034000000000004  0.17219  1.0000
  H   H66       1.0  0.31569  0.3609500000000001  0.16135  1.0000
  H   H67       1.0  0.44254999999999994  0.44305  0.14118999999999998  1.0000
  H   H68       1.0  0.40473  0.5597000000000001  0.05235  1.0000
  H   H69       1.0  0.07977999999999998  0.52766  0.9301699999999998  1.0000
  H   H70       1.0  0.03398999999999995  0.35971  0.9820599999999998  1.0000
  H   H71       1.0  0.42557999999999996  0.33002  0.7119999999999999  1.0000
  H   H72       1.0  0.5913699999999998  0.21464  0.76454  1.0000
  H   H73       1.0  0.80903  0.25258  0.60867  1.0000
  H   H74       1.0  0.65888  0.46833  0.54588  1.0000
  H   H75       1.0  0.74085  0.35807  0.5205499999999998  1.0000
  H   H76       1.0  0.4651999999999999  0.22558000000000006  0.41464999999999996  1.0000
  H   H77       1.0  0.6326399999999999  0.23925000000000005  0.42205  1.0000
  H   H78       1.0  0.75472  0.1351  0.4934399999999999  1.0000
  H   H79       1.0  0.59132  0.9650600000000003  0.63461  1.0000
  H   H80       1.0  0.38626  0.050770000000000017  0.60633  1.0000
  C   C1        1.0  0.26642999999999994  0.07099000000000001  0.21041  1.0000
  C   C2        1.0  0.22923999999999994  0.02187  0.26449  1.0000
  C   C3        1.0  0.06687  0.13866000000000003  0.26914999999999994  1.0000
  C   C4        1.0  0.10259  0.18711  0.21426  1.0000
  C   C5        1.0  0.024329999999999997  0.27052  0.18246  1.0000
  C   C6        1.0  0.87547  0.11553  0.1234  1.0000
  C   C7        1.0  0.7963999999999999  0.07729  0.06668999999999999  1.0000
  C   C8        1.0  0.82297  0.9857000000000001  0.03663  1.0000
  C   C9        1.0  0.6438  0.0037900000000000004  0.9687699999999999  1.0000
  C   C10       1.0  0.61857  0.09661  0.99781  1.0000
  C   C11       1.0  0.01201999999999999  0.18698000000000006  0.68943  1.0000
  C   C12       1.0  0.10410999999999994  0.25074  0.7182399999999999  1.0000
  C   C13       1.0  0.22404999999999997  0.22929  0.63298  1.0000
  C   C14       1.0  0.13179  0.16580000000000003  0.60273  1.0000
  C   C15       1.0  0.15237999999999996  0.11630000000000003  0.5399199999999998  1.0000
  C   C16       1.0  0.04595999999999998  0.26141  0.4484399999999999  1.0000
  C   C17       1.0  0.05482999999999999  0.33959  0.50085  1.0000
  C   C18       1.0  0.17034  0.38686000000000004  0.51711  1.0000
  C   C19       1.0  0.08210999999999999  0.4793800000000001  0.5957499999999999  1.0000
  C   C20       1.0  0.96864  0.43031000000000014  0.58059  1.0000
  C   C21       1.0  0.23357999999999995  0.57097  0.7895899999999999  1.0000
  C   C22       1.0  0.27076999999999996  0.52185  0.7355199999999997  1.0000
  C   C23       1.0  0.43316999999999994  0.6386000000000001  0.73087  1.0000
  C   C24       1.0  0.39743  0.68707  0.78574  1.0000
  C   C25       1.0  0.47568999999999995  0.7705000000000002  0.8175399999999999  1.0000
  C   C26       1.0  0.62453  0.6155300000000001  0.8766299999999998  1.0000
  C   C27       1.0  0.70362  0.5772900000000001  0.9333399999999997  1.0000
  C   C28       1.0  0.67702  0.4857400000000001  0.9634299999999999  1.0000
  C   C29       1.0  0.8562  0.5038200000000002  0.03128  1.0000
  C   C30       1.0  0.88145  0.5966300000000001  0.00224  1.0000
  C   C31       1.0  0.48794999999999994  0.6870000000000002  0.31058  1.0000
  C   C32       1.0  0.39585  0.7507600000000002  0.28179  1.0000
  C   C33       1.0  0.27594  0.7293200000000002  0.3670399999999999  1.0000
  C   C34       1.0  0.3682  0.66582  0.39728999999999987  1.0000
  C   C35       1.0  0.34762  0.6162900000000001  0.4600899999999999  1.0000
  C   C36       1.0  0.4540599999999999  0.7614100000000001  0.55157  1.0000
  C   C37       1.0  0.44516999999999995  0.8396000000000002  0.49916  1.0000
  C   C38       1.0  0.32966  0.8868500000000001  0.48289999999999994  1.0000
  C   C39       1.0  0.41792  0.9793900000000002  0.40426999999999996  1.0000
  C   C40       1.0  0.53137  0.9303100000000002  0.41942999999999997  1.0000
  C   C41       1.0  0.73537  0.92969  0.7902199999999998  1.0000
  C   C42       1.0  0.77214  0.9775600000000002  0.7356999999999998  1.0000
  C   C43       1.0  0.93346  0.8598100000000002  0.73114  1.0000
  C   C44       1.0  0.89831  0.8127400000000001  0.7865699999999999  1.0000
  C   C45       1.0  0.9762999999999998  0.7293000000000001  0.81854  1.0000
  C   C46       1.0  0.1251  0.8845600000000002  0.8770799999999999  1.0000
  C   C47       1.0  0.20430999999999994  0.9229700000000001  0.9336499999999999  1.0000
  C   C48       1.0  0.1777  0.0146  0.96369  1.0000
  C   C49       1.0  0.35677999999999993  0.9966000000000002  0.03161  1.0000
  C   C50       1.0  0.38212  0.9037900000000002  0.0025799999999999994  1.0000
  C   C51       1.0  0.98747  0.8138900000000002  0.31053  1.0000
  C   C52       1.0  0.89589  0.7494  0.28198  1.0000
  C   C53       1.0  0.7762299999999999  0.77018  0.36740999999999996  1.0000
  C   C54       1.0  0.86778  0.8344900000000002  0.3974  1.0000
  C   C55       1.0  0.8473499999999999  0.88399  0.46021999999999996  1.0000
  C   C56       1.0  0.95261  0.73848  0.55163  1.0000
  C   C57       1.0  0.9445  0.6602100000000002  0.49927999999999995  1.0000
  C   C58       1.0  0.8288499999999998  0.61365  0.48225  1.0000
  C   C59       1.0  0.91812  0.5213900000000001  0.40392  1.0000
  C   C60       1.0  0.03197999999999998  0.56916  0.42010999999999993  1.0000
  C   C61       1.0  0.7645999999999998  0.4297100000000001  0.20976999999999996  1.0000
  C   C62       1.0  0.72786  0.47760000000000014  0.26429  1.0000
  C   C63       1.0  0.56651  0.35984000000000005  0.26885  1.0000
  C   C64       1.0  0.60164  0.31277  0.21342  1.0000
  C   C65       1.0  0.52365  0.22932000000000002  0.18145  1.0000
  C   C66       1.0  0.3749  0.3845600000000001  0.12288999999999999  1.0000
  C   C67       1.0  0.29567  0.4229700000000001  0.06631  1.0000
  C   C68       1.0  0.32226  0.5146  0.03627  1.0000
  C   C69       1.0  0.14312999999999995  0.49662  0.9683799999999998  1.0000
  C   C70       1.0  0.11778999999999999  0.40381  0.9974299999999999  1.0000
  C   C71       1.0  0.51254  0.31385  0.68946  1.0000
  C   C72       1.0  0.60413  0.24937000000000004  0.71801  1.0000
  C   C73       1.0  0.72378  0.2701700000000001  0.63257  1.0000
  C   C74       1.0  0.63221  0.33448  0.60258  1.0000
  C   C75       1.0  0.6526200000000001  0.38399000000000005  0.53977  1.0000
  C   C76       1.0  0.54735  0.23848000000000005  0.44836  1.0000
  C   C77       1.0  0.55549  0.16021  0.50072  1.0000
  C   C78       1.0  0.67115  0.11365000000000003  0.51774  1.0000
  C   C79       1.0  0.58184  0.02139  0.5960699999999999  1.0000
  C   C80       1.0  0.468  0.06918000000000002  0.57987  1.0000
  S   S1        1.0  0.9615  0.23175000000000004  0.10143999999999999  1.0000
  S   S2        1.0  0.021999999999999985  0.12777000000000002  0.47858  1.0000
  S   S3        1.0  0.5384299999999999  0.7317600000000001  0.8985899999999999  1.0000
  S   S4        1.0  0.47799  0.6277600000000001  0.5214299999999998  1.0000
  S   S5        1.0  0.039290000000000005  0.76851  0.89941  1.0000
  S   S6        1.0  0.97801  0.8718000000000002  0.52146  1.0000
  S   S7        1.0  0.46071999999999996  0.26851  0.10058  1.0000
  S   S8        1.0  0.5219799999999999  0.37181  0.4785299999999999  1.0000
  N   N1        1.0  0.20652  0.15571  0.18426999999999996  1.0000
  N   N2        1.0  0.12955  0.05641000000000001  0.29631  1.0000
  N   N3        1.0  0.6934499999999999  0.13647000000000004  0.04697  1.0000
  N   N4        1.0  0.74798  0.94607  0.9868799999999998  1.0000
  N   N5        1.0  0.02438999999999998  0.14360000000000003  0.6314599999999999  1.0000
  N   N6        1.0  0.21273999999999998  0.27193  0.6908399999999999  1.0000
  N   N7        1.0  0.9506099999999998  0.35952  0.5330399999999998  1.0000
  N   N8        1.0  0.18696  0.45832000000000006  0.56387  1.0000
  N   N9        1.0  0.29347  0.6556900000000002  0.81573  1.0000
  N   N10       1.0  0.37048  0.55637  0.7037  1.0000
  N   N11       1.0  0.8065699999999999  0.63648  0.95306  1.0000
  N   N12       1.0  0.75205  0.44607  0.01316  1.0000
  N   N13       1.0  0.47558  0.6436200000000002  0.36855  1.0000
  N   N14       1.0  0.28723  0.7719700000000003  0.30918999999999996  1.0000
  N   N15       1.0  0.5494  0.8595100000000001  0.46697  1.0000
  N   N16       1.0  0.31304999999999994  0.95835  0.43615999999999994  1.0000
  N   N17       1.0  0.79479  0.8447900000000002  0.8165799999999998  1.0000
  N   N18       1.0  0.87021  0.94136  0.7032799999999999  1.0000
  N   N19       1.0  0.30735  0.8639400000000003  0.9533899999999998  1.0000
  N   N20       1.0  0.25258  0.05426000000000001  0.013409999999999997  1.0000
  N   N21       1.0  0.97487  0.85729  0.36851  1.0000
  N   N22       1.0  0.7879299999999998  0.72712  0.30965999999999994  1.0000
  N   N23       1.0  0.04923  0.64015  0.46763  1.0000
  N   N24       1.0  0.8125  0.5433  0.43486  1.0000
  N   N25       1.0  0.70518  0.34480000000000005  0.18341999999999997  1.0000
  N   N26       1.0  0.62979  0.44139000000000006  0.2967  1.0000
  N   N27       1.0  0.19259  0.3639500000000001  0.0466  1.0000
  N   N28       1.0  0.24736  0.55427  0.98656  1.0000
  N   N29       1.0  0.52513  0.35726  0.6314899999999998  1.0000
  N   N30       1.0  0.71207  0.22711  0.69031  1.0000
  N   N31       1.0  0.4507399999999999  0.14016  0.53236  1.0000
  N   N32       1.0  0.6875  0.04332  0.56515  1.0000
