data_image0
_chemical_formula_structural       Co6H42C78N6O24
_chemical_formula_sum              "Co6 H42 C78 N6 O24"
_cell_length_a       10.14242
_cell_length_b       13.43815
_cell_length_c       22.16894
_cell_angle_alpha    86.8664
_cell_angle_beta     80.352
_cell_angle_gamma    83.38571000000002

_space_group_name_H-M_alt    "P 1"
_space_group_IT_number       1

loop_
  _space_group_symop_operation_xyz
  'x, y, z'

loop_
  _atom_site_type_symbol
  _atom_site_label
  _atom_site_symmetry_multiplicity
  _atom_site_fract_x
  _atom_site_fract_y
  _atom_site_fract_z
  _atom_site_occupancy
  Co  Co1       1.0  0.06949999999999998  0.7880099999999999  0.72326  1.0000
  Co  Co2       1.0  0.6734900000000003  0.005280000000000001  0.28387  1.0000
  Co  Co3       1.0  0.56171  0.06423  0.83445  1.0000
  Co  Co4       1.0  0.9305000000000001  0.21199999999999994  0.27673  1.0000
  Co  Co5       1.0  0.3265  0.99473  0.71613  1.0000
  Co  Co6       1.0  0.4382800000000001  0.9357799999999997  0.16554  1.0000
  H   H1        1.0  0.29423000000000016  0.8325899999999998  0.61974  1.0000
  H   H2        1.0  0.3259699999999999  0.88709  0.51121  1.0000
  H   H3        1.0  0.91897  0.8223799999999998  0.50799  1.0000
  H   H4        1.0  0.90204  0.777  0.6178499999999999  1.0000
  H   H5        1.0  0.9226500000000001  0.91245  0.42959  1.0000
  H   H6        1.0  0.16766  0.01421  0.26642  1.0000
  H   H7        1.0  0.35608000000000006  0.8915999999999997  0.4172699999999999  1.0000
  H   H8        1.0  0.7518700000000001  0.18069000000000002  0.75198  1.0000
  H   H9        1.0  0.77335  0.35739  0.71616  1.0000
  H   H10       1.0  0.38641999999999993  0.43798  0.82686  1.0000
  H   H11       1.0  0.37895  0.2567599999999999  0.85625  1.0000
  H   H12       1.0  0.38189  0.56162  0.7462799999999999  1.0000
  H   H13       1.0  0.62723  0.80518  0.71691  1.0000
  H   H14       1.0  0.8094800000000001  0.50882  0.75332  1.0000
  H   H15       1.0  0.24084000000000008  0.7349099999999997  0.82733  1.0000
  H   H16       1.0  0.22405000000000022  0.7680999999999998  0.9365199999999999  1.0000
  H   H17       1.0  0.80481  0.8745199999999997  0.93688  1.0000
  H   H18       1.0  0.8402700000000002  0.8373199999999998  0.8271599999999999  1.0000
  H   H19       1.0  0.21823  0.86546  0.00543  1.0000
  H   H20       1.0  0.9799700000000002  0.9589199999999998  0.17519  1.0000
  H   H21       1.0  0.7837499999999998  0.87051  0.03286  1.0000
  H   H22       1.0  0.70577  0.16740999999999998  0.38026  1.0000
  H   H23       1.0  0.6740200000000001  0.11290999999999998  0.48879  1.0000
  H   H24       1.0  0.08103000000000002  0.17763  0.49200999999999995  1.0000
  H   H25       1.0  0.09795000000000004  0.22301  0.3821399999999999  1.0000
  H   H26       1.0  0.07734999999999999  0.08756  0.57041  1.0000
  H   H27       1.0  0.8323300000000002  0.9857999999999998  0.7335799999999999  1.0000
  H   H28       1.0  0.6439200000000002  0.10840999999999998  0.58272  1.0000
  H   H29       1.0  0.24811999999999992  0.8193199999999999  0.24801999999999996  1.0000
  H   H30       1.0  0.22665000000000002  0.64262  0.28384  1.0000
  H   H31       1.0  0.61357  0.56203  0.17313999999999996  1.0000
  H   H32       1.0  0.6210500000000002  0.74325  0.14374  1.0000
  H   H33       1.0  0.61811  0.43839  0.25372  1.0000
  H   H34       1.0  0.37277  0.19481999999999994  0.28308  1.0000
  H   H35       1.0  0.19052000000000002  0.49119  0.24668  1.0000
  H   H36       1.0  0.75916  0.26509999999999995  0.17266  1.0000
  H   H37       1.0  0.77594  0.2319  0.06347  1.0000
  H   H38       1.0  0.19518  0.12548999999999996  0.06311  1.0000
  H   H39       1.0  0.1597300000000001  0.16268999999999997  0.17283  1.0000
  H   H40       1.0  0.7817700000000006  0.13455  0.99457  1.0000
  H   H41       1.0  0.02003  0.04109000000000001  0.82481  1.0000
  H   H42       1.0  0.21625  0.12950000000000003  0.96713  1.0000
  C   C1        1.0  0.21320000000000003  0.8311799999999998  0.5934  1.0000
  C   C2        1.0  0.23037000000000002  0.86129  0.53186  1.0000
  C   C3        1.0  0.12471000000000006  0.8610099999999998  0.49808  1.0000
  C   C4        1.0  0.005580000000000008  0.82702  0.53031  1.0000
  C   C5        1.0  0.9954000000000001  0.7996899999999998  0.59217  1.0000
  C   C6        1.0  0.13732000000000003  0.8979399999999997  0.43335  1.0000
  C   C7        1.0  0.022760000000000023  0.9228199999999998  0.40528  1.0000
  C   C8        1.0  0.033950000000000036  0.9650299999999998  0.34573  1.0000
  C   C9        1.0  0.15993000000000002  0.9812599999999998  0.31247  1.0000
  C   C10       1.0  0.27546000000000004  0.9523599999999998  0.33858  1.0000
  C   C11       1.0  0.26370000000000005  0.9120599999999998  0.39867  1.0000
  C   C12       1.0  0.91215  0.9936099999999998  0.3171  1.0000
  C   C13       1.0  0.4105100000000001  0.9661299999999998  0.30266  1.0000
  C   C14       1.0  0.6728  0.24007000000000003  0.76677  1.0000
  C   C15       1.0  0.68442  0.33920999999999996  0.74773  1.0000
  C   C16       1.0  0.58158  0.4144799999999999  0.76888  1.0000
  C   C17       1.0  0.46880000000000044  0.3833999999999999  0.8081699999999999  1.0000
  C   C18       1.0  0.4640000000000001  0.28262  0.82512  1.0000
  C   C19       1.0  0.5937399999999999  0.52132  0.7521699999999999  1.0000
  C   C20       1.0  0.48039  0.5879  0.7434499999999999  1.0000
  C   C21       1.0  0.4925600000000004  0.68983  0.7297  1.0000
  C   C22       1.0  0.6179000000000002  0.72578  0.7257  1.0000
  C   C23       1.0  0.7315600000000002  0.6600599999999998  0.7335599999999999  1.0000
  C   C24       1.0  0.7199100000000002  0.5580299999999999  0.7462099999999999  1.0000
  C   C25       1.0  0.37307999999999997  0.76182  0.72025  1.0000
  C   C26       1.0  0.8624600000000004  0.7020199999999998  0.72939  1.0000
  C   C27       1.0  0.14596999999999996  0.76645  0.85307  1.0000
  C   C28       1.0  0.1354700000000001  0.78554  0.9146599999999999  1.0000
  C   C29       1.0  0.012870000000000126  0.8281199999999999  0.9474099999999999  1.0000
  C   C30       1.0  0.90366  0.84241  0.91521  1.0000
  C   C31       1.0  0.9223600000000001  0.8219099999999999  0.8533599999999999  1.0000
  C   C32       1.0  0.0024900000000000373  0.8607699999999998  0.01083  1.0000
  C   C33       1.0  0.11947000000000003  0.8772699999999998  0.03356  1.0000
  C   C34       1.0  0.11212  0.9116199999999999  0.09256999999999999  1.0000
  C   C35       1.0  0.98662  0.93069  0.12965  1.0000
  C   C36       1.0  0.86893  0.9158  0.10762  1.0000
  C   C37       1.0  0.87706  0.8812  0.048519999999999994  1.0000
  C   C38       1.0  0.23557000000000014  0.9290199999999998  0.11691  1.0000
  C   C39       1.0  0.73692  0.93688  0.14905  1.0000
  C   C40       1.0  0.78679  0.16882  0.4066  1.0000
  C   C41       1.0  0.7696299999999999  0.13872  0.46813  1.0000
  C   C42       1.0  0.87528  0.13899999999999996  0.50191  1.0000
  C   C43       1.0  0.9944200000000002  0.17299  0.46968  1.0000
  C   C44       1.0  0.004590000000000029  0.20031999999999994  0.40782999999999997  1.0000
  C   C45       1.0  0.86268  0.10206999999999997  0.56665  1.0000
  C   C46       1.0  0.9772399999999999  0.07718999999999997  0.59472  1.0000
  C   C47       1.0  0.9660500000000001  0.03497999999999999  0.65426  1.0000
  C   C48       1.0  0.84007  0.01875  0.68752  1.0000
  C   C49       1.0  0.7245300000000002  0.04764999999999999  0.66142  1.0000
  C   C50       1.0  0.7363  0.08795  0.60133  1.0000
  C   C51       1.0  0.08785000000000004  0.006400000000000004  0.6829  1.0000
  C   C52       1.0  0.5894899999999998  0.03388  0.69733  1.0000
  C   C53       1.0  0.3272  0.75994  0.23322999999999997  1.0000
  C   C54       1.0  0.31557999999999997  0.6608  0.25225999999999993  1.0000
  C   C55       1.0  0.41842  0.58553  0.23112  1.0000
  C   C56       1.0  0.5312000000000001  0.61661  0.19182  1.0000
  C   C57       1.0  0.5359900000000001  0.7173899999999999  0.17488  1.0000
  C   C58       1.0  0.40626000000000007  0.4786899999999999  0.24782999999999997  1.0000
  C   C59       1.0  0.5196  0.41211  0.25655  1.0000
  C   C60       1.0  0.5074399999999999  0.31017  0.2703  1.0000
  C   C61       1.0  0.38210000000000005  0.27423  0.27429  1.0000
  C   C62       1.0  0.26844000000000007  0.33995  0.26644  1.0000
  C   C63       1.0  0.28009000000000006  0.44198  0.25379  1.0000
  C   C64       1.0  0.62692  0.23818999999999996  0.27975  1.0000
  C   C65       1.0  0.13754000000000005  0.29798999999999987  0.2706  1.0000
  C   C66       1.0  0.8540300000000002  0.23355999999999993  0.14693  1.0000
  C   C67       1.0  0.86453  0.21447  0.08533  1.0000
  C   C68       1.0  0.98713  0.17188999999999993  0.05258999999999999  1.0000
  C   C69       1.0  0.09634000000000001  0.15759999999999996  0.08478  1.0000
  C   C70       1.0  0.07763000000000007  0.1781  0.14664  1.0000
  C   C71       1.0  0.99751  0.13924  0.98916  1.0000
  C   C72       1.0  0.88053  0.12273999999999996  0.96644  1.0000
  C   C73       1.0  0.8878800000000001  0.08838  0.9074299999999998  1.0000
  C   C74       1.0  0.013380000000000052  0.06931999999999999  0.8703499999999998  1.0000
  C   C75       1.0  0.13106999999999996  0.08420999999999995  0.8923699999999999  1.0000
  C   C76       1.0  0.12294000000000004  0.11880999999999994  0.95147  1.0000
  C   C77       1.0  0.76443  0.07098999999999998  0.8830899999999999  1.0000
  C   C78       1.0  0.26307000000000014  0.06313  0.85095  1.0000
  N   N1        1.0  0.09670000000000008  0.8021999999999998  0.62453  1.0000
  N   N2        1.0  0.5646100000000003  0.21100000000000002  0.8052299999999999  1.0000
  N   N3        1.0  0.04258000000000009  0.7864999999999996  0.82142  1.0000
  N   N4        1.0  0.9033000000000001  0.19780999999999999  0.37545999999999996  1.0000
  N   N5        1.0  0.43539  0.7890099999999998  0.19476999999999997  1.0000
  N   N6        1.0  0.95742  0.21351  0.17858  1.0000
  O   O1        1.0  0.8068000000000002  0.9494799999999998  0.33658999999999994  1.0000
  O   O2        1.0  0.9129000000000003  0.060029999999999986  0.27335  1.0000
  O   O3        1.0  0.5123600000000001  0.9498399999999998  0.33036999999999994  1.0000
  O   O4        1.0  0.42143  0.99647  0.24636999999999998  1.0000
  O   O5        1.0  0.3947900000000001  0.8539799999999999  0.7121099999999999  1.0000
  O   O6        1.0  0.26153000000000004  0.72694  0.7209699999999999  1.0000
  O   O7        1.0  0.9724400000000002  0.64667  0.7304899999999999  1.0000
  O   O8        1.0  0.8610500000000001  0.79814  0.72411  1.0000
  O   O9        1.0  0.3527000000000001  0.91908  0.08428999999999999  1.0000
  O   O10       1.0  0.2246800000000001  0.9531799999999998  0.17284  1.0000
  O   O11       1.0  0.74593  0.9547399999999998  0.20382  1.0000
  O   O12       1.0  0.62812  0.93463  0.12717  1.0000
  O   O13       1.0  0.1932000000000001  0.05053  0.6634099999999999  1.0000
  O   O14       1.0  0.08709000000000001  0.9399799999999998  0.72665  1.0000
  O   O15       1.0  0.48762999999999995  0.05016999999999999  0.66963  1.0000
  O   O16       1.0  0.5785700000000001  0.0035400000000000084  0.7536299999999999  1.0000
  O   O17       1.0  0.6052000000000001  0.14602999999999994  0.28789  1.0000
  O   O18       1.0  0.7384699999999998  0.2730699999999999  0.27903  1.0000
  O   O19       1.0  0.027560000000000015  0.35333999999999993  0.2695  1.0000
  O   O20       1.0  0.13895000000000005  0.20187  0.27589  1.0000
  O   O21       1.0  0.6473  0.08093  0.91571  1.0000
  O   O22       1.0  0.7753100000000003  0.04683  0.8271599999999999  1.0000
  O   O23       1.0  0.2540700000000001  0.04526999999999999  0.7961799999999999  1.0000
  O   O24       1.0  0.37187  0.06538  0.87283  1.0000
