data_image0
_chemical_formula_structural       Zn6H102C72Br6N12O12
_chemical_formula_sum              "Zn6 H102 C72 Br6 N12 O12"
_cell_length_a       14.79336
_cell_length_b       15.894660000000002
_cell_length_c       15.88853
_cell_angle_alpha    120.25569999999999
_cell_angle_beta     89.98809
_cell_angle_gamma    90.11995000000002

_space_group_name_H-M_alt    "P 1"
_space_group_IT_number       1

loop_
  _space_group_symop_operation_xyz
  'x, y, z'

loop_
  _atom_site_type_symbol
  _atom_site_label
  _atom_site_symmetry_multiplicity
  _atom_site_fract_x
  _atom_site_fract_y
  _atom_site_fract_z
  _atom_site_occupancy
  Zn  Zn1       1.0  0.98391  0.6381500000000001  0.24853000000000006  1.0000
  Zn  Zn2       1.0  0.64799  0.6080500000000001  0.36173000000000005  1.0000
  Zn  Zn3       1.0  0.48413  0.362  0.7533600000000003  1.0000
  Zn  Zn4       1.0  0.15178  0.3920999999999999  0.6382200000000001  1.0000
  Zn  Zn5       1.0  0.31594  0.7539299999999998  0.3921  1.0000
  Zn  Zn6       1.0  0.81612  0.24605000000000007  0.6079200000000002  1.0000
  H   H1        1.0  0.50908  0.059629999999999975  0.34298  1.0000
  H   H2        1.0  0.12486  0.17843  0.4646200000000001  1.0000
  H   H3        1.0  0.34029  0.12371000000000001  0.56219  1.0000
  H   H4        1.0  0.07176  0.4722499999999999  0.26060000000000005  1.0000
  H   H5        1.0  0.90195  0.7915799999999998  0.5505100000000003  1.0000
  H   H6        1.0  0.006180000000000001  0.44029000000000007  0.8779400000000002  1.0000
  H   H7        1.0  0.93504  0.3804699999999999  0.3775400000000001  1.0000
  H   H8        1.0  0.6244  0.82178  0.53574  1.0000
  H   H9        1.0  0.12862  0.3402600000000001  0.7916100000000003  1.0000
  H   H10       1.0  0.24127  0.25564  0.6398000000000003  1.0000
  H   H11       1.0  0.8425  0.65631  0.7167100000000002  1.0000
  H   H12       1.0  0.7766  0.9005499999999997  0.22307000000000005  1.0000
  H   H13       1.0  0.44365  0.3215399999999999  0.09903000000000003  1.0000
  H   H14       1.0  0.776  0.4814199999999999  0.86635  1.0000
  H   H15       1.0  0.109  0.13477999999999996  0.61454  1.0000
  H   H16       1.0  0.73917  0.7872199999999999  0.5271900000000002  1.0000
  H   H17       1.0  0.76773  0.37699000000000005  0.9954700000000002  1.0000
  H   H18       1.0  0.34203  0.34402  0.28329000000000004  1.0000
  H   H19       1.0  0.29429  0.27269999999999983  0.91904  1.0000
  H   H20       1.0  0.46055  0.35443  0.27259  1.0000
  H   H21       1.0  0.61093  0.22120999999999996  0.32027000000000005  1.0000
  H   H22       1.0  0.27533  0.5188699999999998  0.13399000000000005  1.0000
  H   H23       1.0  0.79032  0.28723000000000004  0.8214800000000002  1.0000
  H   H24       1.0  0.79394  0.4517  0.6607200000000001  1.0000
  H   H25       1.0  0.39993  0.4509799999999999  0.3696900000000001  1.0000
  H   H26       1.0  0.77164  0.7596299999999998  0.24892000000000006  1.0000
  H   H27       1.0  0.06912  0.24346000000000007  0.7915300000000002  1.0000
  H   H28       1.0  0.62762  0.08085999999999997  0.35314  1.0000
  H   H29       1.0  0.90785  0.3846400000000001  0.7450300000000002  1.0000
  H   H30       1.0  0.74027  0.7439499999999998  0.36019  1.0000
  H   H31       1.0  0.11088  0.77887  0.6797200000000002  1.0000
  H   H32       1.0  0.71633  0.4866999999999998  0.43989  1.0000
  H   H33       1.0  0.60906  0.8657399999999997  0.3856100000000001  1.0000
  H   H34       1.0  0.17327  0.56208  0.4394200000000001  1.0000
  H   H35       1.0  0.29039000000000004  0.71273  0.17821000000000006  1.0000
  H   H36       1.0  0.4074  0.61601  0.25548  1.0000
  H   H37       1.0  0.90031  0.5495599999999998  0.6305  1.0000
  H   H38       1.0  0.6573700000000001  0.89531  0.20664  1.0000
  H   H39       1.0  0.6527  0.15913  0.65574  1.0000
  H   H40       1.0  0.79389  0.72713  0.08177  1.0000
  H   H41       1.0  0.27693  0.09954999999999997  0.77767  1.0000
  H   H42       1.0  0.62698  0.6599199999999997  0.20901000000000006  1.0000
  H   H43       1.0  0.73555  0.54923  0.7583800000000003  1.0000
  H   H44       1.0  0.49164  0.20496000000000006  0.3087200000000001  1.0000
  H   H45       1.0  0.17578  0.2841900000000002  0.9398300000000003  1.0000
  H   H46       1.0  0.84013  0.8768699999999998  0.43830000000000013  1.0000
  H   H47       1.0  0.12769  0.9194300000000002  0.6468900000000002  1.0000
  H   H48       1.0  0.2175  0.5139299999999998  0.5594  1.0000
  H   H49       1.0  0.26807  0.6227699999999998  0.004210000000000001  1.0000
  H   H50       1.0  0.3244  0.30983999999999984  0.10365  1.0000
  H   H51       1.0  0.5497  0.44037000000000004  0.9534400000000002  1.0000
  H   H52       1.0  0.50567  0.5598099999999999  0.12274  1.0000
  H   H53       1.0  0.10526  0.75168  0.51212  1.0000
  H   H54       1.0  0.07383  0.63912  0.38673000000000013  1.0000
  H   H55       1.0  0.99165  0.7948799999999998  0.6913  1.0000
  H   H56       1.0  0.23460000000000006  0.36999  0.9197800000000003  1.0000
  H   H57       1.0  0.04986  0.56015  0.04746  1.0000
  H   H58       1.0  0.44284  0.3851899999999999  0.5181800000000001  1.0000
  H   H59       1.0  0.29368  0.54864  0.3395500000000001  1.0000
  H   H60       1.0  0.7040300000000002  0.92749  0.32185000000000014  1.0000
  H   H61       1.0  0.40216  0.20851999999999996  0.44994  1.0000
  H   H62       1.0  0.46086  0.2095599999999999  0.54762  1.0000
  H   H63       1.0  0.37108  0.39315  0.07219  1.0000
  H   H64       1.0  0.67319  0.4386  0.5603700000000003  1.0000
  H   H65       1.0  0.73368  0.62984  0.08088000000000002  1.0000
  H   H66       1.0  0.6754500000000001  0.7153599999999998  0.06026000000000001  1.0000
  H   H67       1.0  0.06699  0.9189099999999999  0.55015  1.0000
  H   H68       1.0  0.98702  0.3442199999999999  0.5042  1.0000
  H   H69       1.0  0.8251200000000001  0.6905699999999998  0.8965900000000002  1.0000
  H   H70       1.0  0.60568  0.24852  0.4878200000000001  1.0000
  H   H71       1.0  0.23986000000000005  0.21286  0.4727800000000001  1.0000
  H   H72       1.0  0.6015500000000001  0.9953399999999998  0.61872  1.0000
  H   H73       1.0  0.95706  0.46394999999999986  0.28737  1.0000
  H   H74       1.0  0.10185  0.004220000000000056  0.38063000000000013  1.0000
  H   H75       1.0  0.961  0.6464599999999998  0.72752  1.0000
  H   H76       1.0  0.43851  0.48899999999999993  0.24053000000000005  1.0000
  H   H77       1.0  0.40521  0.74002  0.21272000000000002  1.0000
  H   H78       1.0  0.53854  0.3202699999999999  0.3920800000000001  1.0000
  H   H79       1.0  0.38332  0.9549799999999999  0.5137500000000002  1.0000
  H   H80       1.0  0.27275  0.24033000000000004  0.7517100000000002  1.0000
  H   H81       1.0  0.15768  0.10438000000000011  0.7934600000000003  1.0000
  H   H82       1.0  0.94127  0.61464  0.48220000000000013  1.0000
  H   H83       1.0  0.8193  0.5033299999999998  0.15987000000000007  1.0000
  H   H84       1.0  0.43496  0.6193700000000001  0.6234200000000002  1.0000
  H   H85       1.0  0.03823  0.6797099999999998  0.60783  1.0000
  H   H86       1.0  0.5670400000000002  0.08124000000000005  0.4499300000000001  1.0000
  H   H87       1.0  0.93907  0.51185  0.7596900000000002  1.0000
  H   H88       1.0  0.57487  0.36126  0.6141700000000002  1.0000
  H   H89       1.0  0.15263  0.8407599999999995  0.34416  1.0000
  H   H90       1.0  0.87187  0.6074299999999998  0.92804  1.0000
  H   H91       1.0  0.23500000000000001  0.4508899999999999  0.24191000000000004  1.0000
  H   H92       1.0  0.90506  0.26019  0.7871800000000002  1.0000
  H   H93       1.0  0.31977  0.49669  0.8400800000000003  1.0000
  H   H94       1.0  0.8838  0.045840000000000054  0.4872800000000001  1.0000
  H   H95       1.0  0.56814  0.7566799999999998  0.20874  1.0000
  H   H96       1.0  0.20473000000000002  0.07228000000000012  0.6784600000000002  1.0000
  H   H97       1.0  0.57254  0.5284799999999998  0.7399000000000002  1.0000
  H   H98       1.0  0.96033  0.79029  0.45251000000000013  1.0000
  H   H99       1.0  0.94436  0.6794  0.90129  1.0000
  H   H100      1.0  0.45768  0.5355500000000002  0.7130800000000003  1.0000
  H   H101      1.0  0.48589  0.6556199999999998  0.4963300000000001  1.0000
  H   H102      1.0  0.00922  0.94037  0.6571200000000003  1.0000
  C   C1        1.0  0.6651  0.002590000000000118  0.5883000000000003  1.0000
  C   C2        1.0  0.16528  0.9973899999999998  0.4115000000000001  1.0000
  C   C3        1.0  0.1555  0.4863200000000001  0.5175100000000001  1.0000
  C   C4        1.0  0.11  0.21454000000000012  0.6494900000000002  1.0000
  C   C5        1.0  0.68499  0.3850999999999999  0.75279  1.0000
  C   C6        1.0  0.6935  0.09501999999999998  0.61011  1.0000
  C   C7        1.0  0.60957  0.7860199999999998  0.35084  1.0000
  C   C8        1.0  0.38071  0.4402999999999999  0.22796000000000005  1.0000
  C   C9        1.0  0.79712  0.9368299999999998  0.48878  1.0000
  C   C10       1.0  0.63021  0.4889999999999999  0.5510800000000001  1.0000
  C   C11       1.0  0.62617  0.7395  0.24076000000000003  1.0000
  C   C12       1.0  0.13047  0.5114999999999997  0.4488900000000001  1.0000
  C   C13       1.0  0.19346  0.9050499999999998  0.38989  1.0000
  C   C14       1.0  0.96324  0.44942  0.9377800000000002  1.0000
  C   C15       1.0  0.89706  0.6057300000000002  0.7080200000000002  1.0000
  C   C16       1.0  0.71269  0.8797499999999998  0.24293000000000003  1.0000
  C   C17       1.0  0.01779  0.24786  0.6322700000000002  1.0000
  C   C18       1.0  0.29303  0.5005599999999998  0.2598700000000001  1.0000
  C   C19       1.0  0.71386  0.7716599999999998  0.21258  1.0000
  C   C20       1.0  0.77693  0.4361599999999999  0.78653  1.0000
  C   C21       1.0  0.33157  0.5851299999999998  0.9970200000000002  1.0000
  C   C22       1.0  0.35543  0.68059  0.18026  1.0000
  C   C23       1.0  0.49838  0.5887  0.58555  1.0000
  C   C24       1.0  0.99867  0.41136  0.4151300000000001  1.0000
  C   C25       1.0  0.5478800000000001  0.21198999999999996  0.43913  1.0000
  C   C26       1.0  0.51743  0.7529799999999998  0.3682  1.0000
  C   C27       1.0  0.85994  0.4851899999999999  0.09576000000000003  1.0000
  C   C28       1.0  0.29717  0.06362000000000011  0.5116000000000003  1.0000
  C   C29       1.0  0.94256  0.64905  0.43711  1.0000
  C   C30       1.0  0.21468  0.2282399999999999  0.78776  1.0000
  C   C31       1.0  0.38378  0.6049599999999999  0.07838000000000003  1.0000
  C   C32       1.0  0.88383  0.39506  0.9218000000000002  1.0000
  C   C33       1.0  0.46021  0.24071999999999993  0.4995  1.0000
  C   C34       1.0  0.022060000000000003  0.49866999999999995  0.31989  1.0000
  C   C35       1.0  0.37972  0.36208  0.1197  1.0000
  C   C36       1.0  0.71766  0.9213399999999999  0.52722  1.0000
  C   C37       1.0  0.73002  0.70724  0.10255000000000002  1.0000
  C   C38       1.0  0.65462  0.51405  0.48220000000000013  1.0000
  C   C39       1.0  0.36023  0.51485  0.9043300000000002  1.0000
  C   C40       1.0  0.23067  0.2925400000000002  0.8979400000000002  1.0000
  C   C41       1.0  0.0275  0.3898999999999999  0.48567  1.0000
  C   C42       1.0  0.8804200000000002  0.63855  0.8805400000000002  1.0000
  C   C43       1.0  0.52655  0.6101099999999998  0.51478  1.0000
  C   C44       1.0  0.21784  0.07886000000000003  0.47289000000000003  1.0000
  C   C45       1.0  0.547  0.24145000000000003  0.3609200000000001  1.0000
  C   C46       1.0  0.21319  0.12012000000000012  0.7574100000000002  1.0000
  C   C47       1.0  0.12722  0.26063  0.7595  1.0000
  C   C48       1.0  0.85081  0.6318999999999998  0.3856600000000001  1.0000
  C   C49       1.0  0.18472  0.6149899999999998  0.24760000000000004  1.0000
  C   C50       1.0  0.52273  0.50139  0.68062  1.0000
  C   C51       1.0  0.32155  0.9694999999999998  0.48627  1.0000
  C   C52       1.0  0.05089  0.47254  0.3950100000000001  1.0000
  C   C53       1.0  0.88127  0.5603200000000003  0.7722800000000002  1.0000
  C   C54       1.0  0.98798  0.51792  0.03234000000000001  1.0000
  C   C55       1.0  0.95967  0.7591899999999998  0.50072  1.0000
  C   C56       1.0  0.35227  0.36809  0.6144500000000003  1.0000
  C   C57       1.0  0.18972  0.18054999999999993  0.4992500000000001  1.0000
  C   C58       1.0  0.04761000000000001  0.7880600000000001  0.5609000000000002  1.0000
  C   C59       1.0  0.06369000000000001  0.8980199999999998  0.6063400000000001  1.0000
  C   C60       1.0  0.56371  0.10208000000000003  0.3937100000000001  1.0000
  C   C61       1.0  0.8313500000000003  0.41481  0.00294  1.0000
  C   C62       1.0  0.04687  0.7585499999999997  0.63907  1.0000
  C   C63       1.0  0.48791  0.4824299999999999  0.96835  1.0000
  C   C64       1.0  0.8218  0.031029999999999957  0.5143  1.0000
  C   C65       1.0  0.39661  0.39487  0.29214  1.0000
  C   C66       1.0  0.44386  0.35083000000000003  0.5633100000000001  1.0000
  C   C67       1.0  0.55096  0.52772  0.6054  1.0000
  C   C68       1.0  0.7935  0.49975  0.7404000000000002  1.0000
  C   C69       1.0  0.46300000000000013  0.55078  0.06277  1.0000
  C   C70       1.0  0.68917  0.8196499999999998  0.50091  1.0000
  C   C71       1.0  0.85548  0.31956  0.81974  1.0000
  C   C72       1.0  0.27647  0.5641299999999998  0.21379000000000006  1.0000
  Br  Br1       1.0  0.47793  0.20052999999999996  0.72835  1.0000
  Br  Br2       1.0  0.31101  0.73025  0.5293900000000001  1.0000
  Br  Br3       1.0  0.14559  0.53021  0.79957  1.0000
  Br  Br4       1.0  0.64366  0.47010999999999986  0.20003000000000004  1.0000
  Br  Br5       1.0  0.9780400000000001  0.7990299999999996  0.27159  1.0000
  Br  Br6       1.0  0.81106  0.27002000000000004  0.4707900000000001  1.0000
  N   N1        1.0  0.01269  0.6050699999999998  0.36056  1.0000
  N   N2        1.0  0.60403  0.5743199999999999  0.4645700000000001  1.0000
  N   N3        1.0  0.18009  0.2472500000000001  0.6057300000000002  1.0000
  N   N4        1.0  0.51372  0.39495  0.6401800000000002  1.0000
  N   N5        1.0  0.10533000000000001  0.4258099999999999  0.53546  1.0000
  N   N6        1.0  0.43785  0.4649800000000001  0.8899200000000003  1.0000
  N   N7        1.0  0.93772  0.5352899999999998  0.11062000000000002  1.0000
  N   N8        1.0  0.84652  0.35934  0.75349  1.0000
  N   N9        1.0  0.34621  0.6411  0.24672  1.0000
  N   N10       1.0  0.2709800000000001  0.8909299999999999  0.42579000000000006  1.0000
  N   N11       1.0  0.67917  0.7529799999999998  0.39449000000000006  1.0000
  N   N12       1.0  0.77123  0.1093700000000001  0.5746300000000001  1.0000
  O   O1        1.0  0.45013  0.8083799999999998  0.38344  1.0000
  O   O2        1.0  0.6175  0.42515  0.80814  1.0000
  O   O3        1.0  0.28459000000000007  0.38333000000000006  0.5747700000000001  1.0000
  O   O4        1.0  0.84879  0.63823  0.30890000000000006  1.0000
  O   O5        1.0  0.11715  0.5748599999999998  0.19223  1.0000
  O   O6        1.0  0.51364  0.66998  0.36205  1.0000
  O   O7        1.0  0.6816400000000001  0.30792  0.6696000000000002  1.0000
  O   O8        1.0  0.95039  0.19202000000000005  0.6165700000000002  1.0000
  O   O9        1.0  0.78258  0.6168400000000002  0.42491000000000007  1.0000
  O   O10       1.0  0.01417  0.3309699999999999  0.63884  1.0000
  O   O11       1.0  0.3494  0.36192000000000013  0.6912600000000002  1.0000
  O   O12       1.0  0.18157  0.6920999999999998  0.33089  1.0000
