data_image0
_chemical_formula_structural       Dy8H24C72S12O48
_chemical_formula_sum              "Dy8 H24 C72 S12 O48"
_cell_length_a       12.18929
_cell_length_b       17.10328
_cell_length_c       18.06566
_cell_angle_alpha    110.40878
_cell_angle_beta     89.85499
_cell_angle_gamma    90.01316

_space_group_name_H-M_alt    "P 1"
_space_group_IT_number       1

loop_
  _space_group_symop_operation_xyz
  'x, y, z'

loop_
  _atom_site_type_symbol
  _atom_site_label
  _atom_site_symmetry_multiplicity
  _atom_site_fract_x
  _atom_site_fract_y
  _atom_site_fract_z
  _atom_site_occupancy
  Dy  Dy1       1.0  0.93093  0.9997500000000001  0.9054700000000002  1.0000
  Dy  Dy2       1.0  0.44183  0.49601  0.59758  1.0000
  Dy  Dy3       1.0  0.9280699999999997  0.0020100000000000244  0.59464  1.0000
  Dy  Dy4       1.0  0.44714  0.5059300000000001  0.9049000000000003  1.0000
  Dy  Dy5       1.0  0.06901  0.00046000000000000104  0.09469  1.0000
  Dy  Dy6       1.0  0.55813  0.50402  0.40247  1.0000
  Dy  Dy7       1.0  0.06901  0.99982  0.40887  1.0000
  Dy  Dy8       1.0  0.55275  0.49432  0.09559000000000001  1.0000
  H   H1        1.0  0.33392  0.71238  0.68488  1.0000
  H   H2        1.0  0.2068  0.84579  0.74965  1.0000
  H   H3        1.0  0.04512  0.80422  0.57773  1.0000
  H   H4        1.0  0.73286  0.8219100000000003  0.797  1.0000
  H   H5        1.0  0.6107999999999999  0.68931  0.7172900000000002  1.0000
  H   H6        1.0  0.14534999999999998  0.67211  0.59225  1.0000
  H   H7        1.0  0.33377999999999997  0.28798  0.81597  1.0000
  H   H8        1.0  0.20703  0.15418  0.75125  1.0000
  H   H9        1.0  0.04433  0.19458  0.92271  1.0000
  H   H10       1.0  0.73138  0.17919999999999994  0.70328  1.0000
  H   H11       1.0  0.61004  0.31132000000000004  0.7837300000000003  1.0000
  H   H12       1.0  0.14269  0.3263100000000001  0.9062500000000002  1.0000
  H   H13       1.0  0.6663  0.28753  0.31495  1.0000
  H   H14       1.0  0.79326  0.15392  0.24994  1.0000
  H   H15       1.0  0.95437  0.19536  0.42289  1.0000
  H   H16       1.0  0.26685  0.17782  0.20315  1.0000
  H   H17       1.0  0.38880999999999993  0.31056  0.2826300000000001  1.0000
  H   H18       1.0  0.85495  0.3275  0.40776  1.0000
  H   H19       1.0  0.6666599999999999  0.71235  0.18436000000000005  1.0000
  H   H20       1.0  0.7929799999999999  0.84608  0.24951000000000004  1.0000
  H   H21       1.0  0.95544  0.80587  0.07687  1.0000
  H   H22       1.0  0.26849  0.82115  0.29716  1.0000
  H   H23       1.0  0.38969  0.6888  0.21627  1.0000
  H   H24       1.0  0.85755  0.67416  0.09367000000000002  1.0000
  C   C1        1.0  0.88083  0.8839  0.70477  1.0000
  C   C2        1.0  0.40685999999999994  0.62547  0.7846  1.0000
  C   C3        1.0  0.8053599999999999  0.8124900000000002  0.68394  1.0000
  C   C4        1.0  0.3436699999999999  0.7028200000000001  0.8016900000000002  1.0000
  C   C5        1.0  0.22911  0.8279000000000002  0.86192  1.0000
  C   C6        1.0  0.16625  0.80004  0.4878  1.0000
  C   C7        1.0  0.25924  0.6774300000000001  0.5012700000000002  1.0000
  C   C8        1.0  0.31098  0.73859  0.74688  1.0000
  C   C9        1.0  0.15977  0.8960299999999999  0.91368  1.0000
  C   C10       1.0  0.24417999999999998  0.8090100000000001  0.7810800000000002  1.0000
  C   C11       1.0  0.3375599999999999  0.61001  0.49732  1.0000
  C   C12       1.0  0.6961  0.68883  0.61114  1.0000
  C   C13       1.0  0.64776  0.61872  0.54776  1.0000
  C   C14       1.0  0.1342  0.87249  0.46777  1.0000
  C   C15       1.0  0.11636  0.7730700000000001  0.54399  1.0000
  C   C16       1.0  0.7357299999999999  0.7886700000000002  0.7335400000000002  1.0000
  C   C17       1.0  0.67234  0.7183100000000001  0.6916300000000002  1.0000
  C   C18       1.0  0.16950999999999994  0.70339  0.55176  1.0000
  C   C19       1.0  0.8804799999999998  0.11681  0.79481  1.0000
  C   C20       1.0  0.40463  0.37632  0.71712  1.0000
  C   C21       1.0  0.80519  0.18834  0.81605  1.0000
  C   C22       1.0  0.34372  0.2978  0.69935  1.0000
  C   C23       1.0  0.22972  0.17253000000000004  0.63908  1.0000
  C   C24       1.0  0.16639  0.19989  0.011940000000000003  1.0000
  C   C25       1.0  0.25793  0.32205000000000006  0.9968600000000001  1.0000
  C   C26       1.0  0.31123  0.2616  0.75399  1.0000
  C   C27       1.0  0.16094  0.10436000000000006  0.5871300000000003  1.0000
  C   C28       1.0  0.24453999999999998  0.19114000000000006  0.7198500000000002  1.0000
  C   C29       1.0  0.33584  0.38966  0.00148  1.0000
  C   C30       1.0  0.6961999999999999  0.31177  0.88924  1.0000
  C   C31       1.0  0.64808  0.38127000000000005  0.9528600000000002  1.0000
  C   C32       1.0  0.13531  0.12733  0.03235  1.0000
  C   C33       1.0  0.11557999999999999  0.22624  0.95577  1.0000
  C   C34       1.0  0.735  0.21198  0.76678  1.0000
  C   C35       1.0  0.6717799999999999  0.28233  0.80901  1.0000
  C   C36       1.0  0.16807999999999995  0.2957  0.94696  1.0000
  C   C37       1.0  0.11863999999999998  0.11595  0.29566  1.0000
  C   C38       1.0  0.5931599999999999  0.3745299999999999  0.21532  1.0000
  C   C39       1.0  0.19467  0.18701000000000007  0.3162900000000001  1.0000
  C   C40       1.0  0.6562699999999998  0.29714  0.19808000000000006  1.0000
  C   C41       1.0  0.77074  0.17212000000000002  0.13784000000000005  1.0000
  C   C42       1.0  0.8325799999999999  0.20041  0.51285  1.0000
  C   C43       1.0  0.74062  0.32273  0.4988  1.0000
  C   C44       1.0  0.68899  0.26135  0.2529000000000001  1.0000
  C   C45       1.0  0.8401499999999998  0.10419  0.08602  1.0000
  C   C46       1.0  0.75575  0.1909  0.21869  1.0000
  C   C47       1.0  0.66262  0.3901500000000001  0.5026800000000002  1.0000
  C   C48       1.0  0.30369  0.31099  0.38889  1.0000
  C   C49       1.0  0.35219  0.38109  0.45225  1.0000
  C   C50       1.0  0.86368  0.12855000000000003  0.53385  1.0000
  C   C51       1.0  0.88308  0.22679999999999997  0.45646  1.0000
  C   C52       1.0  0.2641  0.21092000000000002  0.26662000000000013  1.0000
  C   C53       1.0  0.3273699999999999  0.28146  0.30836  1.0000
  C   C54       1.0  0.83039  0.2964800000000001  0.44838000000000006  1.0000
  C   C55       1.0  0.11836  0.88383  0.20613  1.0000
  C   C56       1.0  0.59539  0.6236  0.283  1.0000
  C   C57       1.0  0.19451999999999994  0.81251  0.18497  1.0000
  C   C58       1.0  0.65606  0.70216  0.30084  1.0000
  C   C59       1.0  0.76984  0.8275500000000001  0.3617700000000001  1.0000
  C   C60       1.0  0.83322  0.80035  0.98774  1.0000
  C   C61       1.0  0.74204  0.67798  0.00296  1.0000
  C   C62       1.0  0.68883  0.73861  0.24644000000000002  1.0000
  C   C63       1.0  0.8382699999999997  0.89597  0.41421  1.0000
  C   C64       1.0  0.7554099999999999  0.80909  0.2809  1.0000
  C   C65       1.0  0.6643399999999998  0.6103300000000002  0.9985200000000001  1.0000
  C   C66       1.0  0.30335  0.68877  0.11087  1.0000
  C   C67       1.0  0.35156  0.61914  0.04726  1.0000
  C   C68       1.0  0.8639  0.87286  0.9670100000000001  1.0000
  C   C69       1.0  0.8841699999999999  0.77407  0.04393  1.0000
  C   C70       1.0  0.26489  0.78833  0.23372000000000007  1.0000
  C   C71       1.0  0.32798999999999995  0.7179600000000002  0.19109000000000007  1.0000
  C   C72       1.0  0.83189  0.70454  0.05284  1.0000
  S   S1        1.0  0.2954  0.75764  0.89564  1.0000
  S   S2        1.0  0.79438  0.74834  0.58647  1.0000
  S   S3        1.0  0.27744  0.73833  0.44335  1.0000
  S   S4        1.0  0.29589  0.24313000000000004  0.60545  1.0000
  S   S5        1.0  0.7949699999999998  0.25271999999999994  0.91351  1.0000
  S   S6        1.0  0.27711  0.2619600000000001  0.05540000000000001  1.0000
  S   S7        1.0  0.70437  0.24228  0.10411000000000002  1.0000
  S   S8        1.0  0.20571  0.25132  0.41365  1.0000
  S   S9        1.0  0.7215999999999999  0.26233  0.55697  1.0000
  S   S10       1.0  0.70351  0.75668  0.39489000000000013  1.0000
  S   S11       1.0  0.20466  0.74857  0.08734  1.0000
  S   S12       1.0  0.7226799999999998  0.7380200000000001  0.9443500000000002  1.0000
  O   O1        1.0  0.41659  0.5935  0.8378  1.0000
  O   O2        1.0  0.92597  0.89959  0.64686  1.0000
  O   O3        1.0  0.4496299999999999  0.59445  0.71548  1.0000
  O   O4        1.0  0.8983999999999998  0.9253  0.7769  1.0000
  O   O5        1.0  0.05282999999999999  0.9182  0.5048  1.0000
  O   O6        1.0  0.40838  0.59023  0.44129  1.0000
  O   O7        1.0  0.08996999999999998  0.92616  0.8778700000000003  1.0000
  O   O8        1.0  0.32965  0.57811  0.55142  1.0000
  O   O9        1.0  0.5672  0.57715  0.56227  1.0000
  O   O10       1.0  0.17262  0.91927  0.9885800000000001  1.0000
  O   O11       1.0  0.6844699999999999  0.6016  0.47781000000000007  1.0000
  O   O12       1.0  0.18418999999999994  0.89056  0.4137600000000001  1.0000
  O   O13       1.0  0.40975  0.41015  0.66488  1.0000
  O   O14       1.0  0.9288699999999999  0.1021600000000001  0.8519800000000001  1.0000
  O   O15       1.0  0.44925  0.40631  0.78542  1.0000
  O   O16       1.0  0.8941199999999998  0.07384999999999999  0.72257  1.0000
  O   O17       1.0  0.05423  0.08178000000000003  0.99567  1.0000
  O   O18       1.0  0.40317999999999987  0.41039  0.059489999999999994  1.0000
  O   O19       1.0  0.08891999999999997  0.07478000000000008  0.6220100000000002  1.0000
  O   O20       1.0  0.33258  0.42121  0.94713  1.0000
  O   O21       1.0  0.56686  0.42251  0.93861  1.0000
  O   O22       1.0  0.17658  0.08010999999999997  0.51229  1.0000
  O   O23       1.0  0.68461  0.39855  0.022570000000000007  1.0000
  O   O24       1.0  0.18487999999999996  0.10907999999999998  0.08626  1.0000
  O   O25       1.0  0.58347  0.40667  0.16224  1.0000
  O   O26       1.0  0.07290999999999999  0.10086  0.35372  1.0000
  O   O27       1.0  0.55042  0.4055  0.28443  1.0000
  O   O28       1.0  0.10159999999999998  0.07472000000000001  0.22334  1.0000
  O   O29       1.0  0.94456  0.08216000000000002  0.49683000000000005  1.0000
  O   O30       1.0  0.5918099999999998  0.40988  0.55872  1.0000
  O   O31       1.0  0.90996  0.07434  0.12204000000000001  1.0000
  O   O32       1.0  0.67101  0.42202  0.44861  1.0000
  O   O33       1.0  0.43290999999999996  0.42249000000000003  0.43764  1.0000
  O   O34       1.0  0.82756  0.08094  0.01107  1.0000
  O   O35       1.0  0.31551  0.39837  0.52223  1.0000
  O   O36       1.0  0.81348  0.11153000000000009  0.5883800000000002  1.0000
  O   O37       1.0  0.59009  0.5896400000000002  0.3350900000000001  1.0000
  O   O38       1.0  0.07285  0.89858  0.14778  1.0000
  O   O39       1.0  0.55075  0.59352  0.21468  1.0000
  O   O40       1.0  0.10074  0.92539  0.27809  1.0000
  O   O41       1.0  0.9452  0.91833  0.0037  1.0000
  O   O42       1.0  0.59701  0.5895300000000001  0.9405000000000002  1.0000
  O   O43       1.0  0.9102099999999997  0.9252  0.37897  1.0000
  O   O44       1.0  0.6675899999999999  0.57876  0.05285  1.0000
  O   O45       1.0  0.43288  0.57781  0.06153999999999999  1.0000
  O   O46       1.0  0.82282  0.92068  0.48905  1.0000
  O   O47       1.0  0.31526  0.60164  0.97746  1.0000
  O   O48       1.0  0.81362  0.891  0.91326  1.0000
