data_image0
_chemical_formula_structural       Co6H66C57N6O24
_chemical_formula_sum              "Co6 H66 C57 N6 O24"
_cell_length_a       8.23759
_cell_length_b       17.26079
_cell_length_c       17.2626
_cell_angle_alpha    117.40467
_cell_angle_beta     99.10966999999998
_cell_angle_gamma    99.19899

_symmetry_space_group_name_H-M    'P 1'
_symmetry_Int_Tables_number       1

loop_
  _symmetry_equiv_pos_as_xyz
  'x,y,z'

loop_
  _atom_site_type_symbol
  _atom_site_label
  _atom_site_symmetry_multiplicity
  _atom_site_fract_x
  _atom_site_fract_y
  _atom_site_fract_z
  _atom_site_occupancy
  Co  Co1       1.0  0.41015000000000007  0.83905  0.06432  1.0000
  Co  Co2       1.0  0.9672500000000002  0.15909000000000012  0.9366600000000003  1.0000
  Co  Co3       1.0  0.56816  0.22538999999999998  0.16166000000000005  1.0000
  Co  Co4       1.0  0.81143  0.77855  0.84064  1.0000
  Co  Co5       1.0  0.34515000000000007  0.93566  0.7743600000000003  1.0000
  Co  Co6       1.0  0.034319999999999996  0.06357999999999998  0.22306  1.0000
  H   H1        1.0  0.71029  0.5574400000000002  0.025030000000000007  1.0000
  H   H2        1.0  0.8426799999999999  0.70979  0.10550000000000002  1.0000
  H   H3        1.0  0.9879400000000002  0.74043  0.05231  1.0000
  H   H4        1.0  0.06548000000000005  0.7464400000000001  0.15653000000000003  1.0000
  H   H5        1.0  0.67099  0.33562999999999993  0.97837  1.0000
  H   H6        1.0  0.62942  0.32986  0.87198  1.0000
  H   H7        1.0  0.56006  0.40811  0.96102  1.0000
  H   H8        1.0  0.8567600000000001  0.28391  0.8919200000000002  1.0000
  H   H9        1.0  0.06257  0.30463  0.88014  1.0000
  H   H10       1.0  0.39227  0.4919899999999999  0.02815  1.0000
  H   H11       1.0  0.3505  0.50891  0.9344900000000003  1.0000
  H   H12       1.0  0.27698000000000006  0.40024  0.92012  1.0000
  H   H13       1.0  0.40171  0.64092  0.08307  1.0000
  H   H14       1.0  0.28449  0.72155  0.1188  1.0000
  H   H15       1.0  0.10090999999999997  0.6013299999999998  0.8982500000000002  1.0000
  H   H16       1.0  0.25242  0.63898  0.85281  1.0000
  H   H17       1.0  0.48238  0.60239  0.91568  1.0000
  H   H18       1.0  0.5923199999999998  0.6864699999999998  0.029630000000000004  1.0000
  H   H19       1.0  0.92592  0.39816  0.08601  1.0000
  H   H20       1.0  0.07850999999999998  0.36731999999999987  0.14108  1.0000
  H   H21       1.0  0.29700999999999994  0.3949099999999999  0.08124  1.0000
  H   H22       1.0  0.2868400000000001  0.3072500000000001  0.9710200000000002  1.0000
  H   H23       1.0  0.15317000000000006  0.46770000000000006  0.44252000000000014  1.0000
  H   H24       1.0  0.13372  0.39664  0.2904900000000001  1.0000
  H   H25       1.0  0.24761  0.31262  0.25978  1.0000
  H   H26       1.0  0.31996  0.41086  0.2538  1.0000
  H   H27       1.0  0.3349200000000001  0.64261  0.6642000000000002  1.0000
  H   H28       1.0  0.2991000000000001  0.54203  0.6701600000000002  1.0000
  H   H29       1.0  0.15177000000000002  0.55277  0.59167  1.0000
  H   H30       1.0  0.5728999999999999  0.6087199999999998  0.71635  1.0000
  H   H31       1.0  0.75766  0.5757999999999998  0.69591  1.0000
  H   H32       1.0  0.90043  0.5347199999999999  0.50737  1.0000
  H   H33       1.0  0.8404800000000001  0.42497000000000007  0.49252000000000007  1.0000
  H   H34       1.0  0.87669  0.5203199999999999  0.6003300000000001  1.0000
  H   H35       1.0  0.76145  0.44244  0.35977  1.0000
  H   H36       1.0  0.56402  0.39758  0.2787500000000001  1.0000
  H   H37       1.0  0.50408  0.29773  0.40103  1.0000
  H   H38       1.0  0.61768  0.21489000000000003  0.3629300000000001  1.0000
  H   H39       1.0  0.88411  0.31435  0.3966000000000001  1.0000
  H   H40       1.0  0.90462  0.3434799999999999  0.31131  1.0000
  H   H41       1.0  0.52852  0.68795  0.60205  1.0000
  H   H42       1.0  0.71208  0.77234  0.63034  1.0000
  H   H43       1.0  0.90329  0.68598  0.6045000000000003  1.0000
  H   H44       1.0  0.9794300000000001  0.66264  0.69203  1.0000
  H   H45       1.0  0.68422  0.97478  0.53207  1.0000
  H   H46       1.0  0.73515  0.8935599999999998  0.60341  1.0000
  H   H47       1.0  0.9331500000000001  0.9462000000000002  0.6873200000000002  1.0000
  H   H48       1.0  0.9069000000000002  0.8425299999999998  0.58883  1.0000
  H   H49       1.0  0.69332  0.022210000000000008  0.35735  1.0000
  H   H50       1.0  0.75732  0.12848  0.45774  1.0000
  H   H51       1.0  0.59883  0.03921999999999999  0.44683  1.0000
  H   H52       1.0  0.9647099999999998  0.10749999999999998  0.39103  1.0000
  H   H53       1.0  0.18240000000000006  0.12008000000000008  0.4240700000000001  1.0000
  H   H54       1.0  0.3641100000000001  0.97226  0.46467000000000014  1.0000
  H   H55       1.0  0.41523  0.06634  0.57464  1.0000
  H   H56       1.0  0.3562  0.08007000000000004  0.47993  1.0000
  H   H57       1.0  0.31725000000000003  0.91673  0.55826  1.0000
  H   H58       1.0  0.1639400000000001  0.8815100000000001  0.6035000000000003  1.0000
  H   H59       1.0  0.20226  0.10263000000000003  0.70334  1.0000
  H   H60       1.0  0.39844999999999997  0.14702999999999997  0.78669  1.0000
  H   H61       1.0  0.56445  0.08464  0.68613  1.0000
  H   H62       1.0  0.5610200000000001  0.9707  0.6567200000000001  1.0000
  H   H63       1.0  0.84154  0.9134000000000001  0.31241000000000013  1.0000
  H   H64       1.0  0.93948  0.8585  0.22698  1.0000
  H   H65       1.0  0.21732  0.91808  0.31377  1.0000
  H   H66       1.0  0.31726  0.028570000000000016  0.33630000000000004  1.0000
  C   C1        1.0  0.12980999999999993  0.5866099999999999  0.02785  1.0000
  C   C2        1.0  0.13203  0.49457  0.98579  1.0000
  C   C3        1.0  0.9841900000000002  0.4256900000000002  0.9627200000000002  1.0000
  C   C4        1.0  0.8294899999999998  0.44848999999999994  0.97511  1.0000
  C   C5        1.0  0.82924  0.53972  0.01498  1.0000
  C   C6        1.0  0.9768299999999999  0.60951  0.0441  1.0000
  C   C7        1.0  0.9675  0.70628  0.09164  1.0000
  C   C8        1.0  0.66458  0.3768600000000001  0.9453900000000002  1.0000
  C   C9        1.0  0.9859000000000003  0.32799  0.92861  1.0000
  C   C10       1.0  0.29518000000000005  0.47246  0.96601  1.0000
  C   C11       1.0  0.29228  0.6607199999999998  0.059850000000000014  1.0000
  C   C12       1.0  0.20007000000000008  0.66011  0.9119700000000002  1.0000
  C   C13       1.0  0.11535999999999995  0.7342099999999999  0.91665  1.0000
  C   C14       1.0  0.57271  0.73723  0.93821  1.0000
  C   C15       1.0  0.4978300000000001  0.6722500000000001  0.9690200000000002  1.0000
  C   C16       1.0  0.97621  0.34078  0.07916000000000002  1.0000
  C   C17       1.0  0.83825  0.26979  0.07894  1.0000
  C   C18       1.0  0.28055  0.26137  0.06503  1.0000
  C   C19       1.0  0.23477  0.32389  0.029750000000000006  1.0000
  C   C20       1.0  0.54344  0.4413399999999999  0.41368  1.0000
  C   C21       1.0  0.6375300000000003  0.49127  0.50573  1.0000
  C   C22       1.0  0.5587000000000002  0.5373200000000001  0.5745400000000003  1.0000
  C   C23       1.0  0.38115  0.52683  0.55161  1.0000
  C   C24       1.0  0.28982  0.47542999999999996  0.46041  1.0000
  C   C25       1.0  0.36767  0.43479  0.39069  1.0000
  C   C26       1.0  0.26178999999999997  0.3860099999999999  0.29394  1.0000
  C   C27       1.0  0.28751  0.56852  0.62308  1.0000
  C   C28       1.0  0.65813  0.60098  0.67221  1.0000
  C   C29       1.0  0.82251  0.49313999999999997  0.52795  1.0000
  C   C30       1.0  0.63214  0.3994  0.33973  1.0000
  C   C31       1.0  0.54299  0.25256999999999996  0.34184000000000003  1.0000
  C   C32       1.0  0.38301  0.18308  0.26891  1.0000
  C   C33       1.0  0.83601  0.20166  0.2618  1.0000
  C   C34       1.0  0.8267  0.29732  0.3268100000000001  1.0000
  C   C35       1.0  0.6372199999999999  0.7384799999999998  0.65862  1.0000
  C   C36       1.0  0.5729200000000001  0.8105500000000001  0.7297000000000002  1.0000
  C   C37       1.0  0.02275000000000001  0.80238  0.73751  1.0000
  C   C38       1.0  0.91209  0.7052199999999997  0.67548  1.0000
  C   C39       1.0  0.10095000000000003  0.9723  0.55894  1.0000
  C   C40       1.0  0.14573  0.014480000000000002  0.509  1.0000
  C   C41       1.0  0.021310000000000048  0.037530000000000015  0.4630200000000001  1.0000
  C   C42       1.0  0.8541100000000001  0.025210000000000055  0.4734  1.0000
  C   C43       1.0  0.8134099999999999  0.9850999999999999  0.52463  1.0000
  C   C44       1.0  0.9315  0.95581  0.56532  1.0000
  C   C45       1.0  0.87386  0.9075000000000001  0.61395  1.0000
  C   C46       1.0  0.71925  0.05501000000000002  0.43139  1.0000
  C   C47       1.0  0.05768000000000003  0.07127  0.39911  1.0000
  C   C48       1.0  0.32872999999999997  0.03441999999999995  0.50672  1.0000
  C   C49       1.0  0.23100000000000007  0.9402499999999999  0.6011800000000003  1.0000
  C   C50       1.0  0.2866200000000001  0.0881200000000001  0.7480700000000002  1.0000
  C   C51       1.0  0.19619999999999999  0.08276999999999997  0.81691  1.0000
  C   C52       1.0  0.6327700000000002  0.06221000000000011  0.7985300000000002  1.0000
  C   C53       1.0  0.5271  0.031330000000000024  0.70295  1.0000
  C   C54       1.0  0.8987500000000003  0.9204000000000001  0.26189000000000007  1.0000
  C   C55       1.0  0.7614700000000001  0.9208700000000001  0.19110000000000005  1.0000
  C   C56       1.0  0.21783000000000008  0.9351000000000002  0.19685000000000005  1.0000
  C   C57       1.0  0.20662  0.96984  0.29442  1.0000
  N   N1        1.0  0.33871000000000007  0.6900399999999999  0.9936600000000002  1.0000
  N   N2        1.0  0.04818000000000002  0.30475  0.9999  1.0000
  N   N3        1.0  0.64941  0.30401  0.3105900000000001  1.0000
  N   N4        1.0  0.7447200000000002  0.69526  0.6949800000000003  1.0000
  N   N5        1.0  0.34357  0.006509999999999988  0.69632  1.0000
  N   N6        1.0  0.04983999999999996  0.9996899999999999  0.3051  1.0000
  O   O1        1.0  0.1815099999999999  0.81536  0.97934  1.0000
  O   O2        1.0  0.97974  0.70635  0.8538800000000002  1.0000
  O   O3        1.0  0.5398800000000001  0.8134800000000002  0.9688900000000003  1.0000
  O   O4        1.0  0.66582  0.70888  0.8843300000000002  1.0000
  O   O5        1.0  0.80213  0.18785  0.01677  1.0000
  O   O6        1.0  0.76981  0.3005  0.14443  1.0000
  O   O7        1.0  0.17260999999999999  0.18741999999999995  0.03859  1.0000
  O   O8        1.0  0.42988  0.28946  0.11761000000000002  1.0000
  O   O9        1.0  0.36496  0.16455  0.1875  1.0000
  O   O10       1.0  0.27706000000000003  0.14797000000000005  0.2976100000000001  1.0000
  O   O11       1.0  0.72477  0.15566000000000002  0.18639000000000006  1.0000
  O   O12       1.0  0.95952  0.17680000000000004  0.28948  1.0000
  O   O13       1.0  0.61975  0.8310699999999998  0.81194  1.0000
  O   O14       1.0  0.47468999999999995  0.8456799999999998  0.69901  1.0000
  O   O15       1.0  0.9910700000000001  0.85017  0.8120500000000003  1.0000
  O   O16       1.0  0.14362999999999992  0.82611  0.70858  1.0000
  O   O17       1.0  0.19871000000000005  0.01961999999999999  0.83494  1.0000
  O   O18       1.0  0.12417999999999993  0.14584999999999992  0.85218  1.0000
  O   O19       1.0  0.57044  0.03110999999999998  0.8442  1.0000
  O   O20       1.0  0.779  0.11672000000000003  0.8239  1.0000
  O   O21       1.0  0.78712  0.9837399999999998  0.17203  1.0000
  O   O22       1.0  0.6280099999999998  0.8549899999999999  0.15568  1.0000
  O   O23       1.0  0.13528  0.9614399999999999  0.14941  1.0000
  O   O24       1.0  0.31638  0.8835  0.17267000000000005  1.0000
