data_image0
_chemical_formula_structural       Cu16H24C72Se4O60
_chemical_formula_sum              "Cu16 H24 C72 Se4 O60"
_cell_length_a       12.31528
_cell_length_b       14.25262
_cell_length_c       21.395359999999997
_cell_angle_alpha    100.65343000000001
_cell_angle_beta     106.65538
_cell_angle_gamma    89.98839

_symmetry_space_group_name_H-M    'P 1'
_symmetry_Int_Tables_number       1

loop_
  _symmetry_equiv_pos_as_xyz
  'x,y,z'

loop_
  _atom_site_type_symbol
  _atom_site_label
  _atom_site_symmetry_multiplicity
  _atom_site_fract_x
  _atom_site_fract_y
  _atom_site_fract_z
  _atom_site_occupancy
  Cu  Cu1       1.0  0.04109  0.49205  0.4536  1.0000
  Cu  Cu2       1.0  0.56108  0.9576699999999999  0.12162  1.0000
  Cu  Cu3       1.0  0.77721  0.08315  0.10790000000000001  1.0000
  Cu  Cu4       1.0  0.76118  0.32195999999999997  0.07653  1.0000
  Cu  Cu5       1.0  0.58719  0.007889999999999994  0.54646  1.0000
  Cu  Cu6       1.0  0.43957999999999997  0.54236  0.87846  1.0000
  Cu  Cu7       1.0  0.6683999999999999  0.41683  0.8916700000000001  1.0000
  Cu  Cu8       1.0  0.6839700000000001  0.17804999999999999  0.9233  1.0000
  Cu  Cu9       1.0  0.95891  0.50795  0.5464  1.0000
  Cu  Cu10      1.0  0.43891  0.04232000000000001  0.87838  1.0000
  Cu  Cu11      1.0  0.22277999999999992  0.91684  0.8921  1.0000
  Cu  Cu12      1.0  0.2388099999999999  0.67803  0.92347  1.0000
  Cu  Cu13      1.0  0.4128099999999999  0.9921  0.45353999999999994  1.0000
  Cu  Cu14      1.0  0.5604100000000002  0.4576299999999999  0.12154  1.0000
  Cu  Cu15      1.0  0.33159  0.58317  0.10832999999999998  1.0000
  Cu  Cu16      1.0  0.31603  0.8219399999999999  0.0767  1.0000
  H   H1        1.0  0.5817199999999998  0.04888  0.30986  1.0000
  H   H2        1.0  0.83226  0.25661  0.30623  1.0000
  H   H3        1.0  0.7491899999999999  0.25142  0.48822  1.0000
  H   H4        1.0  0.70683  0.70818  0.11898000000000002  1.0000
  H   H5        1.0  0.9996300000000001  0.55362  0.09989  1.0000
  H   H6        1.0  0.99953  0.8570999999999998  0.10435000000000001  1.0000
  H   H7        1.0  0.27192  0.45149  0.69018  1.0000
  H   H8        1.0  0.52567  0.2433  0.69358  1.0000
  H   H9        1.0  0.26103  0.24868  0.51178  1.0000
  H   H10       1.0  0.58771  0.79178  0.88097  1.0000
  H   H11       1.0  0.89956  0.9462799999999997  0.90027  1.0000
  H   H12       1.0  0.89504  0.64278  0.8957299999999999  1.0000
  H   H13       1.0  0.41827  0.9511099999999998  0.69014  1.0000
  H   H14       1.0  0.16773  0.7433799999999998  0.69376  1.0000
  H   H15       1.0  0.2508  0.7485700000000001  0.51177  1.0000
  H   H16       1.0  0.29317000000000004  0.29181  0.88101  1.0000
  H   H17       1.0  0.00036000000000010736  0.44638000000000005  0.9001100000000001  1.0000
  H   H18       1.0  0.0004699999999999967  0.14288999999999993  0.89565  1.0000
  H   H19       1.0  0.7280799999999998  0.54851  0.30982  1.0000
  H   H20       1.0  0.47432  0.75669  0.30642  1.0000
  H   H21       1.0  0.73896  0.7513199999999998  0.48822  1.0000
  H   H22       1.0  0.41228  0.20820999999999995  0.11903000000000001  1.0000
  H   H23       1.0  0.10043  0.05372  0.09973  1.0000
  H   H24       1.0  0.10495  0.3572099999999999  0.10427000000000002  1.0000
  C   C1        1.0  0.59607  0.09698999999999998  0.43998  1.0000
  C   C2        1.0  0.65794  0.14537999999999995  0.4029499999999999  1.0000
  C   C3        1.0  0.64202  0.10896999999999998  0.33553  1.0000
  C   C4        1.0  0.70651  0.14741  0.30097  1.0000
  C   C5        1.0  0.78308  0.22594999999999998  0.33315  1.0000
  C   C6        1.0  0.7962599999999999  0.26433  0.40040000000000003  1.0000
  C   C7        1.0  0.73562  0.22285000000000002  0.43565000000000004  1.0000
  C   C8        1.0  0.87557  0.3493799999999999  0.43567  1.0000
  C   C9        1.0  0.69348  0.10055999999999997  0.23033  1.0000
  C   C10       1.0  0.7828699999999998  0.88115  0.11537  1.0000
  C   C11       1.0  0.84569  0.7916  0.11108  1.0000
  C   C12       1.0  0.79121  0.7065499999999998  0.11288000000000001  1.0000
  C   C13       1.0  0.8446299999999999  0.6201699999999998  0.10755999999999999  1.0000
  C   C14       1.0  0.95571  0.61975  0.10266000000000002  1.0000
  C   C15       1.0  0.011719999999999987  0.7055199999999998  0.10237999999999998  1.0000
  C   C16       1.0  0.95613  0.7912399999999998  0.10543  1.0000
  C   C17       1.0  0.13301  0.70503  0.1009  1.0000
  C   C18       1.0  0.78069  0.53072  0.10767  1.0000
  C   C19       1.0  0.15624000000000002  0.40312  0.55997  1.0000
  C   C20       1.0  0.25508999999999993  0.3548599999999999  0.59705  1.0000
  C   C21       1.0  0.30651000000000006  0.39132  0.66446  1.0000
  C   C22       1.0  0.40538  0.35277  0.69896  1.0000
  C   C23       1.0  0.44969  0.27408  0.66676  1.0000
  C   C24       1.0  0.39576  0.23569999999999988  0.59956  1.0000
  C   C25       1.0  0.30003  0.27724999999999994  0.56433  1.0000
  C   C26       1.0  0.43996  0.15063  0.56433  1.0000
  C   C27       1.0  0.4630099999999999  0.39944  0.76953  1.0000
  C   C28       1.0  0.6677  0.6186999999999999  0.88464  1.0000
  C   C29       1.0  0.73452  0.70834  0.8889500000000001  1.0000
  C   C30       1.0  0.6782  0.7933899999999998  0.8871600000000001  1.0000
  C   C31       1.0  0.7368899999999999  0.8797999999999998  0.89255  1.0000
  C   C32       1.0  0.8528199999999999  0.88019  0.8974800000000002  1.0000
  C   C33       1.0  0.9090899999999997  0.7944  0.8977499999999999  1.0000
  C   C34       1.0  0.85057  0.7086599999999998  0.89465  1.0000
  C   C35       1.0  0.03185  0.79503  0.8993900000000001  1.0000
  C   C36       1.0  0.67276  0.96921  0.89236  1.0000
  C   C37       1.0  0.40392  0.9029999999999997  0.56002  1.0000
  C   C38       1.0  0.34206  0.8546099999999999  0.59705  1.0000
  C   C39       1.0  0.35798  0.89102  0.66447  1.0000
  C   C40       1.0  0.29348999999999986  0.8525899999999997  0.69903  1.0000
  C   C41       1.0  0.21691  0.77404  0.66685  1.0000
  C   C42       1.0  0.20372999999999997  0.7356700000000002  0.5996  1.0000
  C   C43       1.0  0.26437  0.7771399999999996  0.56434  1.0000
  C   C44       1.0  0.12443  0.6506199999999998  0.56433  1.0000
  C   C45       1.0  0.30652  0.89943  0.76967  1.0000
  C   C46       1.0  0.21713  0.11884999999999997  0.88463  1.0000
  C   C47       1.0  0.15431  0.20838999999999994  0.88892  1.0000
  C   C48       1.0  0.2087800000000001  0.2934399999999999  0.8871200000000001  1.0000
  C   C49       1.0  0.15535999999999997  0.3798199999999999  0.89244  1.0000
  C   C50       1.0  0.04428  0.3802399999999999  0.89734  1.0000
  C   C51       1.0  0.9882800000000002  0.29447  0.8976200000000001  1.0000
  C   C52       1.0  0.043869999999999985  0.20875  0.89457  1.0000
  C   C53       1.0  0.86698  0.29496  0.8991  1.0000
  C   C54       1.0  0.2192999999999999  0.46927  0.89233  1.0000
  C   C55       1.0  0.84375  0.59687  0.44003000000000003  1.0000
  C   C56       1.0  0.7449  0.6451399999999998  0.4029499999999999  1.0000
  C   C57       1.0  0.69348  0.60867  0.33554  1.0000
  C   C58       1.0  0.59461  0.6472299999999997  0.30104  1.0000
  C   C59       1.0  0.55031  0.7259099999999998  0.33324  1.0000
  C   C60       1.0  0.60423  0.76429  0.40044  1.0000
  C   C61       1.0  0.69997  0.7227399999999999  0.43567  1.0000
  C   C62       1.0  0.5600399999999999  0.84937  0.43567  1.0000
  C   C63       1.0  0.53698  0.60056  0.23046000000000003  1.0000
  C   C64       1.0  0.3323  0.38129  0.11535999999999999  1.0000
  C   C65       1.0  0.26548  0.2916499999999999  0.11105  1.0000
  C   C66       1.0  0.32179  0.20659999999999992  0.11283999999999998  1.0000
  C   C67       1.0  0.26311  0.12019  0.10745  1.0000
  C   C68       1.0  0.14717  0.1198  0.10251  1.0000
  C   C69       1.0  0.09090000000000001  0.20559  0.10225000000000001  1.0000
  C   C70       1.0  0.14942  0.29133  0.10535  1.0000
  C   C71       1.0  0.96814  0.20496  0.10060000000000001  1.0000
  C   C72       1.0  0.32723  0.030780000000000002  0.10764000000000001  1.0000
  Se  Se1       1.0  0.56247  0.13837  0.03288  1.0000
  Se  Se2       1.0  0.5297599999999999  0.3620300000000001  0.9674200000000001  1.0000
  Se  Se3       1.0  0.43753  0.86163  0.9671200000000001  1.0000
  Se  Se4       1.0  0.47023  0.63797  0.03258  1.0000
  O   O1        1.0  0.49298  0.06729  0.4096  1.0000
  O   O2        1.0  0.65302  0.08735  0.49844  1.0000
  O   O3        1.0  0.86798  0.39005999999999996  0.49283000000000005  1.0000
  O   O4        1.0  0.94401  0.3754099999999999  0.40619  1.0000
  O   O5        1.0  0.63943  0.018420000000000006  0.21233000000000002  1.0000
  O   O6        1.0  0.73545  0.14248  0.1944  1.0000
  O   O7        1.0  0.83679  0.959  0.11835  1.0000
  O   O8        1.0  0.67967  0.86985  0.11471  1.0000
  O   O9        1.0  0.18166  0.6284199999999998  0.11068999999999998  1.0000
  O   O10       1.0  0.17416999999999996  0.7820199999999998  0.09129  1.0000
  O   O11       1.0  0.82496  0.4517299999999999  0.0923  1.0000
  O   O12       1.0  0.68844  0.54234  0.12341999999999999  1.0000
  O   O13       1.0  0.61056  0.02793  0.04521  1.0000
  O   O14       1.0  0.70495  0.19013  0.06383  1.0000
  O   O15       1.0  0.54614  0.14333  0.94814  1.0000
  O   O16       1.0  0.08374  0.43321  0.59043  1.0000
  O   O17       1.0  0.15448  0.4122499999999999  0.50134  1.0000
  O   O18       1.0  0.37551  0.11003999999999997  0.50715  1.0000
  O   O19       1.0  0.53779  0.12455999999999998  0.59384  1.0000
  O   O20       1.0  0.42762  0.4817799999999999  0.78777  1.0000
  O   O21       1.0  0.54049  0.3572099999999999  0.80536  1.0000
  O   O22       1.0  0.7186699999999999  0.54082  0.8812  1.0000
  O   O23       1.0  0.5653599999999999  0.6299799999999998  0.8856899999999999  1.0000
  O   O24       1.0  0.07033000000000005  0.8715099999999999  0.8891800000000001  1.0000
  O   O25       1.0  0.08301000000000007  0.71842  0.9097200000000001  1.0000
  O   O26       1.0  0.73191  0.04832999999999999  0.9078  1.0000
  O   O27       1.0  0.56492  0.9574899999999997  0.8764300000000002  1.0000
  O   O28       1.0  0.56616  0.4723599999999999  0.95514  1.0000
  O   O29       1.0  0.6405999999999997  0.3098499999999999  0.93593  1.0000
  O   O30       1.0  0.59863  0.35663  0.05194  1.0000
  O   O31       1.0  0.50702  0.9327  0.5904  1.0000
  O   O32       1.0  0.34697999999999996  0.9126499999999997  0.50156  1.0000
  O   O33       1.0  0.13200999999999993  0.60993  0.50717  1.0000
  O   O34       1.0  0.055979999999999995  0.6245899999999998  0.59381  1.0000
  O   O35       1.0  0.36057  0.98157  0.78766  1.0000
  O   O36       1.0  0.26455  0.85752  0.8056  1.0000
  O   O37       1.0  0.1632  0.041  0.88165  1.0000
  O   O38       1.0  0.3203199999999998  0.13013999999999995  0.8852899999999999  1.0000
  O   O39       1.0  0.8183399999999997  0.37156999999999984  0.8893099999999999  1.0000
  O   O40       1.0  0.8258299999999998  0.21797  0.90871  1.0000
  O   O41       1.0  0.17504000000000008  0.5482700000000001  0.9077000000000001  1.0000
  O   O42       1.0  0.31154999999999994  0.4576599999999999  0.8765699999999998  1.0000
  O   O43       1.0  0.38943999999999995  0.9720599999999998  0.9547899999999999  1.0000
  O   O44       1.0  0.2950400000000001  0.8098599999999998  0.93617  1.0000
  O   O45       1.0  0.45386  0.8566599999999998  0.051859999999999996  1.0000
  O   O46       1.0  0.91626  0.56679  0.40957  1.0000
  O   O47       1.0  0.84552  0.5877499999999999  0.49866  1.0000
  O   O48       1.0  0.62449  0.88996  0.49285  1.0000
  O   O49       1.0  0.46221  0.87543  0.40616  1.0000
  O   O50       1.0  0.57238  0.5182099999999998  0.21223  1.0000
  O   O51       1.0  0.4595  0.64278  0.19464  1.0000
  O   O52       1.0  0.28132999999999997  0.45918  0.1188  1.0000
  O   O53       1.0  0.43464  0.3700099999999999  0.1143  1.0000
  O   O54       1.0  0.9296599999999999  0.12848  0.11082  1.0000
  O   O55       1.0  0.91698  0.28158  0.09028  1.0000
  O   O56       1.0  0.26809  0.9516599999999998  0.0922  1.0000
  O   O57       1.0  0.43508  0.04251  0.12357  1.0000
  O   O58       1.0  0.43384  0.52763  0.04485  1.0000
  O   O59       1.0  0.3594  0.69015  0.06407  1.0000
  O   O60       1.0  0.40137  0.6433699999999998  0.94806  1.0000
