data_image0
_chemical_formula_structural       Zn4H36C96O24F36
_chemical_formula_sum              "Zn4 H36 C96 O24 F36"
_cell_length_a       8.09355
_cell_length_b       22.80423
_cell_length_c       22.804160000000003
_cell_angle_alpha    107.98111
_cell_angle_beta     90.0
_cell_angle_gamma    90.0

_space_group_name_H-M_alt    "P 1"
_space_group_IT_number       1

loop_
  _space_group_symop_operation_xyz
  'x, y, z'

loop_
  _atom_site_type_symbol
  _atom_site_label
  _atom_site_symmetry_multiplicity
  _atom_site_fract_x
  _atom_site_fract_y
  _atom_site_fract_z
  _atom_site_occupancy
  Zn  Zn1       1.0  0.87084  0.34084000000000003  0.92606  1.0000
  Zn  Zn2       1.0  0.12916  0.92606  0.34084  1.0000
  Zn  Zn3       1.0  0.37084  0.4260600000000001  0.84084  1.0000
  Zn  Zn4       1.0  0.62916  0.8408400000000003  0.42606000000000005  1.0000
  H   H1        1.0  0.75803  0.03185000000000004  0.6932600000000001  1.0000
  H   H2        1.0  0.56451  0.18955000000000002  0.64879  1.0000
  H   H3        1.0  0.68391  0.25824  0.74466  1.0000
  H   H4        1.0  0.62766  0.13145  0.55735  1.0000
  H   H5        1.0  0.43414  0.9201300000000001  0.53659  1.0000
  H   H6        1.0  0.54  0.9851200000000002  0.6365200000000001  1.0000
  H   H7        1.0  0.06031  0.24014000000000002  0.18485000000000001  1.0000
  H   H8        1.0  0.89282  0.08112  0.0389  1.0000
  H   H9        1.0  0.82753  0.14874  0.97521  1.0000
  H   H10       1.0  0.24197  0.69326  0.03185  1.0000
  H   H11       1.0  0.43549  0.6487900000000001  0.18955000000000002  1.0000
  H   H12       1.0  0.31609  0.74466  0.25824  1.0000
  H   H13       1.0  0.37233  0.5573500000000001  0.13145  1.0000
  H   H14       1.0  0.56586  0.5365900000000002  0.9201400000000002  1.0000
  H   H15       1.0  0.46  0.6365200000000002  0.9851300000000002  1.0000
  H   H16       1.0  0.93968  0.18485000000000004  0.24014000000000002  1.0000
  H   H17       1.0  0.10718  0.0389  0.08112  1.0000
  H   H18       1.0  0.17247  0.9752000000000001  0.14874000000000004  1.0000
  H   H19       1.0  0.25803  0.19326  0.53185  1.0000
  H   H20       1.0  0.06451  0.14879  0.68955  1.0000
  H   H21       1.0  0.18391  0.24466000000000004  0.75824  1.0000
  H   H22       1.0  0.12767  0.05735  0.63145  1.0000
  H   H23       1.0  0.93414  0.03659000000000003  0.4201300000000001  1.0000
  H   H24       1.0  0.04  0.13652000000000003  0.48513000000000006  1.0000
  H   H25       1.0  0.56031  0.68485  0.74014  1.0000
  H   H26       1.0  0.39282  0.5389  0.58112  1.0000
  H   H27       1.0  0.32753  0.47520000000000007  0.64874  1.0000
  H   H28       1.0  0.74196  0.5318500000000002  0.19326000000000002  1.0000
  H   H29       1.0  0.93548  0.68955  0.14879  1.0000
  H   H30       1.0  0.81609  0.7582400000000002  0.24466  1.0000
  H   H31       1.0  0.87233  0.6314500000000002  0.057350000000000005  1.0000
  H   H32       1.0  0.06586  0.42013  0.03659  1.0000
  H   H33       1.0  0.95999  0.48512000000000005  0.13652  1.0000
  H   H34       1.0  0.43968  0.7401400000000001  0.68486  1.0000
  H   H35       1.0  0.60718  0.58112  0.53891  1.0000
  H   H36       1.0  0.67247  0.64874  0.47521000000000013  1.0000
  C   C1        1.0  0.8676  0.23177  0.82771  1.0000
  C   C2        1.0  0.78975  0.18483  0.77351  1.0000
  C   C3        1.0  0.80915  0.1201  0.75866  1.0000
  C   C4        1.0  0.741  0.08135000000000006  0.7044  1.0000
  C   C5        1.0  0.65471  0.10532000000000005  0.66313  1.0000
  C   C6        1.0  0.63511  0.1697500000000001  0.6786300000000001  1.0000
  C   C7        1.0  0.7012  0.20857000000000006  0.7327500000000001  1.0000
  C   C8        1.0  0.90065  0.08989000000000003  0.79977  1.0000
  C   C9        1.0  0.58838  0.06436000000000003  0.6051200000000001  1.0000
  C   C10       1.0  0.57972  0.08600000000000001  0.55361  1.0000
  C   C11       1.0  0.52039  0.04933000000000001  0.49705  1.0000
  C   C12       1.0  0.46632  0.9886900000000002  0.4904500000000001  1.0000
  C   C13       1.0  0.4752  0.9669100000000002  0.54172  1.0000
  C   C14       1.0  0.53569  0.0037600000000000073  0.59804  1.0000
  C   C15       1.0  0.52705  0.07595000000000003  0.44393  1.0000
  C   C16       1.0  0.39435  0.9468299999999998  0.43173  1.0000
  C   C17       1.0  0.86198  0.26936000000000004  0.0017100000000000001  1.0000
  C   C18       1.0  0.91349  0.23192  0.04237  1.0000
  C   C19       1.0  0.97969  0.25741  0.10231000000000003  1.0000
  C   C20       1.0  0.01043  0.21974000000000005  0.1388  1.0000
  C   C21       1.0  0.98225  0.15554  0.11658000000000002  1.0000
  C   C22       1.0  0.91906  0.13026  0.05638  1.0000
  C   C23       1.0  0.88265  0.16796000000000003  0.0206  1.0000
  C   C24       1.0  0.0164  0.3255900000000001  0.12871000000000002  1.0000
  C   C25       1.0  0.1324  0.8277100000000001  0.23177  1.0000
  C   C26       1.0  0.21024  0.77351  0.18483  1.0000
  C   C27       1.0  0.19085  0.7586600000000001  0.12010000000000001  1.0000
  C   C28       1.0  0.259  0.7044000000000002  0.08135  1.0000
  C   C29       1.0  0.34529  0.6631300000000001  0.10532  1.0000
  C   C30       1.0  0.36489  0.6786300000000001  0.16975000000000004  1.0000
  C   C31       1.0  0.2988  0.73274  0.20857  1.0000
  C   C32       1.0  0.09934  0.7997700000000001  0.08989000000000001  1.0000
  C   C33       1.0  0.41162  0.60512  0.06436  1.0000
  C   C34       1.0  0.42027  0.5536  0.08600000000000001  1.0000
  C   C35       1.0  0.4796  0.49705000000000005  0.049330000000000006  1.0000
  C   C36       1.0  0.53368  0.4904500000000001  0.98869  1.0000
  C   C37       1.0  0.5248  0.5417200000000001  0.9669200000000001  1.0000
  C   C38       1.0  0.46431  0.59804  0.00376  1.0000
  C   C39       1.0  0.47295  0.44393000000000005  0.07595  1.0000
  C   C40       1.0  0.60565  0.43173  0.9468300000000001  1.0000
  C   C41       1.0  0.13802  0.0017099999999999947  0.26936  1.0000
  C   C42       1.0  0.0865  0.04237  0.23192  1.0000
  C   C43       1.0  0.02031  0.10231000000000001  0.2574100000000001  1.0000
  C   C44       1.0  0.9895700000000001  0.1388  0.21974000000000002  1.0000
  C   C45       1.0  0.01775  0.11658000000000003  0.15554000000000004  1.0000
  C   C46       1.0  0.08094  0.05638000000000001  0.13026  1.0000
  C   C47       1.0  0.11735  0.020600000000000007  0.16796000000000003  1.0000
  C   C48       1.0  0.9836  0.12871  0.3256  1.0000
  C   C49       1.0  0.3676  0.32771  0.73177  1.0000
  C   C50       1.0  0.28976  0.2735100000000001  0.6848300000000002  1.0000
  C   C51       1.0  0.30915  0.25866  0.6201  1.0000
  C   C52       1.0  0.241  0.20440000000000003  0.58135  1.0000
  C   C53       1.0  0.15471  0.16313  0.60532  1.0000
  C   C54       1.0  0.13511  0.17863000000000007  0.66975  1.0000
  C   C55       1.0  0.2012  0.23274  0.70857  1.0000
  C   C56       1.0  0.40066  0.29977  0.58989  1.0000
  C   C57       1.0  0.08838  0.10512000000000003  0.56436  1.0000
  C   C58       1.0  0.07972  0.053610000000000074  0.5860100000000001  1.0000
  C   C59       1.0  0.02039  0.99705  0.54933  1.0000
  C   C60       1.0  0.96632  0.99045  0.4886900000000001  1.0000
  C   C61       1.0  0.9752  0.04172000000000001  0.46691  1.0000
  C   C62       1.0  0.03569  0.09804000000000003  0.50376  1.0000
  C   C63       1.0  0.02705  0.9439300000000002  0.57595  1.0000
  C   C64       1.0  0.89434  0.9317300000000002  0.44683000000000006  1.0000
  C   C65       1.0  0.36198  0.50171  0.76937  1.0000
  C   C66       1.0  0.41349  0.5423700000000001  0.73193  1.0000
  C   C67       1.0  0.47969  0.6023100000000002  0.7574100000000002  1.0000
  C   C68       1.0  0.51043  0.6388000000000001  0.7197400000000002  1.0000
  C   C69       1.0  0.48225  0.61658  0.65554  1.0000
  C   C70       1.0  0.41906  0.5563800000000001  0.63026  1.0000
  C   C71       1.0  0.38265  0.5206  0.66796  1.0000
  C   C72       1.0  0.5164  0.6287100000000001  0.8256  1.0000
  C   C73       1.0  0.6324  0.7317700000000003  0.32771  1.0000
  C   C74       1.0  0.71024  0.68483  0.27351  1.0000
  C   C75       1.0  0.69084  0.6201  0.25866  1.0000
  C   C76       1.0  0.759  0.58135  0.20440000000000003  1.0000
  C   C77       1.0  0.84529  0.60532  0.16313000000000002  1.0000
  C   C78       1.0  0.86489  0.6697500000000001  0.17863  1.0000
  C   C79       1.0  0.7988  0.7085700000000003  0.23274000000000006  1.0000
  C   C80       1.0  0.59934  0.58989  0.29977  1.0000
  C   C81       1.0  0.91162  0.5643600000000001  0.10512  1.0000
  C   C82       1.0  0.92027  0.5860000000000001  0.05360000000000001  1.0000
  C   C83       1.0  0.9796  0.54933  0.9970500000000001  1.0000
  C   C84       1.0  0.03368  0.48869000000000007  0.99045  1.0000
  C   C85       1.0  0.0248  0.4669100000000001  0.04172000000000001  1.0000
  C   C86       1.0  0.96431  0.50376  0.09804000000000002  1.0000
  C   C87       1.0  0.97295  0.57595  0.9439300000000003  1.0000
  C   C88       1.0  0.10565  0.44683000000000006  0.93173  1.0000
  C   C89       1.0  0.63801  0.7693600000000002  0.5017100000000001  1.0000
  C   C90       1.0  0.5865  0.73192  0.54237  1.0000
  C   C91       1.0  0.52031  0.7574100000000002  0.60231  1.0000
  C   C92       1.0  0.48957  0.7197400000000004  0.6388000000000001  1.0000
  C   C93       1.0  0.51775  0.6555400000000002  0.61658  1.0000
  C   C94       1.0  0.58094  0.63026  0.55639  1.0000
  C   C95       1.0  0.61735  0.66796  0.5206  1.0000
  C   C96       1.0  0.4836  0.8255900000000003  0.62871  1.0000
  O   O1        1.0  0.77685  0.2792800000000001  0.8538900000000003  1.0000
  O   O2        1.0  0.01425  0.22465  0.84143  1.0000
  O   O3        1.0  0.2784  0.9711  0.4091500000000001  1.0000
  O   O4        1.0  0.44122  0.8914500000000002  0.40881  1.0000
  O   O5        1.0  0.96801  0.30517  0.98819  1.0000
  O   O6        1.0  0.71599  0.26252000000000003  0.9827500000000001  1.0000
  O   O7        1.0  0.22314  0.8538900000000001  0.27928  1.0000
  O   O8        1.0  0.98574  0.84142  0.22465000000000004  1.0000
  O   O9        1.0  0.7216  0.4091500000000001  0.9711000000000001  1.0000
  O   O10       1.0  0.55878  0.40881000000000006  0.8914500000000002  1.0000
  O   O11       1.0  0.03199  0.9881900000000002  0.30517  1.0000
  O   O12       1.0  0.28401  0.9827400000000002  0.26252  1.0000
  O   O13       1.0  0.27686  0.35389  0.77929  1.0000
  O   O14       1.0  0.51425  0.3414300000000001  0.7246600000000001  1.0000
  O   O15       1.0  0.7784  0.9091500000000002  0.4711  1.0000
  O   O16       1.0  0.94122  0.90881  0.3914500000000001  1.0000
  O   O17       1.0  0.46801  0.48819  0.80517  1.0000
  O   O18       1.0  0.21599  0.48274000000000006  0.76252  1.0000
  O   O19       1.0  0.72314  0.77928  0.35389  1.0000
  O   O20       1.0  0.48575  0.72465  0.34143  1.0000
  O   O21       1.0  0.2216  0.4711  0.90915  1.0000
  O   O22       1.0  0.05878  0.3914500000000001  0.90881  1.0000
  O   O23       1.0  0.53199  0.80517  0.48819000000000007  1.0000
  O   O24       1.0  0.78401  0.76251  0.4827400000000001  1.0000
  F   F1        1.0  0.86565  0.11707000000000005  0.8605500000000003  1.0000
  F   F2        1.0  0.06801  0.09133000000000004  0.7939200000000001  1.0000
  F   F3        1.0  0.85824  0.02874000000000005  0.7858200000000001  1.0000
  F   F4        1.0  0.37678  0.09712000000000003  0.43152  1.0000
  F   F5        1.0  0.58327  0.03421000000000001  0.39132  1.0000
  F   F6        1.0  0.63279  0.12561000000000003  0.45705  1.0000
  F   F7        1.0  0.89092  0.36039  0.11717000000000001  1.0000
  F   F8        1.0  0.15792  0.34269  0.10581  1.0000
  F   F9        1.0  0.03373  0.34285000000000004  0.19154  1.0000
  F   F10       1.0  0.13435  0.86054  0.11707  1.0000
  F   F11       1.0  0.93199  0.79392  0.09133000000000001  1.0000
  F   F12       1.0  0.14175  0.7858100000000002  0.02874  1.0000
  F   F13       1.0  0.62322  0.43152000000000007  0.09711000000000002  1.0000
  F   F14       1.0  0.41673  0.39132  0.03421  1.0000
  F   F15       1.0  0.36721  0.45705  0.12561  1.0000
  F   F16       1.0  0.10908  0.11717000000000001  0.3604  1.0000
  F   F17       1.0  0.84207  0.10581000000000003  0.34269000000000005  1.0000
  F   F18       1.0  0.96627  0.19154000000000002  0.34285  1.0000
  F   F19       1.0  0.36565  0.36055000000000004  0.61707  1.0000
  F   F20       1.0  0.56801  0.29392  0.59133  1.0000
  F   F21       1.0  0.35825  0.28581000000000006  0.52874  1.0000
  F   F22       1.0  0.87678  0.9315200000000002  0.59712  1.0000
  F   F23       1.0  0.08327  0.8913200000000003  0.5342100000000001  1.0000
  F   F24       1.0  0.13279  0.95705  0.62562  1.0000
  F   F25       1.0  0.39092  0.61717  0.8604  1.0000
  F   F26       1.0  0.65792  0.6058100000000001  0.84269  1.0000
  F   F27       1.0  0.53373  0.6915400000000002  0.84285  1.0000
  F   F28       1.0  0.63435  0.61707  0.36055  1.0000
  F   F29       1.0  0.43199  0.5913300000000002  0.29392  1.0000
  F   F30       1.0  0.64175  0.52874  0.28582  1.0000
  F   F31       1.0  0.12322  0.5971100000000003  0.9315200000000001  1.0000
  F   F32       1.0  0.91673  0.5342100000000001  0.89132  1.0000
  F   F33       1.0  0.86721  0.62561  0.9570500000000001  1.0000
  F   F34       1.0  0.60908  0.86039  0.6171700000000001  1.0000
  F   F35       1.0  0.34207  0.8426900000000003  0.6058100000000001  1.0000
  F   F36       1.0  0.46627  0.84285  0.69154  1.0000
