data_image0
_chemical_formula_structural       Tb4H40C84O32
_chemical_formula_sum              "Tb4 H40 C84 O32"
_cell_length_a       9.49249
_cell_length_b       15.62732
_cell_length_c       16.49987
_cell_angle_alpha    111.89976999999999
_cell_angle_beta     90.00417
_cell_angle_gamma    107.20764999999999

_space_group_name_H-M_alt    "P 1"
_space_group_IT_number       1

loop_
  _space_group_symop_operation_xyz
  'x, y, z'

loop_
  _atom_site_type_symbol
  _atom_site_label
  _atom_site_symmetry_multiplicity
  _atom_site_fract_x
  _atom_site_fract_y
  _atom_site_fract_z
  _atom_site_occupancy
  Tb  Tb1       1.0  0.15194  0.0025299999999999945  0.59175  1.0000
  Tb  Tb2       1.0  0.14782  0.99646  0.90774  1.0000
  Tb  Tb3       1.0  0.8548400000000002  0.003270000000000002  0.09098  1.0000
  Tb  Tb4       1.0  0.85167  0.99868  0.40865  1.0000
  H   H1        1.0  0.8339500000000001  0.76551  0.28423  1.0000
  H   H2        1.0  0.07109  0.2364  0.21638  1.0000
  H   H3        1.0  0.7755500000000002  0.22326000000000004  0.4748500000000001  1.0000
  H   H4        1.0  0.49596000000000007  0.7273400000000001  0.87011  1.0000
  H   H5        1.0  0.6235700000000001  0.3902900000000001  0.06298  1.0000
  H   H6        1.0  0.82371  0.27514  0.10392  1.0000
  H   H7        1.0  0.15509000000000003  0.5341  0.6608200000000001  1.0000
  H   H8        1.0  0.45209  0.27426  0.60426  1.0000
  H   H9        1.0  0.84813  0.58974  0.68203  1.0000
  H   H10       1.0  0.17622999999999994  0.72463  0.89598  1.0000
  H   H11       1.0  0.22444000000000003  0.77684  0.52505  1.0000
  H   H12       1.0  0.15320000000000006  0.70181  0.75013  1.0000
  H   H13       1.0  0.74275  0.59124  0.18305  1.0000
  H   H14       1.0  0.86329  0.44969  0.7295  1.0000
  H   H15       1.0  0.84485  0.46599000000000007  0.33921  1.0000
  H   H16       1.0  0.50385  0.27286  0.1301  1.0000
  H   H17       1.0  0.37636000000000003  0.60966  0.93699  1.0000
  H   H18       1.0  0.44833  0.22402000000000005  0.97535  1.0000
  H   H19       1.0  0.37939999999999996  0.53457  0.16131  1.0000
  H   H20       1.0  0.41491000000000017  0.5516200000000001  0.77094  1.0000
  H   H21       1.0  0.23016000000000011  0.7259800000000001  0.3691500000000001  1.0000
  H   H22       1.0  0.23338000000000006  0.60932  0.4365900000000001  1.0000
  H   H23       1.0  0.45189000000000007  0.29868000000000006  0.7501000000000002  1.0000
  H   H24       1.0  0.5480700000000001  0.70127  0.24988000000000002  1.0000
  H   H25       1.0  0.9294000000000001  0.76355  0.7835  1.0000
  H   H26       1.0  0.10192000000000004  0.54799  0.09978  1.0000
  H   H27       1.0  0.76964  0.27384  0.6307  1.0000
  H   H28       1.0  0.2572700000000001  0.4087200000000002  0.8169200000000002  1.0000
  H   H29       1.0  0.16622000000000003  0.23437000000000005  0.71583  1.0000
  H   H30       1.0  0.44466000000000006  0.54777  0.5991  1.0000
  H   H31       1.0  0.8980000000000001  0.45177999999999996  0.90016  1.0000
  H   H32       1.0  0.8468500000000001  0.29825  0.24990000000000007  1.0000
  H   H33       1.0  0.5480000000000003  0.7259000000000002  0.3957000000000001  1.0000
  H   H34       1.0  0.7666900000000002  0.39067  0.56334  1.0000
  H   H35       1.0  0.13677  0.55006  0.27037  1.0000
  H   H36       1.0  0.58495  0.44863  0.22921  1.0000
  H   H37       1.0  0.5514500000000001  0.77588  0.024780000000000003  1.0000
  H   H38       1.0  0.55542  0.45243  0.40091  1.0000
  H   H39       1.0  0.15215  0.41035  0.31787  1.0000
  H   H40       1.0  0.62053  0.46535000000000004  0.8387000000000001  1.0000
  C   C1        1.0  0.18957  0.75087  0.64378  1.0000
  C   C2        1.0  0.19534999999999994  0.5633399999999998  0.5437  1.0000
  C   C3        1.0  0.58379  0.36912  0.99456  1.0000
  C   C4        1.0  0.51103  0.68143  0.18126  1.0000
  C   C5        1.0  0.52666  0.5985  0.77343  1.0000
  C   C6        1.0  0.7179700000000002  0.757  0.83407  1.0000
  C   C7        1.0  0.73052  0.73351  0.47886  1.0000
  C   C8        1.0  0.12325  0.69576  0.32879  1.0000
  C   C9        1.0  0.17197000000000007  0.58789  0.63201  1.0000
  C   C10       1.0  0.08713  0.85949  0.39914  1.0000
  C   C11       1.0  0.9571600000000001  0.41738  0.11002  1.0000
  C   C12       1.0  0.16079  0.42105  0.02168  1.0000
  C   C13       1.0  0.87649  0.3039  0.67119  1.0000
  C   C14       1.0  0.78941  0.27618  0.4451900000000001  1.0000
  C   C15       1.0  0.82968  0.31844  0.31862  1.0000
  C   C16       1.0  0.03848000000000008  0.7572100000000002  0.3337000000000001  1.0000
  C   C17       1.0  0.04284000000000005  0.5824900000000001  0.88991  1.0000
  C   C18       1.0  0.28215  0.24264  0.16593  1.0000
  C   C19       1.0  0.91334  0.14028  0.60105  1.0000
  C   C20       1.0  0.57257  0.6966  0.82924  1.0000
  C   C21       1.0  0.22778  0.14017  0.10017  1.0000
  C   C22       1.0  0.07171999999999999  0.59767  0.2733  1.0000
  C   C23       1.0  0.26125  0.42118  0.52159  1.0000
  C   C24       1.0  0.40091000000000004  0.3160300000000001  0.5811800000000003  1.0000
  C   C25       1.0  0.3724400000000001  0.43942  0.27908  1.0000
  C   C26       1.0  0.6057700000000003  0.53044  0.42102  1.0000
  C   C27       1.0  0.7721200000000001  0.61983  0.7242  1.0000
  C   C28       1.0  0.81067  0.24914  0.35604  1.0000
  C   C29       1.0  0.8394400000000001  0.57883  0.97817  1.0000
  C   C30       1.0  0.91614  0.31651  0.08082  1.0000
  C   C31       1.0  0.7724  0.85961  0.89924  1.0000
  C   C32       1.0  0.03402000000000005  0.8404000000000001  0.00581  1.0000
  C   C33       1.0  0.48904  0.31851  0.81871  1.0000
  C   C34       1.0  0.5991700000000001  0.6843400000000001  0.4191400000000001  1.0000
  C   C35       1.0  0.19457  0.15985  0.49451  1.0000
  C   C36       1.0  0.08401000000000002  0.68345  0.91926  1.0000
  C   C37       1.0  0.8062599999999999  0.8405599999999999  0.50512  1.0000
  C   C38       1.0  0.42732000000000003  0.30349  0.17099000000000006  1.0000
  C   C39       1.0  0.78558  0.36922  0.49489  1.0000
  C   C40       1.0  0.6276600000000002  0.5609600000000001  0.72102  1.0000
  C   C41       1.0  0.33398000000000017  0.1494  0.80371  1.0000
  C   C42       1.0  0.3675300000000001  0.56326  0.04403  1.0000
  C   C43       1.0  0.17038000000000006  0.68167  0.68139  1.0000
  C   C44       1.0  0.66639  0.85085  0.19588  1.0000
  C   C45       1.0  0.9282500000000001  0.40202  0.72653  1.0000
  C   C46       1.0  0.8046800000000001  0.43682  0.45634  1.0000
  C   C47       1.0  0.8148  0.1488  0.30362  1.0000
  C   C48       1.0  0.21070000000000005  0.7238600000000001  0.5546300000000002  1.0000
  C   C49       1.0  0.63239  0.43664  0.95593  1.0000
  C   C50       1.0  0.9246900000000001  0.52989  0.92056  1.0000
  C   C51       1.0  0.93368  0.56128  0.22173  1.0000
  C   C52       1.0  0.5842300000000001  0.41181  0.86772  1.0000
  C   C53       1.0  0.5396500000000001  0.5834000000000001  0.39034  1.0000
  C   C54       1.0  0.43871000000000004  0.24928  0.85611  1.0000
  C   C55       1.0  0.99853  0.26696  0.0208  1.0000
  C   C56       1.0  0.20526  0.32149  0.49386  1.0000
  C   C57       1.0  0.06628  0.4385  0.77812  1.0000
  C   C58       1.0  0.73877  0.57903  0.47855  1.0000
  C   C59       1.0  0.09933000000000002  0.28099  0.71894  1.0000
  C   C60       1.0  0.15192  0.37882  0.7749  1.0000
  C   C61       1.0  0.001989999999999997  0.73327  0.97951  1.0000
  C   C62       1.0  0.90064  0.71882  0.28129  1.0000
  C   C63       1.0  0.82794  0.41222  0.36803  1.0000
  C   C64       1.0  0.46044000000000007  0.41696  0.60991  1.0000
  C   C65       1.0  0.8830200000000001  0.67884  0.00648  1.0000
  C   C66       1.0  0.79477  0.6787499999999999  0.5064  1.0000
  C   C67       1.0  0.18367999999999998  0.28235999999999994  0.21929000000000007  1.0000
  C   C68       1.0  0.5610800000000001  0.75075  0.14392  1.0000
  C   C69       1.0  0.84816  0.62104  0.22504  1.0000
  C   C70       1.0  0.27014000000000005  0.26678  0.52103  1.0000
  C   C71       1.0  0.41563999999999995  0.5880999999999998  0.13227  1.0000
  C   C72       1.0  0.11756000000000003  0.32109  0.99351  1.0000
  C   C73       1.0  0.8167500000000001  0.71759  0.78067  1.0000
  C   C74       1.0  0.41604  0.63076  0.00542  1.0000
  C   C75       1.0  0.5128  0.72334  0.05476  1.0000
  C   C76       1.0  0.96195  0.24276999999999996  0.666  1.0000
  C   C77       1.0  0.9649300000000001  0.15963000000000008  0.9940500000000002  1.0000
  C   C78       1.0  0.07537  0.4699  0.07931  1.0000
  C   C79       1.0  0.22820000000000001  0.38023  0.27579  1.0000
  C   C80       1.0  0.21439000000000002  0.63082  0.50502  1.0000
  C   C81       1.0  0.4870900000000002  0.2764900000000001  0.94527  1.0000
  C   C82       1.0  0.39434  0.46976000000000007  0.5790100000000002  1.0000
  C   C83       1.0  0.18454000000000004  0.85087  0.69599  1.0000
  C   C84       1.0  0.47328  0.40168  0.22675  1.0000
  O   O1        1.0  0.7215699999999999  0.52977  0.01045  1.0000
  O   O2        1.0  0.09881  0.08536  0.10366  1.0000
  O   O3        1.0  0.27848  0.47014  0.98934  1.0000
  O   O4        1.0  0.15863000000000008  0.8726600000000002  0.77631  1.0000
  O   O5        1.0  0.8711400000000001  0.46289  0.16848  1.0000
  O   O6        1.0  0.3062  0.1115  0.03907  1.0000
  O   O7        1.0  0.7141300000000002  0.8721399999999999  0.27613  1.0000
  O   O8        1.0  0.80742  0.5298  0.51127  1.0000
  O   O9        1.0  0.4081199999999999  0.53814  0.33257  1.0000
  O   O10       1.0  0.13532000000000002  0.88346  0.97053  1.0000
  O   O11       1.0  0.12872999999999996  0.5369  0.8313800000000001  1.0000
  O   O12       1.0  0.2889300000000001  0.12762000000000015  0.7228800000000002  1.0000
  O   O13       1.0  0.29439  0.09007999999999997  0.84195  1.0000
  O   O14       1.0  0.19512  0.88747  0.45906  1.0000
  O   O15       1.0  0.74859  0.88551  0.47134  1.0000
  O   O16       1.0  0.25232  0.11470999999999998  0.52812  1.0000
  O   O17       1.0  0.69458  0.8893  0.96041  1.0000
  O   O18       1.0  0.59201  0.4623  0.66752  1.0000
  O   O19       1.0  0.8402900000000001  0.12677000000000005  0.22320000000000007  1.0000
  O   O20       1.0  0.014070000000000011  0.91588  0.39629  1.0000
  O   O21       1.0  0.04800000000000001  0.12080000000000002  0.9414  1.0000
  O   O22       1.0  0.79269  0.08904000000000008  0.3415900000000001  1.0000
  O   O23       1.0  0.20665999999999998  0.9111  0.65847  1.0000
  O   O24       1.0  0.9281200000000001  0.87774  0.5567600000000001  1.0000
  O   O25       1.0  0.1926400000000001  0.47037  0.48883  1.0000
  O   O26       1.0  0.98684  0.08434  0.60436  1.0000
  O   O27       1.0  0.9014200000000002  0.9142000000000002  0.8953600000000003  1.0000
  O   O28       1.0  0.95172  0.8795  0.0588  1.0000
  O   O29       1.0  0.7033500000000004  0.91044  0.15778  1.0000
  O   O30       1.0  0.8621700000000001  0.11595  0.02814  1.0000
  O   O31       1.0  0.8071800000000001  0.1122  0.53994  1.0000
  O   O32       1.0  0.07381000000000004  0.12263000000000007  0.4419900000000001  1.0000
