data_image0
_chemical_formula_structural       Zn10H76C72N4O36
_chemical_formula_sum              "Zn10 H76 C72 N4 O36"
_cell_length_a       13.71854
_cell_length_b       14.351149999999999
_cell_length_c       14.70186
_cell_angle_alpha    75.44572
_cell_angle_beta     85.62839
_cell_angle_gamma    67.80717

_space_group_name_H-M_alt    "P 1"
_space_group_IT_number       1

loop_
  _space_group_symop_operation_xyz
  'x, y, z'

loop_
  _atom_site_type_symbol
  _atom_site_label
  _atom_site_symmetry_multiplicity
  _atom_site_fract_x
  _atom_site_fract_y
  _atom_site_fract_z
  _atom_site_occupancy
  Zn  Zn1       1.0  0.6662599999999999  0.14333999999999994  0.23009000000000002  1.0000
  Zn  Zn2       1.0  0.014019999999999986  0.36977  0.13861  1.0000
  Zn  Zn3       1.0  0.84715  0.24075  0.22538  1.0000
  Zn  Zn4       1.0  0.25419  0.22712  0.10212000000000002  1.0000
  Zn  Zn5       1.0  0.51212  0.052219999999999996  0.12813  1.0000
  Zn  Zn6       1.0  0.33374999999999994  0.85666  0.7699  1.0000
  Zn  Zn7       1.0  0.98599  0.63023  0.8613900000000002  1.0000
  Zn  Zn8       1.0  0.15286000000000005  0.7592499999999999  0.7746100000000001  1.0000
  Zn  Zn9       1.0  0.74582  0.7728799999999999  0.8978700000000002  1.0000
  Zn  Zn10      1.0  0.4878899999999998  0.94778  0.8718600000000001  1.0000
  H   H1        1.0  0.8752699999999999  0.55752  0.01463  1.0000
  H   H2        1.0  0.6329499999999999  0.93089  0.00485  1.0000
  H   H3        1.0  0.66803  0.53556  0.06254  1.0000
  H   H4        1.0  0.7406699999999999  0.95427  0.51121  1.0000
  H   H5        1.0  0.13447999999999996  0.53531  0.08337  1.0000
  H   H6        1.0  0.25922  0.4384099999999999  0.12289  1.0000
  H   H7        1.0  0.17787000000000003  0.06297999999999991  0.9375100000000002  1.0000
  H   H8        1.0  0.35592  0.9303799999999999  0.10342000000000003  1.0000
  H   H9        1.0  0.24994  0.012709999999999994  0.15891000000000002  1.0000
  H   H10       1.0  0.92814  0.91187  0.74931  1.0000
  H   H11       1.0  0.18935999999999995  0.36983000000000005  0.27067  1.0000
  H   H12       1.0  0.1531800000000001  0.5060399999999998  0.25637  1.0000
  H   H13       1.0  0.7209099999999999  0.83595  0.1868  1.0000
  H   H14       1.0  0.6950299999999999  0.77865  0.10239  1.0000
  H   H15       1.0  0.9175299999999998  0.30091  0.38879  1.0000
  H   H16       1.0  0.84037  0.42012  0.31373  1.0000
  H   H17       1.0  0.4481799999999999  0.06925999999999997  0.3391500000000001  1.0000
  H   H18       1.0  0.57892  0.028400000000000005  0.38249  1.0000
  H   H19       1.0  0.79194  0.17219999999999996  0.88616  1.0000
  H   H20       1.0  0.5305799999999998  0.87472  0.38308000000000003  1.0000
  H   H21       1.0  0.6413999999999999  0.87968  0.3141300000000001  1.0000
  H   H22       1.0  0.8610400000000001  0.2685699999999999  0.96888  1.0000
  H   H23       1.0  0.91997  0.14720999999999998  0.49737  1.0000
  H   H24       1.0  0.34665  0.75033  0.02847  1.0000
  H   H25       1.0  0.9882299999999999  0.05276999999999998  0.66173  1.0000
  H   H26       1.0  0.91734  0.016319999999999998  0.83746  1.0000
  H   H27       1.0  0.36120999999999986  0.9908299999999999  0.28875  1.0000
  H   H28       1.0  0.37834000000000007  0.8659899999999999  0.27687  1.0000
  H   H29       1.0  0.41984000000000005  0.42953  0.17574000000000006  1.0000
  H   H30       1.0  0.5119600000000001  0.8204199999999999  0.14622  1.0000
  H   H31       1.0  0.5908299999999997  0.75354  0.25016  1.0000
  H   H32       1.0  0.80336  0.54206  0.19929  1.0000
  H   H33       1.0  0.8149999999999998  0.65187  0.11729  1.0000
  H   H34       1.0  0.9252700000000001  0.59815  0.26656  1.0000
  H   H35       1.0  0.9937399999999995  0.60794  0.15953  1.0000
  H   H36       1.0  0.98285  0.44669  0.38152  1.0000
  H   H37       1.0  0.07782000000000003  0.33147999999999994  0.35654000000000013  1.0000
  H   H38       1.0  0.28648  0.60867  0.11724000000000002  1.0000
  H   H39       1.0  0.12473999999999999  0.44248000000000004  0.98536  1.0000
  H   H40       1.0  0.36705000000000004  0.06910999999999999  0.99514  1.0000
  H   H41       1.0  0.33198000000000005  0.46444  0.93746  1.0000
  H   H42       1.0  0.2593399999999999  0.045730000000000014  0.48879  1.0000
  H   H43       1.0  0.86553  0.4646899999999999  0.91663  1.0000
  H   H44       1.0  0.7407900000000001  0.56159  0.87711  1.0000
  H   H45       1.0  0.8221399999999999  0.93702  0.06249  1.0000
  H   H46       1.0  0.64409  0.06961999999999997  0.8965800000000003  1.0000
  H   H47       1.0  0.7500699999999996  0.9872900000000001  0.84109  1.0000
  H   H48       1.0  0.07187000000000002  0.08813  0.25068  1.0000
  H   H49       1.0  0.8106499999999998  0.63017  0.72933  1.0000
  H   H50       1.0  0.84682  0.49396  0.74363  1.0000
  H   H51       1.0  0.27909  0.16405000000000003  0.81319  1.0000
  H   H52       1.0  0.30498  0.22135000000000002  0.8976  1.0000
  H   H53       1.0  0.08248000000000005  0.6990899999999999  0.61121  1.0000
  H   H54       1.0  0.15964  0.57988  0.68626  1.0000
  H   H55       1.0  0.55182  0.93074  0.66084  1.0000
  H   H56       1.0  0.42108  0.9716  0.6175100000000001  1.0000
  H   H57       1.0  0.20806999999999992  0.8278  0.11384  1.0000
  H   H58       1.0  0.4694299999999999  0.12528  0.61692  1.0000
  H   H59       1.0  0.35861  0.12031999999999994  0.6858700000000002  1.0000
  H   H60       1.0  0.13896999999999998  0.73143  0.03112  1.0000
  H   H61       1.0  0.08004000000000001  0.8527899999999999  0.50263  1.0000
  H   H62       1.0  0.6533600000000002  0.24966999999999998  0.97152  1.0000
  H   H63       1.0  0.011770000000000008  0.94723  0.33827000000000007  1.0000
  H   H64       1.0  0.08267000000000001  0.98368  0.16254  1.0000
  H   H65       1.0  0.6387899999999999  0.009170000000000024  0.71125  1.0000
  H   H66       1.0  0.6216699999999997  0.13401000000000002  0.72313  1.0000
  H   H67       1.0  0.58017  0.57047  0.82425  1.0000
  H   H68       1.0  0.48805  0.17957999999999996  0.85377  1.0000
  H   H69       1.0  0.40918000000000004  0.24645999999999998  0.74983  1.0000
  H   H70       1.0  0.19664999999999996  0.45794  0.80071  1.0000
  H   H71       1.0  0.18499999999999991  0.34813  0.8827100000000001  1.0000
  H   H72       1.0  0.07474000000000003  0.40185  0.73343  1.0000
  H   H73       1.0  0.006259999999999984  0.3920600000000001  0.84047  1.0000
  H   H74       1.0  0.017159999999999998  0.55331  0.6184800000000003  1.0000
  H   H75       1.0  0.92219  0.66852  0.6434600000000001  1.0000
  H   H76       1.0  0.71353  0.39132999999999996  0.88276  1.0000
  C   C1        1.0  0.12897999999999996  0.93705  0.85342  1.0000
  C   C2        1.0  0.06293  0.22849  0.009450000000000002  1.0000
  C   C3        1.0  0.5846299999999998  0.55192  0.07475  1.0000
  C   C4        1.0  0.7940699999999998  0.97664  0.54402  1.0000
  C   C5        1.0  0.62991  0.36513  0.15861000000000006  1.0000
  C   C6        1.0  0.17398  0.45574  0.12618  1.0000
  C   C7        1.0  0.09351  0.08710999999999999  0.92626  1.0000
  C   C8        1.0  0.3351699999999999  0.98718  0.147  1.0000
  C   C9        1.0  0.89984  0.95368  0.6780500000000003  1.0000
  C   C10       1.0  0.8299300000000001  0.9253499999999999  0.6364900000000002  1.0000
  C   C11       1.0  0.14043999999999998  0.44666  0.22886000000000004  1.0000
  C   C12       1.0  0.65992  0.8402799999999999  0.13976  1.0000
  C   C13       1.0  0.9185499999999998  0.35695  0.3222800000000001  1.0000
  C   C14       1.0  0.53179  0.030210000000000004  0.32434  1.0000
  C   C15       1.0  0.05494999999999999  0.030379999999999976  0.8837800000000001  1.0000
  C   C16       1.0  0.87615  0.14874  0.89758  1.0000
  C   C17       1.0  0.55589  0.91828  0.31909  1.0000
  C   C18       1.0  0.91424  0.20323  0.94251  1.0000
  C   C19       1.0  0.8258699999999998  0.057350000000000005  0.49461  1.0000
  C   C20       1.0  0.5104  0.652  0.04118000000000001  1.0000
  C   C21       1.0  0.7893499999999997  0.84471  0.6934  1.0000
  C   C22       1.0  0.023069999999999993  0.17267  0.95695  1.0000
  C   C23       1.0  0.5512899999999997  0.47227  0.12336  1.0000
  C   C24       1.0  0.89512  0.08553999999999999  0.53746  1.0000
  C   C25       1.0  0.40286000000000005  0.6724  0.05703  1.0000
  C   C26       1.0  0.93286  0.032829999999999984  0.62879  1.0000
  C   C27       1.0  0.94612  0.06144000000000001  0.86982  1.0000
  C   C28       1.0  0.39260999999999996  0.93731  0.24273  1.0000
  C   C29       1.0  0.44364999999999993  0.49304  0.13855  1.0000
  C   C30       1.0  0.56519  0.82621  0.19466000000000006  1.0000
  C   C31       1.0  0.8574999999999998  0.5702500000000003  0.15197  1.0000
  C   C32       1.0  0.9526499999999996  0.56275  0.20624  1.0000
  C   C33       1.0  0.78862  0.11243000000000002  0.39602  1.0000
  C   C34       1.0  0.5445  0.73696  0.98619  1.0000
  C   C35       1.0  0.0053600000000000245  0.39789  0.33035  1.0000
  C   C36       1.0  0.36987999999999993  0.5929999999999997  0.10576  1.0000
  C   C37       1.0  0.87103  0.06295  0.14657  1.0000
  C   C38       1.0  0.9370799999999997  0.77151  0.99054  1.0000
  C   C39       1.0  0.41538  0.44808  0.92525  1.0000
  C   C40       1.0  0.20592999999999995  0.023359999999999978  0.45597000000000004  1.0000
  C   C41       1.0  0.3701  0.63487  0.84138  1.0000
  C   C42       1.0  0.82603  0.54426  0.87382  1.0000
  C   C43       1.0  0.9065  0.91289  0.07374  1.0000
  C   C44       1.0  0.66483  0.012819999999999956  0.8530000000000002  1.0000
  C   C45       1.0  0.10017000000000001  0.046319999999999965  0.3219500000000001  1.0000
  C   C46       1.0  0.17008  0.07465000000000001  0.3635  1.0000
  C   C47       1.0  0.8595699999999997  0.55334  0.77113  1.0000
  C   C48       1.0  0.34009  0.15971999999999997  0.86023  1.0000
  C   C49       1.0  0.08146000000000006  0.6430499999999999  0.67771  1.0000
  C   C50       1.0  0.46820999999999996  0.9697900000000002  0.67566  1.0000
  C   C51       1.0  0.9450599999999997  0.9696199999999999  0.11621  1.0000
  C   C52       1.0  0.12386000000000004  0.85126  0.10241  1.0000
  C   C53       1.0  0.44412  0.08172000000000001  0.68091  1.0000
  C   C54       1.0  0.08577000000000007  0.7967699999999998  0.05749  1.0000
  C   C55       1.0  0.1741300000000001  0.94265  0.50539  1.0000
  C   C56       1.0  0.48960999999999977  0.348  0.95881  1.0000
  C   C57       1.0  0.21065999999999996  0.15528999999999998  0.3066  1.0000
  C   C58       1.0  0.9769300000000001  0.82733  0.04305  1.0000
  C   C59       1.0  0.44872000000000006  0.5277299999999998  0.87664  1.0000
  C   C60       1.0  0.10488999999999997  0.9144599999999999  0.46253000000000005  1.0000
  C   C61       1.0  0.5971499999999997  0.3276  0.9429700000000001  1.0000
  C   C62       1.0  0.06714  0.96717  0.3712  1.0000
  C   C63       1.0  0.05389  0.93856  0.13017  1.0000
  C   C64       1.0  0.6073999999999998  0.06268999999999995  0.7572600000000003  1.0000
  C   C65       1.0  0.5563500000000001  0.50696  0.8614500000000003  1.0000
  C   C66       1.0  0.43482  0.17378999999999994  0.80534  1.0000
  C   C67       1.0  0.14250999999999994  0.4297500000000001  0.84803  1.0000
  C   C68       1.0  0.047359999999999985  0.43725  0.7937500000000002  1.0000
  C   C69       1.0  0.21138999999999994  0.88757  0.6039800000000002  1.0000
  C   C70       1.0  0.45550999999999997  0.26304  0.013810000000000003  1.0000
  C   C71       1.0  0.9946399999999999  0.6021100000000001  0.66965  1.0000
  C   C72       1.0  0.63013  0.4069999999999999  0.89423  1.0000
  N   N1        1.0  0.50645  0.917  0.23341  1.0000
  N   N2        1.0  0.029059999999999996  0.45488  0.23799  1.0000
  N   N3        1.0  0.49354999999999993  0.08299999999999999  0.76659  1.0000
  N   N4        1.0  0.97095  0.54512  0.762  1.0000
  O   O1        1.0  0.8147799999999998  0.81864  0.78257  1.0000
  O   O2        1.0  0.3614699999999999  0.07435  0.09669  1.0000
  O   O3        1.0  0.63909  0.7101499999999998  0.9579  1.0000
  O   O4        1.0  0.14983000000000002  0.38561  0.08558000000000003  1.0000
  O   O5        1.0  0.7356799999999997  0.81104  0.65543  1.0000
  O   O6        1.0  0.8903999999999999  0.5105  0.08287  1.0000
  O   O7        1.0  0.93903  0.30818  0.2459  1.0000
  O   O8        1.0  0.9934299999999997  0.2921500000000001  0.05016  1.0000
  O   O9        1.0  0.47581999999999997  0.82914  0.97288  1.0000
  O   O10       1.0  0.08688000000000001  0.8849399999999998  0.82234  1.0000
  O   O11       1.0  0.59327  0.2947  0.19557  1.0000
  O   O12       1.0  0.16168  0.20851  0.00896  1.0000
  O   O13       1.0  0.6291  0.9392899999999998  0.0735  1.0000
  O   O14       1.0  0.5566  0.08768999999999999  0.2371  1.0000
  O   O15       1.0  0.8092599999999999  0.19329000000000002  0.35885  1.0000
  O   O16       1.0  0.72712  0.35215  0.14954  1.0000
  O   O17       1.0  0.22756000000000007  0.91655  0.8598700000000002  1.0000
  O   O18       1.0  0.7385599999999998  0.07455999999999997  0.35481000000000007  1.0000
  O   O19       1.0  0.18522999999999995  0.18136  0.21742000000000006  1.0000
  O   O20       1.0  0.63853  0.9256499999999999  0.90331  1.0000
  O   O21       1.0  0.36092  0.28984999999999994  0.04209  1.0000
  O   O22       1.0  0.85018  0.61439  0.91441  1.0000
  O   O23       1.0  0.26432  0.18896  0.34457  1.0000
  O   O24       1.0  0.10960999999999997  0.48950000000000005  0.91713  1.0000
  O   O25       1.0  0.060979999999999986  0.69182  0.7541  1.0000
  O   O26       1.0  0.006580000000000024  0.70785  0.9498400000000002  1.0000
  O   O27       1.0  0.52419  0.17086  0.02712  1.0000
  O   O28       1.0  0.91313  0.11505999999999997  0.17765  1.0000
  O   O29       1.0  0.40674  0.7052999999999999  0.80443  1.0000
  O   O30       1.0  0.8383300000000004  0.79149  0.99103  1.0000
  O   O31       1.0  0.37091  0.06071  0.9265  1.0000
  O   O32       1.0  0.44341  0.91231  0.7629  1.0000
  O   O33       1.0  0.19074000000000002  0.80671  0.64115  1.0000
  O   O34       1.0  0.27288000000000007  0.64785  0.85046  1.0000
  O   O35       1.0  0.77245  0.08345  0.14013  1.0000
  O   O36       1.0  0.26144000000000023  0.9254399999999996  0.6451900000000003  1.0000
