data_image0
_chemical_formula_structural       Eu4H72C102O24
_chemical_formula_sum              "Eu4 H72 C102 O24"
_cell_length_a       11.19823
_cell_length_b       13.16265
_cell_length_c       23.77952
_cell_angle_alpha    94.30773
_cell_angle_beta     101.75175
_cell_angle_gamma    111.21312

_symmetry_space_group_name_H-M    'P 1'
_symmetry_Int_Tables_number       1

loop_
  _symmetry_equiv_pos_as_xyz
  'x,y,z'

loop_
  _atom_site_type_symbol
  _atom_site_label
  _atom_site_symmetry_multiplicity
  _atom_site_fract_x
  _atom_site_fract_y
  _atom_site_fract_z
  _atom_site_occupancy
  Eu  Eu1       1.0  0.3851200000000001  0.31801  0.52251  1.0000
  Eu  Eu2       1.0  0.62692  0.58841  0.9614  1.0000
  Eu  Eu3       1.0  0.61504  0.6821600000000001  0.47752  1.0000
  Eu  Eu4       1.0  0.3708800000000001  0.4105700000000001  0.038639999999999994  1.0000
  H   H1        1.0  0.6306400000000001  0.3385600000000001  0.12053  1.0000
  H   H2        1.0  0.7406399999999999  0.28441  0.20867  1.0000
  H   H3        1.0  0.893  0.27004000000000006  0.30284  1.0000
  H   H4        1.0  0.06719999999999997  0.30195  0.39414  1.0000
  H   H5        1.0  0.32982999999999996  0.59003  0.34338  1.0000
  H   H6        1.0  0.23899  0.50538  0.1871  1.0000
  H   H7        1.0  0.34361  0.62902  0.23639999999999994  1.0000
  H   H8        1.0  0.24192000000000008  0.6355200000000001  0.17009  1.0000
  H   H9        1.0  0.14913000000000015  0.7462800000000002  0.22855  1.0000
  H   H10       1.0  0.25169999999999987  0.73883  0.29425  1.0000
  H   H11       1.0  0.07773  0.69397  0.28608  1.0000
  H   H12       1.0  0.98843  0.61884  0.12969  1.0000
  H   H13       1.0  0.49112  0.62729  0.18049  1.0000
  H   H14       1.0  0.6203  0.72143  0.28272  1.0000
  H   H15       1.0  0.77787  0.8505500000000001  0.37528999999999996  1.0000
  H   H16       1.0  0.9640700000000002  0.9897600000000001  0.45206  1.0000
  H   H17       1.0  0.15789999999999998  0.13487000000000002  0.3217  1.0000
  H   H18       1.0  0.06704000000000002  0.8699600000000001  0.2284  1.0000
  H   H19       1.0  0.16246  0.009769999999999992  0.22504999999999997  1.0000
  H   H20       1.0  0.047179999999999965  0.92144  0.16132  1.0000
  H   H21       1.0  0.93996  0.06513  0.15025  1.0000
  H   H22       1.0  0.05640999999999995  0.14883  0.21461999999999995  1.0000
  H   H23       1.0  0.88412  0.10990000000000003  0.20874  1.0000
  H   H24       1.0  0.7831900000000002  0.8552900000000002  0.10967  1.0000
  H   H25       1.0  0.55193  0.024289999999999992  0.54793  1.0000
  H   H26       1.0  0.6036800000000001  0.8801600000000002  0.59845  1.0000
  H   H27       1.0  0.64275  0.74598  0.6698  1.0000
  H   H28       1.0  0.6854499999999999  0.6533099999999998  0.7557299999999998  1.0000
  H   H29       1.0  0.5774400000000001  0.8685400000000001  0.8619599999999998  1.0000
  H   H30       1.0  0.60677  0.07170999999999997  0.8590499999999999  1.0000
  H   H31       1.0  0.57414  0.15886999999999998  0.8098299999999999  1.0000
  H   H32       1.0  0.71057  0.11883999999999997  0.81107  1.0000
  H   H33       1.0  0.30839000000000005  0.8781800000000002  0.74285  1.0000
  H   H34       1.0  0.33762  0.015969999999999984  0.77175  1.0000
  H   H35       1.0  0.3708699999999999  0.9265  0.81935  1.0000
  H   H36       1.0  0.4591  0.14636  0.69957  1.0000
  H   H37       1.0  0.36879  0.66044  0.88002  1.0000
  H   H38       1.0  0.25955  0.71519  0.79191  1.0000
  H   H39       1.0  0.10736000000000015  0.7298100000000002  0.69745  1.0000
  H   H40       1.0  0.9330900000000001  0.69807  0.60617  1.0000
  H   H41       1.0  0.67022  0.41004000000000007  0.6567399999999999  1.0000
  H   H42       1.0  0.76087  0.4945600000000001  0.8129799999999999  1.0000
  H   H43       1.0  0.65616  0.37088  0.76377  1.0000
  H   H44       1.0  0.7579700000000001  0.36448  0.83007  1.0000
  H   H45       1.0  0.85074  0.25359  0.77162  1.0000
  H   H46       1.0  0.74814  0.26087  0.70588  1.0000
  H   H47       1.0  0.92213  0.30589  0.71411  1.0000
  H   H48       1.0  0.010389999999999948  0.38018  0.8702099999999999  1.0000
  H   H49       1.0  0.50871  0.37254000000000004  0.81986  1.0000
  H   H50       1.0  0.37986999999999976  0.2787399999999999  0.7176099999999997  1.0000
  H   H51       1.0  0.22234999999999996  0.14943000000000006  0.6248  1.0000
  H   H52       1.0  0.036200000000000024  0.010520000000000007  0.54795  1.0000
  H   H53       1.0  0.84217  0.8652000000000001  0.67828  1.0000
  H   H54       1.0  0.9330399999999998  0.1300599999999999  0.7715699999999998  1.0000
  H   H55       1.0  0.8375  0.9902700000000002  0.77493  1.0000
  H   H56       1.0  0.95282  0.07858  0.83865  1.0000
  H   H57       1.0  0.059950000000000114  0.9349200000000002  0.84975  1.0000
  H   H58       1.0  0.9435099999999998  0.85109  0.7854199999999999  1.0000
  H   H59       1.0  0.11582000000000005  0.8900400000000003  0.79132  1.0000
  H   H60       1.0  0.21628000000000006  0.14404  0.89036  1.0000
  H   H61       1.0  0.44856  0.9760300000000002  0.45219  1.0000
  H   H62       1.0  0.39657  0.12004999999999999  0.40165999999999996  1.0000
  H   H63       1.0  0.35776  0.2542  0.33052999999999993  1.0000
  H   H64       1.0  0.31365  0.34639  0.24451  1.0000
  H   H65       1.0  0.42225  0.13171  0.13818  1.0000
  H   H66       1.0  0.39317  0.92855  0.14103  1.0000
  H   H67       1.0  0.42579000000000006  0.8413000000000003  0.19018  1.0000
  H   H68       1.0  0.2893900000000001  0.8813600000000003  0.18901999999999997  1.0000
  H   H69       1.0  0.69171  0.12186000000000001  0.25725  1.0000
  H   H70       1.0  0.66221  0.9840500000000001  0.22828  1.0000
  H   H71       1.0  0.62918  0.07364  0.18072  1.0000
  H   H72       1.0  0.54083  0.8537200000000001  0.30044  1.0000
  C   C1        1.0  0.73503  0.51544  0.06927  1.0000
  C   C2        1.0  0.80338  0.48194  0.12084  1.0000
  C   C3        1.0  0.73349  0.3874  0.14275  1.0000
  C   C4        1.0  0.79499  0.35719000000000006  0.19182999999999997  1.0000
  C   C5        1.0  0.92723  0.42371000000000003  0.21970999999999996  1.0000
  C   C6        1.0  0.012170000000000023  0.41625000000000006  0.27294  1.0000
  C   C7        1.0  0.98715  0.3401200000000001  0.31167999999999996  1.0000
  C   C8        1.0  0.08424999999999999  0.35727  0.36232  1.0000
  C   C9        1.0  0.20704000000000003  0.44740000000000013  0.37358  1.0000
  C   C10       1.0  0.309  0.46504  0.4286  1.0000
  C   C11       1.0  0.23376  0.52179  0.33382  1.0000
  C   C12       1.0  0.1356300000000001  0.5069800000000002  0.28418  1.0000
  C   C13       1.0  0.13695000000000004  0.57961  0.23718  1.0000
  C   C14       1.0  0.24642000000000006  0.5870500000000001  0.20554999999999998  1.0000
  C   C15       1.0  0.15462  0.69674  0.26338  1.0000
  C   C16       1.0  0.99826  0.5186  0.19767  1.0000
  C   C17       1.0  0.93717  0.54688  0.14796  1.0000
  C   C18       1.0  0.55217  0.6798  0.07996  1.0000
  C   C19       1.0  0.6291300000000001  0.7384300000000001  0.14023999999999998  1.0000
  C   C20       1.0  0.58327  0.69926  0.18859999999999996  1.0000
  C   C21       1.0  0.65501  0.75079  0.24505  1.0000
  C   C22       1.0  0.77433  0.8424300000000001  0.2526  1.0000
  C   C23       1.0  0.86657  0.9129700000000002  0.30533  1.0000
  C   C24       1.0  0.86159  0.9110100000000002  0.36379  1.0000
  C   C25       1.0  0.9646800000000001  0.9895200000000002  0.40641  1.0000
  C   C26       1.0  0.07126000000000002  0.06939000000000001  0.39102999999999993  1.0000
  C   C27       1.0  0.18103999999999998  0.15248  0.43711999999999995  1.0000
  C   C28       1.0  0.07497000000000002  0.07199000000000003  0.33225  1.0000
  C   C29       1.0  0.9731  0.9937100000000002  0.2896  1.0000
  C   C30       1.0  0.9561499999999999  0.9772200000000001  0.22392  1.0000
  C   C31       1.0  0.06513000000000009  0.9422100000000002  0.20868999999999996  1.0000
  C   C32       1.0  0.9587100000000001  0.08159  0.19786999999999996  1.0000
  C   C33       1.0  0.8223399999999998  0.8806400000000001  0.20407  1.0000
  C   C34       1.0  0.74991  0.8289800000000002  0.14804999999999996  1.0000
  C   C35       1.0  0.46906  0.17646  0.58897  1.0000
  C   C36       1.0  0.5017499999999999  0.09252999999999999  0.6206699999999999  1.0000
  C   C37       1.0  0.54301  0.017919999999999995  0.59235  1.0000
  C   C38       1.0  0.57164  0.93741  0.62041  1.0000
  C   C39       1.0  0.5607499999999999  0.93306  0.6780399999999999  1.0000
  C   C40       1.0  0.58686  0.86087  0.7182899999999999  1.0000
  C   C41       1.0  0.62855  0.77277  0.7115599999999999  1.0000
  C   C42       1.0  0.65234  0.7212600000000001  0.7594  1.0000
  C   C43       1.0  0.63449  0.7566500000000002  0.8134299999999999  1.0000
  C   C44       1.0  0.659  0.70331  0.86527  1.0000
  C   C45       1.0  0.5901100000000001  0.8433000000000002  0.81965  1.0000
  C   C46       1.0  0.5660000000000001  0.8944400000000002  0.77233  1.0000
  C   C47       1.0  0.5176100000000002  0.9884700000000002  0.76896  1.0000
  C   C48       1.0  0.60813  0.09083000000000002  0.81496  1.0000
  C   C49       1.0  0.3746  0.9496400000000002  0.77613  1.0000
  C   C50       1.0  0.5212499999999999  0.009129999999999973  0.7070599999999999  1.0000
  C   C51       1.0  0.49082  0.08792000000000001  0.67847  1.0000
  C   C52       1.0  0.26303  0.4833100000000001  0.93094  1.0000
  C   C53       1.0  0.19541000000000003  0.5172000000000001  0.8793999999999998  1.0000
  C   C54       1.0  0.26592  0.6118000000000001  0.8576899999999998  1.0000
  C   C55       1.0  0.2049099999999999  0.6422799999999999  0.8085799999999999  1.0000
  C   C56       1.0  0.07270000000000003  0.57596  0.78052  1.0000
  C   C57       1.0  0.98793  0.58361  0.72727  1.0000
  C   C58       1.0  0.013120000000000048  0.6598100000000001  0.68859  1.0000
  C   C59       1.0  0.9160299999999999  0.64272  0.63793  1.0000
  C   C60       1.0  0.7931299999999999  0.55268  0.6265599999999999  1.0000
  C   C61       1.0  0.69119  0.53507  0.57147  1.0000
  C   C62       1.0  0.7663  0.4782600000000001  0.66627  1.0000
  C   C63       1.0  0.86432  0.4929700000000001  0.71592  1.0000
  C   C64       1.0  0.86274  0.42021  0.76287  1.0000
  C   C65       1.0  0.7534  0.41286000000000006  0.79457  1.0000
  C   C66       1.0  0.8451700000000001  0.30307  0.73676  1.0000
  C   C67       1.0  0.0012899999999998859  0.4809999999999999  0.8023899999999998  1.0000
  C   C68       1.0  0.06177999999999986  0.45233999999999996  0.8520799999999998  1.0000
  C   C69       1.0  0.4473499999999999  0.31962000000000007  0.9203399999999999  1.0000
  C   C70       1.0  0.37052999999999997  0.2610700000000001  0.86002  1.0000
  C   C71       1.0  0.4165999999999999  0.30051  0.8117199999999999  1.0000
  C   C72       1.0  0.34500999999999993  0.24919  0.75522  1.0000
  C   C73       1.0  0.22568000000000007  0.15751000000000004  0.7475  1.0000
  C   C74       1.0  0.13353  0.08706  0.69471  1.0000
  C   C75       1.0  0.13854000000000002  0.08902000000000004  0.63626  1.0000
  C   C76       1.0  0.03547999999999998  0.010589999999999987  0.5936  1.0000
  C   C77       1.0  0.9289  0.9306800000000001  0.60897  1.0000
  C   C78       1.0  0.81916  0.84759  0.5629  1.0000
  C   C79       1.0  0.9251100000000002  0.9280700000000002  0.66773  1.0000
  C   C80       1.0  0.02692999999999999  0.006309999999999979  0.7104  1.0000
  C   C81       1.0  0.04373999999999999  0.022670000000000003  0.77605  1.0000
  C   C82       1.0  0.9348500000000001  0.05776999999999995  0.7912799999999999  1.0000
  C   C83       1.0  0.04119000000000013  0.9183500000000002  0.80214  1.0000
  C   C84       1.0  0.17749999999999994  0.11914999999999999  0.7959699999999998  1.0000
  C   C85       1.0  0.24974000000000002  0.17056  0.85205  1.0000
  C   C86       1.0  0.53089  0.82344  0.41103999999999996  1.0000
  C   C87       1.0  0.49832  0.90751  0.3793799999999999  1.0000
  C   C88       1.0  0.45733  0.9823  0.40775  1.0000
  C   C89       1.0  0.42873000000000006  0.06285000000000003  0.37971  1.0000
  C   C90       1.0  0.43955  0.06716000000000001  0.32207  1.0000
  C   C91       1.0  0.41330000000000006  0.13934000000000002  0.28186  1.0000
  C   C92       1.0  0.37155999999999995  0.22737000000000004  0.28869  1.0000
  C   C93       1.0  0.3471  0.27864  0.24083  1.0000
  C   C94       1.0  0.36464  0.24324000000000004  0.18675  1.0000
  C   C95       1.0  0.33876  0.296  0.13483999999999996  1.0000
  C   C96       1.0  0.40954999999999986  0.15691  0.18049  1.0000
  C   C97       1.0  0.43398  0.10580999999999999  0.22777999999999998  1.0000
  C   C98       1.0  0.48241  0.011759999999999993  0.2311  1.0000
  C   C99       1.0  0.3918200000000001  0.90937  0.18510999999999997  1.0000
  C   C100      1.0  0.6254  0.050480000000000004  0.22392  1.0000
  C   C101      1.0  0.4789299999999999  0.99106  0.29302  1.0000
  C   C102      1.0  0.50921  0.91217  0.32158  1.0000
  O   O1        1.0  0.80321  0.57846  0.03966  1.0000
  O   O2        1.0  0.6077500000000001  0.47997  0.05657  1.0000
  O   O3        1.0  0.43029  0.51989  0.42923  1.0000
  O   O4        1.0  0.27224  0.42469  0.47204  1.0000
  O   O5        1.0  0.60555  0.70743  0.03807  1.0000
  O   O6        1.0  0.4383900000000001  0.6030000000000001  0.07403  1.0000
  O   O7        1.0  0.28622  0.21406000000000003  0.42338  1.0000
  O   O8        1.0  0.16870999999999994  0.16242000000000004  0.4894399999999999  1.0000
  O   O9        1.0  0.48528  0.18230000000000002  0.53725  1.0000
  O   O10       1.0  0.4244200000000002  0.24059000000000005  0.61379  1.0000
  O   O11       1.0  0.66763  0.60901  0.86042  1.0000
  O   O12       1.0  0.6660200000000001  0.7529400000000002  0.9152599999999999  1.0000
  O   O13       1.0  0.1945599999999999  0.41989  0.9603199999999997  1.0000
  O   O14       1.0  0.39031000000000005  0.51893  0.94381  1.0000
  O   O15       1.0  0.56995  0.48011  0.57077  1.0000
  O   O16       1.0  0.7279200000000001  0.5754700000000001  0.52804  1.0000
  O   O17       1.0  0.39440999999999987  0.2923700000000001  0.9623999999999999  1.0000
  O   O18       1.0  0.5611099999999998  0.39624  0.9260399999999998  1.0000
  O   O19       1.0  0.71405  0.7859300000000001  0.57665  1.0000
  O   O20       1.0  0.8314800000000001  0.8376700000000002  0.51057  1.0000
  O   O21       1.0  0.51458  0.81764  0.46275999999999995  1.0000
  O   O22       1.0  0.57543  0.75925  0.38621  1.0000
  O   O23       1.0  0.32765  0.38931  0.13944  1.0000
  O   O24       1.0  0.33296  0.24674000000000004  0.08492  1.0000
