data_image0
_chemical_formula_structural       Cu12H48C102O48
_chemical_formula_sum              "Cu12 H48 C102 O48"
_cell_length_a       18.59808
_cell_length_b       18.598190000000002
_cell_length_c       18.8088
_cell_angle_alpha    90.0
_cell_angle_beta     90.0
_cell_angle_gamma    119.97003000000001

_symmetry_space_group_name_H-M    'P 1'
_symmetry_Int_Tables_number       1

loop_
  _symmetry_equiv_pos_as_xyz
  'x,y,z'

loop_
  _atom_site_type_symbol
  _atom_site_label
  _atom_site_symmetry_multiplicity
  _atom_site_fract_x
  _atom_site_fract_y
  _atom_site_fract_z
  _atom_site_occupancy
  Cu  Cu1       1.0  0.47805  0.52195  0.9472999999999999  1.0000
  Cu  Cu2       1.0  0.47816000000000003  0.95635  0.9470899999999999  1.0000
  Cu  Cu3       1.0  0.04365000000000003  0.52185  0.9470899999999999  1.0000
  Cu  Cu4       1.0  0.52195  0.47805  0.44728999999999997  1.0000
  Cu  Cu5       1.0  0.52185  0.04365  0.44708  1.0000
  Cu  Cu6       1.0  0.9563599999999999  0.47815  0.44708  1.0000
  Cu  Cu7       1.0  0.52195  0.47805  0.052709999999999986  1.0000
  Cu  Cu8       1.0  0.9563599999999999  0.47815  0.05292  1.0000
  Cu  Cu9       1.0  0.52185  0.04365  0.05292  1.0000
  Cu  Cu10      1.0  0.47805  0.52195  0.5526999999999997  1.0000
  Cu  Cu11      1.0  0.04365000000000003  0.52185  0.55291  1.0000
  Cu  Cu12      1.0  0.47816000000000003  0.95635  0.55291  1.0000
  H   H1        1.0  0.29315  0.35357  0.17536  1.0000
  H   H2        1.0  0.64665  0.93921  0.17543999999999998  1.0000
  H   H3        1.0  0.06071999999999989  0.7072499999999998  0.17525  1.0000
  H   H4        1.0  0.7068599999999999  0.64643  0.6753499999999999  1.0000
  H   H5        1.0  0.35335  0.06079  0.67544  1.0000
  H   H6        1.0  0.93929  0.29275  0.6752499999999999  1.0000
  H   H7        1.0  0.35357  0.29315  0.8246399999999999  1.0000
  H   H8        1.0  0.9392099999999999  0.64665  0.8245599999999997  1.0000
  H   H9        1.0  0.70725  0.06072  0.82475  1.0000
  H   H10       1.0  0.64644  0.70685  0.32464  1.0000
  H   H11       1.0  0.060790000000000004  0.35336  0.32456  1.0000
  H   H12       1.0  0.29276  0.93928  0.3247499999999999  1.0000
  H   H13       1.0  0.7068599999999999  0.64643  0.8246399999999999  1.0000
  H   H14       1.0  0.35335  0.06079  0.8245599999999997  1.0000
  H   H15       1.0  0.93929  0.29275  0.82475  1.0000
  H   H16       1.0  0.29315  0.35357  0.32464  1.0000
  H   H17       1.0  0.64665  0.93921  0.32456  1.0000
  H   H18       1.0  0.06071999999999989  0.7072499999999998  0.3247499999999999  1.0000
  H   H19       1.0  0.64644  0.70685  0.17536  1.0000
  H   H20       1.0  0.060790000000000004  0.35336  0.17543999999999998  1.0000
  H   H21       1.0  0.29276  0.93928  0.17525  1.0000
  H   H22       1.0  0.35357  0.29315  0.6753499999999999  1.0000
  H   H23       1.0  0.9392099999999999  0.64665  0.67544  1.0000
  H   H24       1.0  0.70725  0.06072  0.6752499999999999  1.0000
  H   H25       1.0  0.24023  0.48056  0.010589999999999997  1.0000
  H   H26       1.0  0.51945  0.75977  0.010589999999999997  1.0000
  H   H27       1.0  0.24036999999999997  0.75963  0.01038  1.0000
  H   H28       1.0  0.75977  0.51945  0.51059  1.0000
  H   H29       1.0  0.48056  0.24023  0.51059  1.0000
  H   H30       1.0  0.75964  0.24037  0.51038  1.0000
  H   H31       1.0  0.48056  0.24023  0.9894  1.0000
  H   H32       1.0  0.75977  0.51945  0.9894  1.0000
  H   H33       1.0  0.75964  0.24037  0.9896199999999999  1.0000
  H   H34       1.0  0.51945  0.75977  0.4894  1.0000
  H   H35       1.0  0.24023  0.48056  0.4894  1.0000
  H   H36       1.0  0.24036999999999997  0.75963  0.48961999999999994  1.0000
  H   H37       1.0  0.07912  0.25255  0.24999999999999994  1.0000
  H   H38       1.0  0.74751  0.82599  0.24999999999999994  1.0000
  H   H39       1.0  0.17377000000000006  0.92103  0.24999999999999994  1.0000
  H   H40       1.0  0.92088  0.74744  0.7499999999999998  1.0000
  H   H41       1.0  0.25248999999999994  0.17401  0.7499999999999998  1.0000
  H   H42       1.0  0.8262400000000001  0.07897  0.7499999999999998  1.0000
  H   H43       1.0  0.25256  0.07912  0.7499999999999998  1.0000
  H   H44       1.0  0.82599  0.74751  0.7499999999999998  1.0000
  H   H45       1.0  0.92104  0.17377  0.7499999999999998  1.0000
  H   H46       1.0  0.74745  0.92088  0.24999999999999994  1.0000
  H   H47       1.0  0.17401  0.25249  0.24999999999999994  1.0000
  H   H48       1.0  0.07897000000000004  0.82623  0.24999999999999994  1.0000
  C   C1        1.0  0.2751  0.41996  0.09027  1.0000
  C   C2        1.0  0.25065  0.37126  0.15209  1.0000
  C   C3        1.0  0.35827000000000003  0.44786  0.05798999999999999  1.0000
  C   C4        1.0  0.57998  0.85491  0.09044999999999999  1.0000
  C   C5        1.0  0.6288199999999999  0.87899  0.15218  1.0000
  C   C6        1.0  0.552  0.91033  0.0585  1.0000
  C   C7        1.0  0.14508  0.72495  0.09015999999999998  1.0000
  C   C8        1.0  0.12092999999999998  0.74954  0.15197  1.0000
  C   C9        1.0  0.08977000000000003  0.64172  0.057999999999999996  1.0000
  C   C10       1.0  0.72491  0.58004  0.59026  1.0000
  C   C11       1.0  0.7493599999999999  0.62873  0.6520799999999998  1.0000
  C   C12       1.0  0.6417399999999999  0.55214  0.55798  1.0000
  C   C13       1.0  0.42002  0.14509  0.59045  1.0000
  C   C14       1.0  0.37119  0.12101  0.6521799999999998  1.0000
  C   C15       1.0  0.448  0.08967  0.5584999999999999  1.0000
  C   C16       1.0  0.85492  0.27505  0.59015  1.0000
  C   C17       1.0  0.87908  0.25046  0.65196  1.0000
  C   C18       1.0  0.91023  0.35827  0.55798  1.0000
  C   C19       1.0  0.41995999999999994  0.2751  0.9097299999999999  1.0000
  C   C20       1.0  0.37127000000000004  0.25065  0.84791  1.0000
  C   C21       1.0  0.44786  0.35826  0.9420199999999999  1.0000
  C   C22       1.0  0.85492  0.57998  0.90954  1.0000
  C   C23       1.0  0.879  0.62881  0.84782  1.0000
  C   C24       1.0  0.91033  0.552  0.9415  1.0000
  C   C25       1.0  0.72495  0.14508  0.9098399999999999  1.0000
  C   C26       1.0  0.74955  0.12093  0.8480299999999998  1.0000
  C   C27       1.0  0.64173  0.08978  0.9420099999999999  1.0000
  C   C28       1.0  0.58004  0.7249  0.40973  1.0000
  C   C29       1.0  0.62874  0.74935  0.34791  1.0000
  C   C30       1.0  0.55214  0.64173  0.44200999999999996  1.0000
  C   C31       1.0  0.14508999999999997  0.42002  0.40953999999999996  1.0000
  C   C32       1.0  0.12101  0.37119  0.34781999999999996  1.0000
  C   C33       1.0  0.08967  0.448  0.4415  1.0000
  C   C34       1.0  0.27506  0.85492  0.40984  1.0000
  C   C35       1.0  0.2504599999999999  0.87907  0.3480299999999999  1.0000
  C   C36       1.0  0.35829  0.91023  0.44199999999999995  1.0000
  C   C37       1.0  0.72491  0.58004  0.9097299999999999  1.0000
  C   C38       1.0  0.7493599999999999  0.62873  0.84791  1.0000
  C   C39       1.0  0.6417399999999999  0.55214  0.9420199999999999  1.0000
  C   C40       1.0  0.42002  0.14509  0.90954  1.0000
  C   C41       1.0  0.37119  0.12101  0.84782  1.0000
  C   C42       1.0  0.448  0.08967  0.9415  1.0000
  C   C43       1.0  0.85492  0.27505  0.9098399999999999  1.0000
  C   C44       1.0  0.87908  0.25046  0.8480299999999998  1.0000
  C   C45       1.0  0.91023  0.35827  0.9420099999999999  1.0000
  C   C46       1.0  0.2751  0.41996  0.40973  1.0000
  C   C47       1.0  0.25065  0.37126  0.34791  1.0000
  C   C48       1.0  0.35827000000000003  0.44786  0.44200999999999996  1.0000
  C   C49       1.0  0.57998  0.85491  0.40953999999999996  1.0000
  C   C50       1.0  0.6288199999999999  0.87899  0.34781999999999996  1.0000
  C   C51       1.0  0.552  0.91033  0.4415  1.0000
  C   C52       1.0  0.14508  0.72495  0.40984  1.0000
  C   C53       1.0  0.12092999999999998  0.74954  0.3480299999999999  1.0000
  C   C54       1.0  0.08977000000000003  0.64172  0.44199999999999995  1.0000
  C   C55       1.0  0.58004  0.7249  0.09025999999999999  1.0000
  C   C56       1.0  0.62874  0.74935  0.15209  1.0000
  C   C57       1.0  0.55214  0.64173  0.05798999999999999  1.0000
  C   C58       1.0  0.14508999999999997  0.42002  0.09044999999999999  1.0000
  C   C59       1.0  0.12101  0.37119  0.15218  1.0000
  C   C60       1.0  0.08967  0.448  0.0585  1.0000
  C   C61       1.0  0.27506  0.85492  0.09015999999999998  1.0000
  C   C62       1.0  0.2504599999999999  0.87907  0.15197  1.0000
  C   C63       1.0  0.35829  0.91023  0.057999999999999996  1.0000
  C   C64       1.0  0.41995999999999994  0.2751  0.59026  1.0000
  C   C65       1.0  0.37127000000000004  0.25065  0.6520799999999998  1.0000
  C   C66       1.0  0.44786  0.35826  0.55798  1.0000
  C   C67       1.0  0.85492  0.57998  0.59045  1.0000
  C   C68       1.0  0.879  0.62881  0.6521799999999998  1.0000
  C   C69       1.0  0.91033  0.552  0.5584999999999999  1.0000
  C   C70       1.0  0.72495  0.14508  0.59015  1.0000
  C   C71       1.0  0.74955  0.12093  0.65196  1.0000
  C   C72       1.0  0.64173  0.08978  0.55798  1.0000
  C   C73       1.0  0.17304  0.34557  0.18297  1.0000
  C   C74       1.0  0.2218  0.44352  0.05882  1.0000
  C   C75       1.0  0.65443  0.82696  0.18297  1.0000
  C   C76       1.0  0.55649  0.7782  0.05882  1.0000
  C   C77       1.0  0.17290000000000003  0.8271  0.18288  1.0000
  C   C78       1.0  0.22184999999999996  0.77816  0.05861999999999999  1.0000
  C   C79       1.0  0.82696  0.65443  0.68297  1.0000
  C   C80       1.0  0.7781999999999999  0.5564799999999998  0.55882  1.0000
  C   C81       1.0  0.34557  0.17304  0.68297  1.0000
  C   C82       1.0  0.44352  0.2218  0.55882  1.0000
  C   C83       1.0  0.8271  0.1729  0.68288  1.0000
  C   C84       1.0  0.7781599999999997  0.22184  0.55861  1.0000
  C   C85       1.0  0.34557  0.17304  0.81703  1.0000
  C   C86       1.0  0.44352  0.2218  0.9411799999999999  1.0000
  C   C87       1.0  0.82696  0.65443  0.81703  1.0000
  C   C88       1.0  0.7781999999999999  0.5564799999999998  0.9411799999999999  1.0000
  C   C89       1.0  0.8271  0.1729  0.81711  1.0000
  C   C90       1.0  0.7781599999999997  0.22184  0.9413799999999999  1.0000
  C   C91       1.0  0.65443  0.82696  0.31703  1.0000
  C   C92       1.0  0.55649  0.7782  0.44117999999999996  1.0000
  C   C93       1.0  0.17304  0.34557  0.31703  1.0000
  C   C94       1.0  0.2218  0.44352  0.44117999999999996  1.0000
  C   C95       1.0  0.17290000000000003  0.8271  0.31711  1.0000
  C   C96       1.0  0.22184999999999996  0.77816  0.44137999999999994  1.0000
  C   C97       1.0  0.14684  0.29305  0.24999999999999994  1.0000
  C   C98       1.0  0.70695  0.85316  0.24999999999999994  1.0000
  C   C99       1.0  0.14666999999999988  0.8533299999999998  0.24999999999999994  1.0000
  C   C100      1.0  0.85317  0.70695  0.7499999999999998  1.0000
  C   C101      1.0  0.29305  0.14684  0.7499999999999998  1.0000
  C   C102      1.0  0.85333  0.14667  0.7499999999999998  1.0000
  O   O1        1.0  0.37061000000000005  0.48013  0.9958699999999999  1.0000
  O   O2        1.0  0.4108399999999999  0.4381599999999999  0.09465999999999997  1.0000
  O   O3        1.0  0.52003  0.89085  0.99622  1.0000
  O   O4        1.0  0.56134  0.97214  0.09566999999999998  1.0000
  O   O5        1.0  0.10924999999999999  0.62931  0.9956999999999998  1.0000
  O   O6        1.0  0.027940000000000017  0.58913  0.09504999999999998  1.0000
  O   O7        1.0  0.6293999999999998  0.51987  0.49586  1.0000
  O   O8        1.0  0.58916  0.56184  0.59465  1.0000
  O   O9        1.0  0.47997  0.10915  0.49621999999999994  1.0000
  O   O10       1.0  0.43867  0.02786  0.59567  1.0000
  O   O11       1.0  0.8907500000000002  0.37069  0.49569  1.0000
  O   O12       1.0  0.97207  0.41087  0.5950299999999998  1.0000
  O   O13       1.0  0.48013  0.3706  0.00414  1.0000
  O   O14       1.0  0.43817  0.41083999999999987  0.90535  1.0000
  O   O15       1.0  0.89085  0.52003  0.00377  1.0000
  O   O16       1.0  0.97214  0.56133  0.90433  1.0000
  O   O17       1.0  0.62931  0.10925  0.0043  1.0000
  O   O18       1.0  0.58913  0.02793  0.90497  1.0000
  O   O19       1.0  0.51987  0.6293899999999998  0.50413  1.0000
  O   O20       1.0  0.56183  0.58916  0.40534  1.0000
  O   O21       1.0  0.10915  0.47997  0.50377  1.0000
  O   O22       1.0  0.027860000000000048  0.43867  0.40433  1.0000
  O   O23       1.0  0.3706900000000001  0.89076  0.5043  1.0000
  O   O24       1.0  0.41087  0.97206  0.40494999999999987  1.0000
  O   O25       1.0  0.6293999999999998  0.51987  0.00413  1.0000
  O   O26       1.0  0.58916  0.56184  0.90535  1.0000
  O   O27       1.0  0.47997  0.10915  0.00377  1.0000
  O   O28       1.0  0.43867  0.02786  0.90433  1.0000
  O   O29       1.0  0.8907500000000002  0.37069  0.0043  1.0000
  O   O30       1.0  0.97207  0.41087  0.90497  1.0000
  O   O31       1.0  0.37061000000000005  0.48013  0.50413  1.0000
  O   O32       1.0  0.41084  0.43817  0.40534  1.0000
  O   O33       1.0  0.52003  0.89085  0.50377  1.0000
  O   O34       1.0  0.56133  0.97214  0.40433  1.0000
  O   O35       1.0  0.10924999999999999  0.62931  0.5043  1.0000
  O   O36       1.0  0.027940000000000017  0.58913  0.40494999999999987  1.0000
  O   O37       1.0  0.51987  0.6293899999999998  0.9958699999999999  1.0000
  O   O38       1.0  0.56183  0.58916  0.09465999999999997  1.0000
  O   O39       1.0  0.10915  0.47997  0.99622  1.0000
  O   O40       1.0  0.027860000000000048  0.43867  0.09566999999999998  1.0000
  O   O41       1.0  0.3706900000000001  0.89076  0.9956999999999998  1.0000
  O   O42       1.0  0.41087  0.97206  0.09504999999999998  1.0000
  O   O43       1.0  0.48013  0.3706  0.49586  1.0000
  O   O44       1.0  0.43817  0.41083999999999987  0.59465  1.0000
  O   O45       1.0  0.89085  0.52003  0.49621999999999994  1.0000
  O   O46       1.0  0.97214  0.56133  0.59567  1.0000
  O   O47       1.0  0.62931  0.10925  0.49569  1.0000
  O   O48       1.0  0.58913  0.02793  0.5950299999999998  1.0000
