data_image0
_chemical_formula_structural       Cu12H36C84N12O48
_chemical_formula_sum              "Cu12 H36 C84 N12 O48"
_cell_length_a       13.58964
_cell_length_b       19.17977
_cell_length_c       19.17986
_cell_angle_alpha    119.97172
_cell_angle_beta     90.0
_cell_angle_gamma    90.0

_symmetry_space_group_name_H-M    'P 1'
_symmetry_Int_Tables_number       1

loop_
  _symmetry_equiv_pos_as_xyz
  'x,y,z'

loop_
  _atom_site_type_symbol
  _atom_site_label
  _atom_site_symmetry_multiplicity
  _atom_site_fract_x
  _atom_site_fract_y
  _atom_site_fract_z
  _atom_site_occupancy
  Cu  Cu1       1.0  0.75012  0.8141800000000001  0.18583  1.0000
  Cu  Cu2       1.0  0.90868  0.8539900000000001  0.14601  1.0000
  Cu  Cu3       1.0  0.75015  0.37165000000000004  0.18583  1.0000
  Cu  Cu4       1.0  0.9086600000000002  0.2920100000000001  0.14598  1.0000
  Cu  Cu5       1.0  0.75015  0.81418  0.62835  1.0000
  Cu  Cu6       1.0  0.9086600000000002  0.85402  0.70799  1.0000
  Cu  Cu7       1.0  0.25012  0.18583  0.81417  1.0000
  Cu  Cu8       1.0  0.40868  0.14601999999999998  0.85399  1.0000
  Cu  Cu9       1.0  0.25015  0.6283600000000001  0.81418  1.0000
  Cu  Cu10      1.0  0.40866  0.708  0.85402  1.0000
  Cu  Cu11      1.0  0.25015  0.18583  0.37165  1.0000
  Cu  Cu12      1.0  0.40866  0.14598000000000005  0.29201  1.0000
  H   H1        1.0  0.0461  0.61845  0.021  1.0000
  H   H2        1.0  0.5625000000000001  0.75456  0.98549  1.0000
  H   H3        1.0  0.04608  0.40257000000000004  0.38155  1.0000
  H   H4        1.0  0.56248  0.23094  0.24545000000000003  1.0000
  H   H5        1.0  0.046050000000000015  0.9789800000000002  0.59751  1.0000
  H   H6        1.0  0.5625000000000001  0.01456999999999999  0.76911  1.0000
  H   H7        1.0  0.5461000000000001  0.38156000000000007  0.979  1.0000
  H   H8        1.0  0.062490000000000004  0.24545000000000003  0.01451  1.0000
  H   H9        1.0  0.5460800000000001  0.59744  0.61845  1.0000
  H   H10       1.0  0.062480000000000015  0.76906  0.75455  1.0000
  H   H11       1.0  0.54605  0.021030000000000028  0.4025  1.0000
  H   H12       1.0  0.0625  0.98543  0.23089  1.0000
  H   H13       1.0  0.04608  0.61845  0.59744  1.0000
  H   H14       1.0  0.56248  0.75456  0.76906  1.0000
  H   H15       1.0  0.046050000000000015  0.4025  0.02103  1.0000
  H   H16       1.0  0.5625000000000001  0.23089999999999994  0.9854299999999999  1.0000
  H   H17       1.0  0.0461  0.97901  0.38155  1.0000
  H   H18       1.0  0.5625000000000001  0.014519999999999995  0.24545000000000003  1.0000
  H   H19       1.0  0.5460800000000001  0.38155000000000006  0.40256  1.0000
  H   H20       1.0  0.062480000000000015  0.24545000000000003  0.23094  1.0000
  H   H21       1.0  0.54605  0.59751  0.97897  1.0000
  H   H22       1.0  0.0625  0.7691100000000002  0.01457  1.0000
  H   H23       1.0  0.5461000000000001  0.020999999999999998  0.61845  1.0000
  H   H24       1.0  0.062490000000000004  0.9854900000000002  0.75455  1.0000
  H   H25       1.0  0.81635  0.57473  0.14948  1.0000
  H   H26       1.0  0.81638  0.57472  0.42528  1.0000
  H   H27       1.0  0.81635  0.85053  0.42527  1.0000
  H   H28       1.0  0.3163500000000001  0.42528000000000005  0.85053  1.0000
  H   H29       1.0  0.3163800000000001  0.42529  0.57472  1.0000
  H   H30       1.0  0.3163500000000001  0.14947999999999995  0.57473  1.0000
  H   H31       1.0  0.8340600000000002  0.80379  0.90188  1.0000
  H   H32       1.0  0.8340600000000002  0.09812000000000001  0.19622  1.0000
  H   H33       1.0  0.83398  0.09812  0.90188  1.0000
  H   H34       1.0  0.33406000000000013  0.19622000000000006  0.09812  1.0000
  H   H35       1.0  0.33406000000000013  0.90189  0.80379  1.0000
  H   H36       1.0  0.33398  0.90189  0.09812  1.0000
  C   C1        1.0  0.010810000000000002  0.57993  0.04032  1.0000
  C   C2        1.0  0.92647  0.6071600000000003  0.08912  1.0000
  C   C3        1.0  0.8867400000000001  0.68968  0.1176  1.0000
  C   C4        1.0  0.60439  0.7620100000000001  0.94135  1.0000
  C   C5        1.0  0.7050100000000002  0.77958  0.95254  1.0000
  C   C6        1.0  0.7540400000000003  0.79261  0.02808  1.0000
  C   C7        1.0  0.01085  0.4604  0.4201  1.0000
  C   C8        1.0  0.92651  0.48197000000000007  0.39285  1.0000
  C   C9        1.0  0.88682  0.42794000000000004  0.31032  1.0000
  C   C10       1.0  0.60438  0.17936  0.23799  1.0000
  C   C11       1.0  0.7049900000000001  0.17297000000000007  0.22039  1.0000
  C   C12       1.0  0.7540200000000001  0.23549000000000003  0.20736  1.0000
  C   C13       1.0  0.010800000000000004  0.9596700000000001  0.53965  1.0000
  C   C14       1.0  0.92647  0.91086  0.51806  1.0000
  C   C15       1.0  0.88675  0.8823500000000001  0.57208  1.0000
  C   C16       1.0  0.6043700000000002  0.058690000000000006  0.82066  1.0000
  C   C17       1.0  0.70497  0.047470000000000026  0.82705  1.0000
  C   C18       1.0  0.754  0.9719500000000002  0.76454  1.0000
  C   C19       1.0  0.51081  0.42008  0.95968  1.0000
  C   C20       1.0  0.42646000000000006  0.39285  0.91088  1.0000
  C   C21       1.0  0.38674  0.31033  0.8824  1.0000
  C   C22       1.0  0.10439000000000001  0.238  0.05865  1.0000
  C   C23       1.0  0.20501000000000005  0.22043  0.04746  1.0000
  C   C24       1.0  0.25404  0.20739999999999997  0.97192  1.0000
  C   C25       1.0  0.51085  0.53961  0.5799  1.0000
  C   C26       1.0  0.4265100000000001  0.51804  0.60715  1.0000
  C   C27       1.0  0.38681  0.57206  0.68968  1.0000
  C   C28       1.0  0.10438000000000003  0.8206500000000003  0.76202  1.0000
  C   C29       1.0  0.20499000000000006  0.8270400000000001  0.77961  1.0000
  C   C30       1.0  0.25402  0.76452  0.79264  1.0000
  C   C31       1.0  0.5108  0.04033999999999997  0.46035  1.0000
  C   C32       1.0  0.4264700000000001  0.08915000000000001  0.48194000000000004  1.0000
  C   C33       1.0  0.38675000000000004  0.11766000000000006  0.42792  1.0000
  C   C34       1.0  0.10437  0.9413200000000002  0.17934  1.0000
  C   C35       1.0  0.20497  0.95254  0.17296  1.0000
  C   C36       1.0  0.254  0.028060000000000022  0.23546  1.0000
  C   C37       1.0  0.01085  0.5799100000000001  0.53961  1.0000
  C   C38       1.0  0.92651  0.6071500000000002  0.51804  1.0000
  C   C39       1.0  0.88682  0.68969  0.57206  1.0000
  C   C40       1.0  0.60438  0.76202  0.82064  1.0000
  C   C41       1.0  0.7049900000000001  0.7796100000000001  0.82703  1.0000
  C   C42       1.0  0.7540200000000001  0.7926400000000001  0.76452  1.0000
  C   C43       1.0  0.010800000000000004  0.46035000000000004  0.04034  1.0000
  C   C44       1.0  0.92647  0.48194  0.08915  1.0000
  C   C45       1.0  0.88675  0.42792  0.11765  1.0000
  C   C46       1.0  0.6043700000000002  0.17934  0.94132  1.0000
  C   C47       1.0  0.70497  0.17295999999999997  0.95254  1.0000
  C   C48       1.0  0.754  0.23546000000000003  0.02806  1.0000
  C   C49       1.0  0.010810000000000002  0.95968  0.42008  1.0000
  C   C50       1.0  0.92647  0.9108900000000001  0.39285  1.0000
  C   C51       1.0  0.8867400000000001  0.8824000000000001  0.31032  1.0000
  C   C52       1.0  0.60439  0.05865000000000001  0.238  1.0000
  C   C53       1.0  0.7050100000000002  0.04746000000000002  0.22043  1.0000
  C   C54       1.0  0.7540400000000003  0.97192  0.20739  1.0000
  C   C55       1.0  0.51085  0.42010000000000003  0.46039  1.0000
  C   C56       1.0  0.4265100000000001  0.39285000000000003  0.48197  1.0000
  C   C57       1.0  0.38681  0.31032  0.42794  1.0000
  C   C58       1.0  0.10438000000000003  0.23799  0.17936  1.0000
  C   C59       1.0  0.20499000000000006  0.22039000000000006  0.17297  1.0000
  C   C60       1.0  0.25402  0.20737  0.23549  1.0000
  C   C61       1.0  0.5108  0.5396600000000001  0.95967  1.0000
  C   C62       1.0  0.4264700000000001  0.51807  0.91085  1.0000
  C   C63       1.0  0.38675000000000004  0.57209  0.88235  1.0000
  C   C64       1.0  0.10437  0.82067  0.05868  1.0000
  C   C65       1.0  0.20497  0.82705  0.04747  1.0000
  C   C66       1.0  0.254  0.76455  0.97195  1.0000
  C   C67       1.0  0.51081  0.040330000000000005  0.57992  1.0000
  C   C68       1.0  0.42646000000000006  0.08911999999999998  0.60716  1.0000
  C   C69       1.0  0.38674  0.11761000000000009  0.68968  1.0000
  C   C70       1.0  0.10439000000000001  0.9413600000000002  0.762  1.0000
  C   C71       1.0  0.20501000000000005  0.95254  0.77957  1.0000
  C   C72       1.0  0.25404  0.028089999999999983  0.79261  1.0000
  C   C73       1.0  0.88235  0.55621  0.11247  1.0000
  C   C74       1.0  0.8823900000000002  0.55622  0.44379  1.0000
  C   C75       1.0  0.88235  0.8875400000000002  0.44379  1.0000
  C   C76       1.0  0.38235  0.44380000000000003  0.88754  1.0000
  C   C77       1.0  0.3823900000000001  0.4437900000000001  0.55622  1.0000
  C   C78       1.0  0.38235  0.11247000000000007  0.55621  1.0000
  C   C79       1.0  0.7561500000000002  0.78879  0.89437  1.0000
  C   C80       1.0  0.7561500000000002  0.10563  0.21122  1.0000
  C   C81       1.0  0.75609  0.10561999999999994  0.89438  1.0000
  C   C82       1.0  0.25615000000000004  0.21122  0.10563  1.0000
  C   C83       1.0  0.25615000000000004  0.89438  0.78878  1.0000
  C   C84       1.0  0.25609000000000004  0.89438  0.10562  1.0000
  N   N1        1.0  0.05188000000000001  0.5074100000000002  0.01486  1.0000
  N   N2        1.0  0.05194  0.5074000000000002  0.4925999999999999  1.0000
  N   N3        1.0  0.05188000000000001  0.98514  0.49259000000000003  1.0000
  N   N4        1.0  0.55188  0.4925999999999999  0.9851399999999999  1.0000
  N   N5        1.0  0.5519400000000001  0.49260000000000004  0.5074  1.0000
  N   N6        1.0  0.55188  0.014869999999999994  0.50741  1.0000
  N   N7        1.0  0.55503  0.7537400000000002  0.87687  1.0000
  N   N8        1.0  0.55503  0.12314000000000001  0.24627  1.0000
  N   N9        1.0  0.55501  0.12316000000000002  0.87685  1.0000
  N   N10       1.0  0.05503000000000001  0.24627000000000004  0.12314000000000001  1.0000
  N   N11       1.0  0.05503000000000001  0.8768700000000001  0.75374  1.0000
  N   N12       1.0  0.05501000000000001  0.87685  0.12314999999999998  1.0000
  O   O1        1.0  0.8006600000000003  0.7050900000000001  0.1489  1.0000
  O   O2        1.0  0.9428000000000001  0.73869  0.10956  1.0000
  O   O3        1.0  0.70056  0.78094  0.07621  1.0000
  O   O4        1.0  0.84317  0.8162000000000003  0.03859  1.0000
  O   O5        1.0  0.8007300000000003  0.4438300000000001  0.2949  1.0000
  O   O6        1.0  0.94284  0.3709000000000001  0.26132  1.0000
  O   O7        1.0  0.7005700000000002  0.29529  0.21905  1.0000
  O   O8        1.0  0.8431600000000002  0.22241000000000005  0.18378  1.0000
  O   O9        1.0  0.80069  0.85102  0.55616  1.0000
  O   O10       1.0  0.94278  0.8904400000000001  0.62917  1.0000
  O   O11       1.0  0.70056  0.92384  0.70474  1.0000
  O   O12       1.0  0.84314  0.9614500000000002  0.77763  1.0000
  O   O13       1.0  0.3006600000000001  0.29491999999999996  0.8511  1.0000
  O   O14       1.0  0.44279000000000013  0.2613200000000001  0.89044  1.0000
  O   O15       1.0  0.20056000000000004  0.21907000000000007  0.92379  1.0000
  O   O16       1.0  0.3431700000000001  0.18380999999999997  0.96142  1.0000
  O   O17       1.0  0.30072  0.5561700000000002  0.7051  1.0000
  O   O18       1.0  0.4428400000000001  0.6291100000000002  0.73868  1.0000
  O   O19       1.0  0.20056000000000004  0.70472  0.78095  1.0000
  O   O20       1.0  0.34316  0.7776000000000001  0.81622  1.0000
  O   O21       1.0  0.30069  0.14899  0.44384  1.0000
  O   O22       1.0  0.4427700000000001  0.10957  0.37084  1.0000
  O   O23       1.0  0.20056000000000004  0.07615999999999998  0.29526  1.0000
  O   O24       1.0  0.34314000000000006  0.038560000000000025  0.22238  1.0000
  O   O25       1.0  0.8007300000000003  0.7051100000000002  0.55617  1.0000
  O   O26       1.0  0.94284  0.73869  0.6291  1.0000
  O   O27       1.0  0.7005700000000002  0.78095  0.70471  1.0000
  O   O28       1.0  0.8431600000000002  0.81622  0.7776  1.0000
  O   O29       1.0  0.80069  0.44384  0.14899  1.0000
  O   O30       1.0  0.94278  0.3708400000000001  0.10956  1.0000
  O   O31       1.0  0.70056  0.29526  0.07616  1.0000
  O   O32       1.0  0.84314  0.22238  0.03856  1.0000
  O   O33       1.0  0.8006600000000003  0.8511  0.29491  1.0000
  O   O34       1.0  0.9428000000000001  0.8904400000000001  0.26131  1.0000
  O   O35       1.0  0.70056  0.9238  0.21907  1.0000
  O   O36       1.0  0.84317  0.96142  0.1838  1.0000
  O   O37       1.0  0.30072  0.2949000000000001  0.44383  1.0000
  O   O38       1.0  0.4428400000000001  0.26132000000000005  0.3709  1.0000
  O   O39       1.0  0.20056000000000004  0.21906  0.29529  1.0000
  O   O40       1.0  0.34316  0.18379000000000006  0.22241  1.0000
  O   O41       1.0  0.30069  0.5561600000000001  0.85102  1.0000
  O   O42       1.0  0.4427700000000001  0.62917  0.89044  1.0000
  O   O43       1.0  0.20056000000000004  0.70475  0.92384  1.0000
  O   O44       1.0  0.34314000000000006  0.7776300000000003  0.96144  1.0000
  O   O45       1.0  0.3006600000000001  0.14891  0.70509  1.0000
  O   O46       1.0  0.44279000000000013  0.10957  0.73869  1.0000
  O   O47       1.0  0.20056000000000004  0.07621000000000001  0.78094  1.0000
  O   O48       1.0  0.3431700000000001  0.03859000000000003  0.8162  1.0000
