data_image0
_chemical_formula_structural       Zn8H40C88N4O32
_chemical_formula_sum              "Zn8 H40 C88 N4 O32"
_cell_length_a       12.66944
_cell_length_b       15.400529999999998
_cell_length_c       24.98189
_cell_angle_alpha    90.05174
_cell_angle_beta     102.59897
_cell_angle_gamma    89.94998

_space_group_name_H-M_alt    "P 1"
_space_group_IT_number       1

loop_
  _space_group_symop_operation_xyz
  'x, y, z'

loop_
  _atom_site_type_symbol
  _atom_site_label
  _atom_site_symmetry_multiplicity
  _atom_site_fract_x
  _atom_site_fract_y
  _atom_site_fract_z
  _atom_site_occupancy
  Zn  Zn1       1.0  0.53632  0.52228  0.35850000000000004  1.0000
  Zn  Zn2       1.0  0.38321  0.64665  0.28712  1.0000
  Zn  Zn3       1.0  0.46351  0.02296  0.14121  1.0000
  Zn  Zn4       1.0  0.61711  0.14559  0.21259  1.0000
  Zn  Zn5       1.0  0.46368000000000004  0.4777  0.64149  1.0000
  Zn  Zn6       1.0  0.61676  0.35323  0.71288  1.0000
  Zn  Zn7       1.0  0.53657  0.97663  0.85852  1.0000
  Zn  Zn8       1.0  0.38287000000000004  0.8544699999999998  0.78735  1.0000
  H   H1        1.0  0.17817  0.48057  0.17213  1.0000
  H   H2        1.0  0.21740000000000007  0.22101999999999994  0.11418000000000002  1.0000
  H   H3        1.0  0.43927  0.31983  0.25664  1.0000
  H   H4        1.0  0.15506  0.48304999999999987  0.07059  1.0000
  H   H5        1.0  0.8439900000000001  0.41066  0.97247  1.0000
  H   H6        1.0  0.81641  0.23992  0.94127  1.0000
  H   H7        1.0  0.58438  0.09281  0.00564  1.0000
  H   H8        1.0  0.78891  0.27695999999999993  0.1091  1.0000
  H   H9        1.0  0.9460500000000001  0.18717  0.10129  1.0000
  H   H10       1.0  0.06528  0.21937  0.14274  1.0000
  H   H11       1.0  0.8204900000000002  0.9803299999999998  0.32786  1.0000
  H   H12       1.0  0.78188  0.72069  0.38546  1.0000
  H   H13       1.0  0.55994  0.8192499999999998  0.24306  1.0000
  H   H14       1.0  0.8442900000000001  0.98299  0.42951  1.0000
  H   H15       1.0  0.15605000000000005  0.9107699999999997  0.52705  1.0000
  H   H16       1.0  0.18298000000000003  0.74126  0.55842  1.0000
  H   H17       1.0  0.41343  0.5910799999999998  0.49465000000000003  1.0000
  H   H18       1.0  0.21131  0.7758  0.39052  1.0000
  H   H19       1.0  0.053710000000000056  0.6872199999999998  0.39809000000000005  1.0000
  H   H20       1.0  0.93417  0.71937  0.35689  1.0000
  H   H21       1.0  0.82188  0.51937  0.82787  1.0000
  H   H22       1.0  0.78207  0.7788999999999998  0.88573  1.0000
  H   H23       1.0  0.5606  0.6799399999999998  0.74325  1.0000
  H   H24       1.0  0.8447100000000001  0.51693  0.92937  1.0000
  H   H25       1.0  0.15583  0.58927  0.02748  1.0000
  H   H26       1.0  0.18345  0.7599399999999997  0.05859  1.0000
  H   H27       1.0  0.41527  0.9069699999999998  0.99408  1.0000
  H   H28       1.0  0.21080000000000007  0.72275  0.89073  1.0000
  H   H29       1.0  0.05377  0.81282  0.89872  1.0000
  H   H30       1.0  0.9345500000000001  0.78068  0.85727  1.0000
  H   H31       1.0  0.17933999999999994  0.01974  0.67205  1.0000
  H   H32       1.0  0.21807  0.27937  0.6145  1.0000
  H   H33       1.0  0.43997  0.18071  0.75691  1.0000
  H   H34       1.0  0.15566  0.01702  0.57047  1.0000
  H   H35       1.0  0.84386  0.08919  0.47294  1.0000
  H   H36       1.0  0.817  0.25873  0.44158  1.0000
  H   H37       1.0  0.58656  0.40892  0.50535  1.0000
  H   H38       1.0  0.78862  0.22416  0.60947  1.0000
  H   H39       1.0  0.9462100000000002  0.31276999999999994  0.60191  1.0000
  H   H40       1.0  0.06575999999999999  0.28058  0.64309  1.0000
  C   C1        1.0  0.35764  0.48056  0.25465  1.0000
  C   C2        1.0  0.31307  0.40744  0.21781000000000003  1.0000
  C   C3        1.0  0.22038000000000002  0.41861  0.17593  1.0000
  C   C4        1.0  0.18246000000000004  0.35145  0.13856  1.0000
  C   C5        1.0  0.24017  0.2727699999999999  0.14421  1.0000
  C   C6        1.0  0.33117  0.26082999999999995  0.187  1.0000
  C   C7        1.0  0.36756000000000005  0.32807  0.22412  1.0000
  C   C8        1.0  0.39758  0.18073  0.19030999999999998  1.0000
  C   C9        1.0  0.08724000000000001  0.36612  0.0931  1.0000
  C   C10       1.0  0.08509  0.4405  0.060820000000000006  1.0000
  C   C11       1.0  0.99939  0.46008  0.01658  1.0000
  C   C12       1.0  0.91341  0.3998199999999999  0.00602  1.0000
  C   C13       1.0  0.9105400000000001  0.32568  0.03799  1.0000
  C   C14       1.0  0.99882  0.30754999999999993  0.0826  1.0000
  C   C15       1.0  0.8156300000000002  0.26586  0.02679  1.0000
  C   C16       1.0  0.77845  0.22579999999999995  0.97544  1.0000
  C   C17       1.0  0.6941500000000002  0.16472999999999993  0.96749  1.0000
  C   C18       1.0  0.6466  0.1425  0.01119  1.0000
  C   C19       1.0  0.6803200000000003  0.18363  0.06205000000000001  1.0000
  C   C20       1.0  0.7632100000000002  0.24582  0.06934  1.0000
  C   C21       1.0  0.6570600000000001  0.12008999999999997  0.91264  1.0000
  C   C22       1.0  0.63374  0.15756  0.10932  1.0000
  C   C23       1.0  0.64198  0.9805099999999998  0.24534  1.0000
  C   C24       1.0  0.68594  0.9071399999999997  0.28202  1.0000
  C   C25       1.0  0.77847  0.9183399999999999  0.32403  1.0000
  C   C26       1.0  0.81676  0.8513  0.36138000000000003  1.0000
  C   C27       1.0  0.7591600000000001  0.77266  0.35563  1.0000
  C   C28       1.0  0.66817  0.7607499999999998  0.31282  1.0000
  C   C29       1.0  0.63154  0.8277799999999997  0.27563  1.0000
  C   C30       1.0  0.6023  0.6805699999999998  0.30973  1.0000
  C   C31       1.0  0.91217  0.86609  0.40675  1.0000
  C   C32       1.0  0.91441  0.9404999999999998  0.43914  1.0000
  C   C33       1.0  0.00036999999999999745  0.96016  0.48329  1.0000
  C   C34       1.0  0.08648  0.89995  0.49357  1.0000
  C   C35       1.0  0.08922000000000002  0.82585  0.46148  1.0000
  C   C36       1.0  0.0008100000000000139  0.80762  0.41698  1.0000
  C   C37       1.0  0.18387  0.7658099999999998  0.47277  1.0000
  C   C38       1.0  0.22066000000000002  0.72624  0.52427  1.0000
  C   C39       1.0  0.30414  0.6644299999999999  0.53238  1.0000
  C   C40       1.0  0.35169  0.64124  0.4888700000000001  1.0000
  C   C41       1.0  0.31877  0.68223  0.438  1.0000
  C   C42       1.0  0.23634000000000002  0.7449099999999997  0.43036  1.0000
  C   C43       1.0  0.34093  0.62008  0.5872  1.0000
  C   C44       1.0  0.36641  0.65554  0.39124  1.0000
  C   C45       1.0  0.6423800000000001  0.5193  0.7453  1.0000
  C   C46       1.0  0.68689  0.59243  0.78213  1.0000
  C   C47       1.0  0.77956  0.5812899999999998  0.8240400000000001  1.0000
  C   C48       1.0  0.8174  0.64843  0.86143  1.0000
  C   C49       1.0  0.7596  0.7270499999999998  0.85576  1.0000
  C   C50       1.0  0.66867  0.73896  0.81295  1.0000
  C   C51       1.0  0.6323000000000001  0.67176  0.7758  1.0000
  C   C52       1.0  0.60242  0.8190699999999997  0.80973  1.0000
  C   C53       1.0  0.91258  0.63383  0.90689  1.0000
  C   C54       1.0  0.9147100000000001  0.5594499999999999  0.93917  1.0000
  C   C55       1.0  0.00039000000000003485  0.5398499999999998  0.98342  1.0000
  C   C56       1.0  0.08639000000000002  0.6000899999999998  0.9939300000000001  1.0000
  C   C57       1.0  0.08927  0.67419  0.96194  1.0000
  C   C58       1.0  0.0009800000000000284  0.6924199999999998  0.9173700000000001  1.0000
  C   C59       1.0  0.18425  0.7339  0.97308  1.0000
  C   C60       1.0  0.22139  0.7740099999999998  0.024409999999999998  1.0000
  C   C61       1.0  0.3056  0.83513  0.03227  1.0000
  C   C62       1.0  0.35312000000000004  0.85725  0.9885700000000001  1.0000
  C   C63       1.0  0.3195  0.8160799999999998  0.93776  1.0000
  C   C64       1.0  0.23658  0.7539  0.93047  1.0000
  C   C65       1.0  0.34294  0.8801099999999997  0.08693000000000001  1.0000
  C   C66       1.0  0.36626  0.8424  0.8906200000000001  1.0000
  C   C67       1.0  0.35786  0.01944999999999999  0.75464  1.0000
  C   C68       1.0  0.31394  0.09285999999999997  0.71796  1.0000
  C   C69       1.0  0.22143000000000004  0.08168999999999998  0.67593  1.0000
  C   C70       1.0  0.18319  0.14873  0.63857  1.0000
  C   C71       1.0  0.24078000000000005  0.22737  0.64432  1.0000
  C   C72       1.0  0.33177  0.23925  0.68714  1.0000
  C   C73       1.0  0.36837  0.17221  0.72433  1.0000
  C   C74       1.0  0.39765  0.31941999999999987  0.69025  1.0000
  C   C75       1.0  0.08779000000000002  0.13393  0.5932  1.0000
  C   C76       1.0  0.08554  0.05951  0.56082  1.0000
  C   C77       1.0  0.99956  0.03982  0.51669  1.0000
  C   C78       1.0  0.9134400000000001  0.10002  0.50641  1.0000
  C   C79       1.0  0.9106900000000001  0.17412  0.53849  1.0000
  C   C80       1.0  0.99913  0.19239  0.58298  1.0000
  C   C81       1.0  0.81605  0.23416  0.52721  1.0000
  C   C82       1.0  0.77929  0.27374  0.47573  1.0000
  C   C83       1.0  0.69582  0.33556  0.4676199999999999  1.0000
  C   C84       1.0  0.64829  0.35875  0.51113  1.0000
  C   C85       1.0  0.68121  0.31777  0.562  1.0000
  C   C86       1.0  0.76361  0.25507  0.56963  1.0000
  C   C87       1.0  0.65904  0.37992  0.4128  1.0000
  C   C88       1.0  0.63357  0.34446  0.60876  1.0000
  N   N1        1.0  0.99557  0.23709  0.11676000000000002  1.0000
  N   N2        1.0  0.00402000000000001  0.73714  0.38273  1.0000
  N   N3        1.0  0.004260000000000038  0.7629  0.88323  1.0000
  N   N4        1.0  0.9959100000000001  0.26285  0.61724  1.0000
  O   O1        1.0  0.44339000000000006  0.46767  0.29117  1.0000
  O   O2        1.0  0.30636  0.55355  0.2459  1.0000
  O   O3        1.0  0.48260000000000003  0.17751  0.22971000000000003  1.0000
  O   O4        1.0  0.37007000000000007  0.12190999999999998  0.15411  1.0000
  O   O5        1.0  0.66194  0.20361999999999994  0.15378  1.0000
  O   O6        1.0  0.57246  0.09139  0.10568000000000001  1.0000
  O   O7        1.0  0.59678  0.05164  0.9165900000000001  1.0000
  O   O8        1.0  0.6826100000000002  0.14677999999999997  0.8705299999999999  1.0000
  O   O9        1.0  0.55588  0.9689599999999998  0.20892  1.0000
  O   O10       1.0  0.69426  0.052959999999999986  0.25411  1.0000
  O   O11       1.0  0.51802  0.67593  0.2699  1.0000
  O   O12       1.0  0.6294  0.6228699999999998  0.34654  1.0000
  O   O13       1.0  0.33847  0.7014299999999998  0.34663  1.0000
  O   O14       1.0  0.42816  0.58961  0.39571  1.0000
  O   O15       1.0  0.3981  0.5498199999999998  0.58281  1.0000
  O   O16       1.0  0.31794  0.64868  0.62952  1.0000
  O   O17       1.0  0.5566500000000001  0.53224  0.7087900000000001  1.0000
  O   O18       1.0  0.69366  0.44632  0.75406  1.0000
  O   O19       1.0  0.5174800000000002  0.82249  0.7703200000000001  1.0000
  O   O20       1.0  0.6300500000000002  0.87777  0.84603  1.0000
  O   O21       1.0  0.33815000000000006  0.79641  0.84613  1.0000
  O   O22       1.0  0.42747  0.90863  0.89435  1.0000
  O   O23       1.0  0.4029400000000001  0.94861  0.08258  1.0000
  O   O24       1.0  0.31785  0.85362  0.12922  1.0000
  O   O25       1.0  0.44405  0.0309  0.79102  1.0000
  O   O26       1.0  0.30549  0.94704  0.74588  1.0000
  O   O27       1.0  0.48193  0.32404  0.73009  1.0000
  O   O28       1.0  0.37057  0.37715  0.65345  1.0000
  O   O29       1.0  0.6615000000000001  0.2985399999999999  0.65336  1.0000
  O   O30       1.0  0.57184  0.4103999999999999  0.6043  1.0000
  O   O31       1.0  0.60188  0.45019  0.4172  1.0000
  O   O32       1.0  0.68204  0.3513599999999999  0.37049000000000004  1.0000
