data_image0
_chemical_formula_structural       Cu4H60C92N12O16
_chemical_formula_sum              "Cu4 H60 C92 N12 O16"
_cell_length_a       10.24183
_cell_length_b       14.663739999999999
_cell_length_c       17.10198
_cell_angle_alpha    79.06354
_cell_angle_beta     72.58917
_cell_angle_gamma    69.54804

_space_group_name_H-M_alt    "P 1"
_space_group_IT_number       1

loop_
  _space_group_symop_operation_xyz
  'x, y, z'

loop_
  _atom_site_type_symbol
  _atom_site_label
  _atom_site_symmetry_multiplicity
  _atom_site_fract_x
  _atom_site_fract_y
  _atom_site_fract_z
  _atom_site_occupancy
  Cu  Cu1       1.0  0.4194500000000001  0.94527  0.73368  1.0000
  Cu  Cu2       1.0  0.9024  0.4453  0.23372  1.0000
  Cu  Cu3       1.0  0.09759999999999999  0.55471  0.76627  1.0000
  Cu  Cu4       1.0  0.58056  0.054729999999999994  0.2663100000000001  1.0000
  H   H1        1.0  0.4915199999999999  0.9642999999999998  0.8823700000000002  1.0000
  H   H2        1.0  0.38946999999999987  0.07196  0.9983300000000002  1.0000
  H   H3        1.0  0.06566000000000001  0.25113  0.87145  1.0000
  H   H4        1.0  0.18045000000000005  0.13361999999999993  0.76257  1.0000
  H   H5        1.0  0.21389  0.12068999999999999  0.11153  1.0000
  H   H6        1.0  0.09154000000000002  0.22992  0.22101  1.0000
  H   H7        1.0  0.93227  0.46307  0.060060000000000016  1.0000
  H   H8        1.0  0.059770000000000045  0.36655999999999994  0.939  1.0000
  H   H9        1.0  0.77644  0.2761900000000001  0.30359  1.0000
  H   H10       1.0  0.05758999999999999  0.37661  0.36674  1.0000
  H   H11       1.0  0.9241899999999997  0.94357  0.74344  1.0000
  H   H12       1.0  0.1315  0.11666999999999998  0.54994  1.0000
  H   H13       1.0  0.7052299999999999  0.11314999999999999  0.56047  1.0000
  H   H14       1.0  0.05989000000000002  0.26126  0.49405  1.0000
  H   H15       1.0  0.77335  0.15177999999999997  0.42457  1.0000
  H   H16       1.0  0.6621000000000001  0.46432  0.38238  1.0000
  H   H17       1.0  0.5403999999999998  0.57201  0.4983000000000001  1.0000
  H   H18       1.0  0.8117599999999999  0.75113  0.37155  1.0000
  H   H19       1.0  0.9233900000000003  0.63364  0.26266  1.0000
  H   H20       1.0  0.55374  0.62079  0.61159  1.0000
  H   H21       1.0  0.45781  0.7299599999999999  0.7210800000000003  1.0000
  H   H22       1.0  0.54451  0.96309  0.56012  1.0000
  H   H23       1.0  0.6344899999999999  0.86658  0.43909  1.0000
  H   H24       1.0  0.64389  0.7760200000000002  0.80356  1.0000
  H   H25       1.0  0.19911000000000015  0.8769299999999998  0.86673  1.0000
  H   H26       1.0  0.38833  0.44341  0.24336  1.0000
  H   H27       1.0  0.20199999999999996  0.61685  0.04967  1.0000
  H   H28       1.0  0.6210300000000002  0.6130099999999999  0.06057  1.0000
  H   H29       1.0  0.18487999999999993  0.76142  0.99392  1.0000
  H   H30       1.0  0.6505600000000002  0.65165  0.92455  1.0000
  H   H31       1.0  0.33791  0.53568  0.61761  1.0000
  H   H32       1.0  0.4595999999999999  0.428  0.5017  1.0000
  H   H33       1.0  0.18824  0.24887000000000004  0.62844  1.0000
  H   H34       1.0  0.07661000000000003  0.36636  0.73734  1.0000
  H   H35       1.0  0.4462600000000001  0.37920999999999994  0.3884100000000001  1.0000
  H   H36       1.0  0.5421999999999999  0.27004  0.27891  1.0000
  H   H37       1.0  0.45548999999999995  0.03692  0.43988  1.0000
  H   H38       1.0  0.36551  0.13341999999999996  0.56091  1.0000
  H   H39       1.0  0.35611  0.22398  0.19644  1.0000
  H   H40       1.0  0.8008899999999999  0.12308  0.13327000000000006  1.0000
  H   H41       1.0  0.61167  0.5565999999999999  0.75664  1.0000
  H   H42       1.0  0.798  0.38315  0.95032  1.0000
  H   H43       1.0  0.37896999999999975  0.38699  0.9394200000000003  1.0000
  H   H44       1.0  0.8151199999999998  0.23858999999999994  0.00608  1.0000
  H   H45       1.0  0.3494399999999999  0.34836  0.07545  1.0000
  H   H46       1.0  0.5084799999999999  0.035699999999999996  0.11763000000000003  1.0000
  H   H47       1.0  0.6105400000000001  0.92804  0.0016700000000000005  1.0000
  H   H48       1.0  0.9343499999999999  0.74888  0.12855  1.0000
  H   H49       1.0  0.81955  0.86639  0.23743  1.0000
  H   H50       1.0  0.78611  0.87931  0.8884600000000001  1.0000
  H   H51       1.0  0.9084699999999999  0.77009  0.7789900000000002  1.0000
  H   H52       1.0  0.06773000000000008  0.5369399999999998  0.93994  1.0000
  H   H53       1.0  0.94024  0.63345  0.061  1.0000
  H   H54       1.0  0.22355999999999995  0.72381  0.6964  1.0000
  H   H55       1.0  0.9424100000000001  0.6233999999999998  0.63325  1.0000
  H   H56       1.0  0.07580999999999997  0.05644  0.25655  1.0000
  H   H57       1.0  0.8685000000000002  0.88334  0.45005  1.0000
  H   H58       1.0  0.2947699999999999  0.88686  0.43953  1.0000
  H   H59       1.0  0.94011  0.73874  0.50594  1.0000
  H   H60       1.0  0.2266499999999999  0.84823  0.57543  1.0000
  C   C1        1.0  0.39566999999999997  0.027639999999999998  0.88427  1.0000
  C   C2        1.0  0.33854999999999996  0.08806999999999998  0.94773  1.0000
  C   C3        1.0  0.21604999999999996  0.16992  0.94589  1.0000
  C   C4        1.0  0.15935000000000005  0.18809999999999996  0.8771  1.0000
  C   C5        1.0  0.22156999999999977  0.12367999999999998  0.8163500000000002  1.0000
  C   C6        1.0  0.14725999999999997  0.23307  0.01417  1.0000
  C   C7        1.0  0.1553  0.19623  0.09516  1.0000
  C   C8        1.0  0.08438  0.25714  0.15829  1.0000
  C   C9        1.0  0.9983499999999997  0.38735  0.06703  1.0000
  C   C10       1.0  0.06820999999999999  0.33189  0.00045  1.0000
  C   C11       1.0  0.16647  0.99462  0.68778  1.0000
  C   C12       1.0  0.8383199999999997  0.26933  0.3473000000000001  1.0000
  C   C13       1.0  0.99475  0.32629  0.3834300000000001  1.0000
  C   C14       1.0  0.6782699999999999  0.9850499999999999  0.69779  1.0000
  C   C15       1.0  0.8023599999999999  0.024119999999999996  0.65549  1.0000
  C   C16       1.0  0.9220199999999997  0.99422  0.68822  1.0000
  C   C17       1.0  0.039670000000000004  0.028550000000000002  0.65078  1.0000
  C   C18       1.0  0.03721000000000001  0.09310000000000002  0.57945  1.0000
  C   C19       1.0  0.9177299999999999  0.12466000000000002  0.54545  1.0000
  C   C20       1.0  0.80062  0.08925999999999999  0.58409  1.0000
  C   C21       1.0  0.99671  0.2605200000000001  0.45329  1.0000
  C   C22       1.0  0.9162199999999999  0.1952  0.47146  1.0000
  C   C23       1.0  0.83572  0.20119999999999996  0.41592  1.0000
  C   C24       1.0  0.6927300000000002  0.52762  0.3843  1.0000
  C   C25       1.0  0.6258499999999998  0.5880799999999999  0.44774  1.0000
  C   C26       1.0  0.6682200000000001  0.6699299999999999  0.44596  1.0000
  C   C27       1.0  0.7754900000000001  0.6881099999999999  0.37721  1.0000
  C   C28       1.0  0.8385299999999999  0.62368  0.31644  1.0000
  C   C29       1.0  0.6054599999999999  0.7330999999999999  0.5142400000000003  1.0000
  C   C30       1.0  0.55334  0.6962799999999999  0.59522  1.0000
  C   C31       1.0  0.5003300000000002  0.7571799999999999  0.65836  1.0000
  C   C32       1.0  0.54729  0.8873599999999999  0.5671  1.0000
  C   C33       1.0  0.5994399999999999  0.83189  0.50052  1.0000
  C   C34       1.0  0.15093999999999996  0.4945  0.18761  1.0000
  C   C35       1.0  0.5451799999999998  0.76928  0.8473200000000002  1.0000
  C   C36       1.0  0.29562000000000005  0.8265  0.8834  1.0000
  C   C37       1.0  0.6385900000000001  0.4851299999999999  0.19817  1.0000
  C   C38       1.0  0.5179100000000002  0.52394  0.1556  1.0000
  C   C39       1.0  0.39538999999999996  0.49402999999999997  0.18815  1.0000
  C   C40       1.0  0.2809  0.52834  0.15067  1.0000
  C   C41       1.0  0.29014999999999996  0.59305  0.07938  1.0000
  C   C42       1.0  0.41210000000000013  0.6245599999999999  0.04548  1.0000
  C   C43       1.0  0.52596  0.58908  0.08417000000000001  1.0000
  C   C44       1.0  0.28959  0.76064  0.95323  1.0000
  C   C45       1.0  0.41722  0.6951699999999998  0.9714600000000002  1.0000
  C   C46       1.0  0.5473099999999999  0.70111  0.91596  1.0000
  C   C47       1.0  0.3072799999999999  0.47238  0.6156900000000002  1.0000
  C   C48       1.0  0.3741500000000001  0.41193  0.55225  1.0000
  C   C49       1.0  0.33178  0.33008  0.55403  1.0000
  C   C50       1.0  0.22450999999999988  0.31189  0.6227900000000001  1.0000
  C   C51       1.0  0.16147  0.37632  0.68355  1.0000
  C   C52       1.0  0.39454  0.26691000000000004  0.48576  1.0000
  C   C53       1.0  0.44666999999999996  0.30373  0.40477  1.0000
  C   C54       1.0  0.4996700000000001  0.24282  0.34164  1.0000
  C   C55       1.0  0.45271  0.11263999999999998  0.4329  1.0000
  C   C56       1.0  0.4005699999999999  0.16811  0.49946999999999997  1.0000
  C   C57       1.0  0.84906  0.5055  0.81238  1.0000
  C   C58       1.0  0.4548200000000001  0.23072999999999996  0.15268  1.0000
  C   C59       1.0  0.70438  0.17351  0.11659  1.0000
  C   C60       1.0  0.36141999999999996  0.5148799999999999  0.80182  1.0000
  C   C61       1.0  0.4821000000000001  0.47607  0.84439  1.0000
  C   C62       1.0  0.6046099999999999  0.50598  0.81185  1.0000
  C   C63       1.0  0.7191000000000001  0.47166  0.84933  1.0000
  C   C64       1.0  0.70986  0.40695  0.92061  1.0000
  C   C65       1.0  0.5878999999999996  0.37544  0.95452  1.0000
  C   C66       1.0  0.4740399999999999  0.41093  0.91582  1.0000
  C   C67       1.0  0.71041  0.23936999999999997  0.04677  1.0000
  C   C68       1.0  0.58278  0.30483  0.02854  1.0000
  C   C69       1.0  0.45269  0.29889  0.08403  1.0000
  C   C70       1.0  0.60434  0.97237  0.11573000000000003  1.0000
  C   C71       1.0  0.6614499999999998  0.91194  0.05227  1.0000
  C   C72       1.0  0.78396  0.83009  0.054110000000000005  1.0000
  C   C73       1.0  0.8406500000000002  0.81191  0.12289000000000003  1.0000
  C   C74       1.0  0.7784299999999998  0.87632  0.18365  1.0000
  C   C75       1.0  0.8527500000000001  0.76693  0.98583  1.0000
  C   C76       1.0  0.8446999999999998  0.80378  0.9048300000000002  1.0000
  C   C77       1.0  0.91562  0.74286  0.84171  1.0000
  C   C78       1.0  0.0016600000000000722  0.6126499999999998  0.93296  1.0000
  C   C79       1.0  0.9318000000000001  0.6681200000000002  0.99955  1.0000
  C   C80       1.0  0.83353  0.005389999999999987  0.3122100000000001  1.0000
  C   C81       1.0  0.16168000000000013  0.7306699999999998  0.65269  1.0000
  C   C82       1.0  0.005250000000000047  0.67372  0.61656  1.0000
  C   C83       1.0  0.32174  0.014950000000000001  0.3022  1.0000
  C   C84       1.0  0.1976499999999999  0.97589  0.34451  1.0000
  C   C85       1.0  0.07798  0.005780000000000001  0.31177  1.0000
  C   C86       1.0  0.96034  0.97145  0.34922  1.0000
  C   C87       1.0  0.9628000000000001  0.9069  0.42055  1.0000
  C   C88       1.0  0.08226999999999993  0.87535  0.45455  1.0000
  C   C89       1.0  0.19938000000000003  0.91075  0.41591  1.0000
  C   C90       1.0  0.0032999999999999675  0.73948  0.5467  1.0000
  C   C91       1.0  0.08378999999999993  0.80481  0.52854  1.0000
  C   C92       1.0  0.16428000000000006  0.79881  0.58408  1.0000
  N   N1        1.0  0.33673  0.04386  0.82011  1.0000
  N   N2        1.0  0.91613  0.33158999999999994  0.33086  1.0000
  N   N3        1.0  0.00510000000000002  0.35095  0.14495  1.0000
  N   N4        1.0  0.7995600000000002  0.54384  0.32017  1.0000
  N   N5        1.0  0.42155000000000004  0.83166  0.83086  1.0000
  N   N6        1.0  0.49921000000000004  0.85096  0.64502  1.0000
  N   N7        1.0  0.20044000000000012  0.45616  0.67983  1.0000
  N   N8        1.0  0.57845  0.16834  0.16913  1.0000
  N   N9        1.0  0.5008  0.14904999999999993  0.35497  1.0000
  N   N10       1.0  0.6632800000000001  0.9561399999999998  0.17988  1.0000
  N   N11       1.0  0.08387000000000003  0.66842  0.66913  1.0000
  N   N12       1.0  0.9948999999999996  0.6490599999999997  0.8550400000000002  1.0000
  O   O1        1.0  0.56798  0.01826  0.66714  1.0000
  O   O2        1.0  0.6887699999999999  0.92284  0.75947  1.0000
  O   O3        1.0  0.26466  0.03703  0.659  1.0000
  O   O4        1.0  0.1704700000000001  0.9268399999999999  0.7456  1.0000
  O   O5        1.0  0.7464299999999998  0.51814  0.16716  1.0000
  O   O6        1.0  0.6284299999999999  0.4234  0.26023  1.0000
  O   O7        1.0  0.03918000000000001  0.53747  0.15886  1.0000
  O   O8        1.0  0.15619999999999998  0.42641  0.24521  1.0000
  O   O9        1.0  0.25356999999999996  0.48186  0.83284  1.0000
  O   O10       1.0  0.37158  0.5766099999999997  0.7397600000000002  1.0000
  O   O11       1.0  0.96083  0.46254  0.84113  1.0000
  O   O12       1.0  0.8438000000000002  0.57359  0.75478  1.0000
  O   O13       1.0  0.43203000000000014  0.9817399999999997  0.3328600000000001  1.0000
  O   O14       1.0  0.31123  0.07716  0.24052  1.0000
  O   O15       1.0  0.73534  0.96297  0.34099  1.0000
  O   O16       1.0  0.8295300000000002  0.07317  0.2544  1.0000
