data_image0
_chemical_formula_structural       U4H84C72O24
_chemical_formula_sum              "U4 H84 C72 O24"
_cell_length_a       11.87598
_cell_length_b       14.545370000000002
_cell_length_c       14.8288
_cell_angle_alpha    111.75433
_cell_angle_beta     105.75301
_cell_angle_gamma    105.31083999999998

_symmetry_space_group_name_H-M    'P 1'
_symmetry_Int_Tables_number       1

loop_
  _symmetry_equiv_pos_as_xyz
  'x,y,z'

loop_
  _atom_site_type_symbol
  _atom_site_label
  _atom_site_symmetry_multiplicity
  _atom_site_fract_x
  _atom_site_fract_y
  _atom_site_fract_z
  _atom_site_occupancy
  U   U1        1.0  0.44033  0.03230000000000005  0.44927000000000006  1.0000
  U   U2        1.0  0.6220700000000002  0.79791  0.85245  1.0000
  U   U3        1.0  0.6971900000000002  0.45467  0.20751  1.0000
  U   U4        1.0  0.18660000000000002  0.67875  0.83435  1.0000
  H   H1        1.0  0.59425  0.04525  0.17954  1.0000
  H   H2        1.0  0.6450899999999999  0.9534599999999999  0.21634  1.0000
  H   H3        1.0  0.74169  0.17991  0.15205  1.0000
  H   H4        1.0  0.89603  0.1847  0.16532  1.0000
  H   H5        1.0  0.9093400000000003  0.33327  0.32515  1.0000
  H   H6        1.0  0.6942800000000001  0.24764000000000003  0.31804  1.0000
  H   H7        1.0  0.81448  0.29264  0.44563  1.0000
  H   H8        1.0  0.81244  0.020730000000000023  0.39483000000000007  1.0000
  H   H9        1.0  0.8820200000000001  0.15966  0.49354  1.0000
  H   H10       1.0  0.03238000000000003  0.11314000000000005  0.41168  1.0000
  H   H11       1.0  0.8581000000000001  0.95746  0.24138  1.0000
  H   H12       1.0  0.9678100000000001  0.04439999999999998  0.21673  1.0000
  H   H13       1.0  0.07021  0.25362  0.35099  1.0000
  H   H14       1.0  0.03582000000000004  0.29932  0.46518000000000004  1.0000
  H   H15       1.0  0.37630999999999987  0.7928799999999999  0.60545  1.0000
  H   H16       1.0  0.21934000000000012  0.7840000000000001  0.54235  1.0000
  H   H17       1.0  0.027810000000000026  0.60574  0.44676  1.0000
  H   H18       1.0  0.04881999999999998  0.4873  0.44043  1.0000
  H   H19       1.0  0.013729999999999992  0.49428999999999995  0.26821  1.0000
  H   H20       1.0  0.10468  0.69343  0.3428  1.0000
  H   H21       1.0  0.17858  0.63562  0.2611  1.0000
  H   H22       1.0  0.48163  0.70584  0.4889  1.0000
  H   H23       1.0  0.40595  0.6474  0.3482  1.0000
  H   H24       1.0  0.38917  0.5059  0.40741  1.0000
  H   H25       1.0  0.40692  0.61847  0.58785  1.0000
  H   H26       1.0  0.26779  0.49398  0.521  1.0000
  H   H27       1.0  0.15076000000000006  0.40218  0.32037000000000004  1.0000
  H   H28       1.0  0.20297000000000007  0.4609500000000001  0.24555000000000002  1.0000
  H   H29       1.0  0.40089  0.39583  0.61628  1.0000
  H   H30       1.0  0.54209  0.39831  0.69991  1.0000
  H   H31       1.0  0.59634  0.45605  0.89084  1.0000
  H   H32       1.0  0.49934  0.50182  0.95375  1.0000
  H   H33       1.0  0.46634  0.31444  0.92126  1.0000
  H   H34       1.0  0.37283  0.16236  0.73411  1.0000
  H   H35       1.0  0.5254500000000002  0.25856  0.76578  1.0000
  H   H36       1.0  0.18453000000000003  0.26008  0.57054  1.0000
  H   H37       1.0  0.17234  0.15908  0.61294  1.0000
  H   H38       1.0  0.11805000000000004  0.3064799999999999  0.72162  1.0000
  H   H39       1.0  0.24629999999999996  0.45327  0.69943  1.0000
  H   H40       1.0  0.28876  0.49312  0.83792  1.0000
  H   H41       1.0  0.22894999999999993  0.21991999999999995  0.815  1.0000
  H   H42       1.0  0.27397  0.35836  0.90388  1.0000
  H   H43       1.0  0.81178  0.69547  0.57891  1.0000
  H   H44       1.0  0.6644  0.69513  0.50987  1.0000
  H   H45       1.0  0.78248  0.84125  0.37072  1.0000
  H   H46       1.0  0.6460500000000001  0.7812800000000001  0.39016  1.0000
  H   H47       1.0  0.73464  0.98018  0.49557  1.0000
  H   H48       1.0  0.7549200000000001  0.99147  0.6732  1.0000
  H   H49       1.0  0.62968  0.86837  0.56323  1.0000
  H   H50       1.0  0.9939700000000001  0.8746700000000001  0.7315200000000001  1.0000
  H   H51       1.0  0.9658300000000002  0.99514  0.76758  1.0000
  H   H52       1.0  0.09767  0.98586  0.66024  1.0000
  H   H53       1.0  0.011729999999999971  0.78558  0.55522  1.0000
  H   H54       1.0  0.9987900000000001  0.84367  0.46830000000000005  1.0000
  H   H55       1.0  0.9636100000000001  0.019690000000000003  0.52455  1.0000
  H   H56       1.0  0.9524700000000001  0.08138000000000004  0.6479300000000001  1.0000
  H   H57       1.0  0.36832  0.08559  0.00333  1.0000
  H   H58       1.0  0.42146  0.07072  0.1199  1.0000
  H   H59       1.0  0.019670000000000007  0.97648  0.93115  1.0000
  H   H60       1.0  0.14753  0.036099999999999965  0.90278  1.0000
  H   H61       1.0  0.06016  0.16688999999999998  0.9879  1.0000
  H   H62       1.0  0.27771  0.31536  0.12387  1.0000
  H   H63       1.0  0.28631  0.22885  0.00566  1.0000
  H   H64       1.0  0.40482  0.19444  0.29011  1.0000
  H   H65       1.0  0.3438600000000001  0.29346  0.28717  1.0000
  H   H66       1.0  0.1784  0.13197  0.26956  1.0000
  H   H67       1.0  0.09135  0.95231  0.10875  1.0000
  H   H68       1.0  0.25778  0.99554  0.18234  1.0000
  H   H69       1.0  0.10898999999999999  0.23610999999999993  0.18137  1.0000
  H   H70       1.0  0.0030600000000000054  0.09648  0.10362  1.0000
  H   H71       1.0  0.95314  0.53947  0.01199  1.0000
  H   H72       1.0  0.80058  0.47175  0.90153  1.0000
  H   H73       1.0  0.9455  0.30828999999999995  0.06717  1.0000
  H   H74       1.0  0.035859999999999996  0.44675  0.10793  1.0000
  H   H75       1.0  0.12432000000000001  0.32823  0.00592  1.0000
  H   H76       1.0  0.12473000000000006  0.40087  0.87763  1.0000
  H   H77       1.0  0.13524000000000003  0.4988300000000001  0.9997  1.0000
  H   H78       1.0  0.7734900000000001  0.31966  0.72114  1.0000
  H   H79       1.0  0.90991  0.29267  0.71532  1.0000
  H   H80       1.0  0.75896  0.15217000000000006  0.73551  1.0000
  H   H81       1.0  0.67079  0.26937  0.8384100000000001  1.0000
  H   H82       1.0  0.73183  0.20417  0.90729  1.0000
  H   H83       1.0  0.9185000000000001  0.15943  0.88808  1.0000
  H   H84       1.0  0.9944900000000001  0.1980300000000001  0.81214  1.0000
  C   C1        1.0  0.73163  0.11911  0.34459  1.0000
  C   C2        1.0  0.67638  0.035299999999999984  0.22496000000000002  1.0000
  C   C3        1.0  0.78023  0.053119999999999994  0.18256  1.0000
  C   C4        1.0  0.8234700000000003  0.16917  0.19675  1.0000
  C   C5        1.0  0.87869  0.25129  0.3165  1.0000
  C   C6        1.0  0.7754700000000002  0.23474  0.36022  1.0000
  C   C7        1.0  0.8461700000000001  0.10413  0.40774  1.0000
  C   C8        1.0  0.95099  0.12396999999999998  0.36686  1.0000
  C   C9        1.0  0.8945300000000002  0.038919999999999996  0.24891  1.0000
  C   C10       1.0  0.9946900000000001  0.23901  0.38008  1.0000
  C   C11       1.0  0.6260700000000001  0.08973000000000003  0.37844  1.0000
  C   C12       1.0  0.7318900000000002  0.96387  0.06916  1.0000
  C   C13       1.0  0.30057  0.71955  0.43168  1.0000
  C   C14       1.0  0.2831800000000001  0.74138  0.53661  1.0000
  C   C15       1.0  0.22477999999999995  0.63344  0.53589  1.0000
  C   C16       1.0  0.09248000000000009  0.5639100000000001  0.4405200000000001  1.0000
  C   C17       1.0  0.10846000000000003  0.54213  0.33551  1.0000
  C   C18       1.0  0.16741  0.64997  0.33599  1.0000
  C   C19       1.0  0.3882000000000001  0.65859  0.41987  1.0000
  C   C20       1.0  0.3262800000000001  0.5490500000000003  0.41575  1.0000
  C   C21       1.0  0.31169  0.5706  0.52079  1.0000
  C   C22       1.0  0.19410000000000005  0.47999  0.3219  1.0000
  C   C23       1.0  0.35349  0.82711  0.43517  1.0000
  C   C24       1.0  0.22062000000000004  0.65052  0.64282  1.0000
  C   C25       1.0  0.36533  0.26554999999999995  0.65763  1.0000
  C   C26       1.0  0.44153  0.38344  0.68486  1.0000
  C   C27       1.0  0.43212  0.46139  0.78434  1.0000
  C   C28       1.0  0.49671  0.44341  0.87927  1.0000
  C   C29       1.0  0.4213199999999999  0.32615  0.85328  1.0000
  C   C30       1.0  0.4258900000000001  0.24628000000000005  0.75269  1.0000
  C   C31       1.0  0.2252  0.24454  0.6368  1.0000
  C   C32       1.0  0.21872000000000005  0.32081999999999994  0.73753  1.0000
  C   C33       1.0  0.29115  0.43785999999999997  0.76465  1.0000
  C   C34       1.0  0.28027  0.3037  0.83231  1.0000
  C   C35       1.0  0.3737600000000002  0.18822  0.56099  1.0000
  C   C36       1.0  0.4997500000000002  0.5797  0.8109500000000001  1.0000
  C   C37       1.0  0.79926  0.8507  0.64521  1.0000
  C   C38       1.0  0.7681400000000002  0.74311  0.55075  1.0000
  C   C39       1.0  0.81762  0.76436  0.47139  1.0000
  C   C40       1.0  0.75057  0.8281599999999999  0.42986  1.0000
  C   C41       1.0  0.7833300000000001  0.93657  0.52556  1.0000
  C   C42       1.0  0.73395  0.9152099999999999  0.60441  1.0000
  C   C43       1.0  0.9452600000000001  0.91807  0.70045  1.0000
  C   C44       1.0  0.99355  0.9388300000000002  0.62049  1.0000
  C   C45       1.0  0.9639200000000002  0.83083  0.52611  1.0000
  C   C46       1.0  0.9286  0.0028000000000000165  0.58057  1.0000
  C   C47       1.0  0.7462  0.83215  0.7218  1.0000
  C   C48       1.0  0.78488  0.65763  0.37898  1.0000
  C   C49       1.0  0.36153  0.20313  0.14171  1.0000
  C   C50       1.0  0.3496  0.08877  0.07279  1.0000
  C   C51       1.0  0.21215000000000006  0.005019999999999999  0.03416  1.0000
  C   C52       1.0  0.11940000000000006  0.03607000000000007  0.9675400000000001  1.0000
  C   C53       1.0  0.13019  0.14947999999999997  0.03661  1.0000
  C   C54       1.0  0.26559  0.23225  0.07458  1.0000
  C   C55       1.0  0.33426  0.21083  0.23974  1.0000
  C   C56       1.0  0.19801  0.12777  0.20009  1.0000
  C   C57       1.0  0.18681  0.012910000000000003  0.13313  1.0000
  C   C58       1.0  0.10177000000000001  0.15448  0.13265  1.0000
  C   C59       1.0  0.4916500000000002  0.28688  0.17692000000000002  1.0000
  C   C60       1.0  0.19969000000000003  0.89136  0.96293  1.0000
  C   C61       1.0  0.95065  0.42850999999999995  0.86504  1.0000
  C   C62       1.0  0.8862  0.46198  0.94093  1.0000
  C   C63       1.0  0.8492200000000001  0.37536  0.97689  1.0000
  C   C64       1.0  0.9715300000000001  0.36718  0.03827  1.0000
  C   C65       1.0  0.036719999999999975  0.3333599999999999  0.9628  1.0000
  C   C66       1.0  0.07277000000000004  0.4203100000000001  0.9277100000000001  1.0000
  C   C67       1.0  0.8605300000000001  0.31589  0.76736  1.0000
  C   C68       1.0  0.82485  0.23153  0.80526  1.0000
  C   C69       1.0  0.7586900000000001  0.2642500000000001  0.8802200000000001  1.0000
  C   C70       1.0  0.9459400000000001  0.22270999999999994  0.86465  1.0000
  C   C71       1.0  0.9929300000000001  0.51289  0.82885  1.0000
  C   C72       1.0  0.7881100000000001  0.41147  0.05238  1.0000
  O   O1        1.0  0.57519  0.15469  0.41377  1.0000
  O   O2        1.0  0.58152  0.99451  0.36995  1.0000
  O   O3        1.0  0.6672800000000001  0.86434  0.043699999999999996  1.0000
  O   O4        1.0  0.75881  0.98474  0.99903  1.0000
  O   O5        1.0  0.45436  0.85758  0.41912  1.0000
  O   O6        1.0  0.2960400000000001  0.8921  0.45607  1.0000
  O   O7        1.0  0.1321300000000001  0.5783900000000002  0.6444000000000001  1.0000
  O   O8        1.0  0.3078000000000001  0.73344  0.7322100000000001  1.0000
  O   O9        1.0  0.2819  0.09534999999999999  0.49134  1.0000
  O   O10       1.0  0.48228  0.21387  0.55229  1.0000
  O   O11       1.0  0.60604  0.61128  0.80141  1.0000
  O   O12       1.0  0.44688  0.64821  0.84162  1.0000
  O   O13       1.0  0.76931  0.9130999999999999  0.80942  1.0000
  O   O14       1.0  0.67192  0.7365000000000002  0.6977800000000001  1.0000
  O   O15       1.0  0.83643  0.64851  0.31257  1.0000
  O   O16       1.0  0.7011600000000002  0.57099  0.366  1.0000
  O   O17       1.0  0.52407  0.38472  0.24674000000000001  1.0000
  O   O18       1.0  0.56842  0.26444  0.13482  1.0000
  O   O19       1.0  0.19991999999999996  0.86646  0.86937  1.0000
  O   O20       1.0  0.19024  0.82076  0.996  1.0000
  O   O21       1.0  0.9855500000000001  0.6042  0.86576  1.0000
  O   O22       1.0  0.050870000000000005  0.49271  0.76558  1.0000
  O   O23       1.0  0.68193  0.34440999999999994  0.03988  1.0000
  O   O24       1.0  0.84069  0.50768  0.13074  1.0000
