data_image0
_chemical_formula_structural       Cu8H56W4C56S16N16
_chemical_formula_sum              "Cu8 H56 W4 C56 S16 N16"
_cell_length_a       11.0945
_cell_length_b       13.6493
_cell_length_c       17.985720000000004
_cell_angle_alpha    72.85246
_cell_angle_beta     72.08689
_cell_angle_gamma    65.75456

_symmetry_space_group_name_H-M    'P 1'
_symmetry_Int_Tables_number       1

loop_
  _symmetry_equiv_pos_as_xyz
  'x,y,z'

loop_
  _atom_site_type_symbol
  _atom_site_label
  _atom_site_symmetry_multiplicity
  _atom_site_fract_x
  _atom_site_fract_y
  _atom_site_fract_z
  _atom_site_occupancy
  Cu  Cu1       1.0  0.4061899999999999  0.7372700000000001  0.60683  1.0000
  Cu  Cu2       1.0  0.6010400000000001  0.7431999999999999  0.74024  1.0000
  Cu  Cu3       1.0  0.751  0.76302  0.89269  1.0000
  Cu  Cu4       1.0  0.08447999999999994  0.75712  0.75909  1.0000
  Cu  Cu5       1.0  0.5938100000000002  0.26273  0.39317  1.0000
  Cu  Cu6       1.0  0.39895999999999987  0.25680000000000003  0.25976  1.0000
  Cu  Cu7       1.0  0.24900000000000005  0.23697999999999994  0.10731  1.0000
  Cu  Cu8       1.0  0.9155200000000001  0.24288  0.24091  1.0000
  H   H1        1.0  0.96116  0.7697199999999997  0.97766  1.0000
  H   H2        1.0  0.7528700000000003  0.5493999999999999  0.03828  1.0000
  H   H3        1.0  0.9133  0.49064999999999986  0.14772  1.0000
  H   H4        1.0  0.11914999999999998  0.55223  0.1357  1.0000
  H   H5        1.0  0.12036000000000004  0.6782199999999999  0.07067  1.0000
  H   H6        1.0  0.013149999999999983  0.54642  0.27401  1.0000
  H   H7        1.0  0.9379500000000002  0.8577299999999998  0.11198  1.0000
  H   H8        1.0  0.48504000000000014  0.76696  0.03457  1.0000
  H   H9        1.0  0.56073  0.016669999999999983  0.8446  1.0000
  H   H10       1.0  0.3008  0.10104000000000003  0.93593  1.0000
  H   H11       1.0  0.25513000000000025  0.8605799999999998  0.10524  1.0000
  H   H12       1.0  0.21887000000000004  0.0011099999999999986  0.10051  1.0000
  H   H13       1.0  0.2183900000000001  0.8642099999999999  0.94529  1.0000
  H   H14       1.0  0.9829  0.08625  0.1086  1.0000
  H   H15       1.0  0.7084400000000001  0.72884  0.52146  1.0000
  H   H16       1.0  0.33875000000000005  0.95181  0.46098  1.0000
  H   H17       1.0  0.5495899999999999  0.010390000000000002  0.35251  1.0000
  H   H18       1.0  0.80529  0.94751  0.36464  1.0000
  H   H19       1.0  0.8685800000000006  0.8215099999999999  0.4297  1.0000
  H   H20       1.0  0.8340600000000001  0.9534899999999997  0.22624  1.0000
  H   H21       1.0  0.9063000000000001  0.6422  0.38824000000000003  1.0000
  H   H22       1.0  0.28515000000000007  0.7335599999999999  0.46537  1.0000
  H   H23       1.0  0.4237100000000002  0.4838299999999999  0.65535  1.0000
  H   H24       1.0  0.33876000000000006  0.39978999999999976  0.56461  1.0000
  H   H25       1.0  0.21878000000000009  0.6399199999999998  0.39514  1.0000
  H   H26       1.0  0.3209  0.4996499999999999  0.39984  1.0000
  H   H27       1.0  0.02654000000000003  0.63549  0.55495  1.0000
  H   H28       1.0  0.17810000000000006  0.4141799999999999  0.39109  1.0000
  H   H29       1.0  0.038840000000000006  0.23028  0.02234  1.0000
  H   H30       1.0  0.24713000000000004  0.45060000000000006  0.96172  1.0000
  H   H31       1.0  0.08669999999999999  0.50935  0.85228  1.0000
  H   H32       1.0  0.8808499999999999  0.4477699999999999  0.8643  1.0000
  H   H33       1.0  0.8796400000000002  0.3217699999999999  0.92933  1.0000
  H   H34       1.0  0.9868500000000001  0.4535699999999998  0.72599  1.0000
  H   H35       1.0  0.062050000000000015  0.14226999999999998  0.88802  1.0000
  H   H36       1.0  0.51496  0.23303999999999997  0.96543  1.0000
  H   H37       1.0  0.4392700000000002  0.9833299999999999  0.1554  1.0000
  H   H38       1.0  0.6991900000000001  0.8989599999999999  0.06407  1.0000
  H   H39       1.0  0.74487  0.13941999999999996  0.89476  1.0000
  H   H40       1.0  0.7811299999999999  0.9988899999999998  0.89949  1.0000
  H   H41       1.0  0.78161  0.13578999999999997  0.05471  1.0000
  H   H42       1.0  0.017099999999999928  0.9137499999999998  0.8914  1.0000
  H   H43       1.0  0.29156000000000004  0.27116  0.47853999999999997  1.0000
  H   H44       1.0  0.66125  0.04819  0.53902  1.0000
  H   H45       1.0  0.4504099999999999  0.98961  0.64749  1.0000
  H   H46       1.0  0.19471  0.05249  0.63536  1.0000
  H   H47       1.0  0.13142000000000004  0.17848999999999995  0.5703  1.0000
  H   H48       1.0  0.16594000000000003  0.04651  0.77376  1.0000
  H   H49       1.0  0.09370000000000007  0.35779999999999984  0.61176  1.0000
  H   H50       1.0  0.7148500000000001  0.26644  0.53463  1.0000
  H   H51       1.0  0.5762799999999999  0.51617  0.34466  1.0000
  H   H52       1.0  0.6612400000000002  0.6002099999999999  0.4354  1.0000
  H   H53       1.0  0.7812200000000002  0.3600799999999999  0.60486  1.0000
  H   H54       1.0  0.6790999999999999  0.50035  0.60016  1.0000
  H   H55       1.0  0.9734600000000002  0.36450999999999995  0.44505  1.0000
  H   H56       1.0  0.8219  0.5858199999999999  0.60892  1.0000
  W   W1        1.0  0.8534199999999998  0.74195  0.73901  1.0000
  W   W2        1.0  0.33479  0.75788  0.7604  1.0000
  W   W3        1.0  0.14658000000000002  0.25804999999999995  0.26099  1.0000
  W   W4        1.0  0.6652100000000001  0.24211999999999995  0.23960000000000004  1.0000
  C   C1        1.0  0.9220500000000003  0.7045099999999997  0.00898  1.0000
  C   C2        1.0  0.81774  0.58808  0.04244  1.0000
  C   C3        1.0  0.8966100000000002  0.5576099999999999  0.09703  1.0000
  C   C4        1.0  0.055120000000000086  0.6368799999999999  0.11576  1.0000
  C   C5        1.0  0.98436  0.69546  0.18524  1.0000
  C   C6        1.0  0.9734800000000001  0.6355899999999999  0.26355  1.0000
  C   C7        1.0  0.9314400000000002  0.81015  0.17244  1.0000
  C   C8        1.0  0.47284000000000004  0.8454799999999998  0.99452  1.0000
  C   C9        1.0  0.5067100000000002  0.9780199999999998  0.89812  1.0000
  C   C10       1.0  0.37839000000000006  0.020550000000000002  0.9421  1.0000
  C   C11       1.0  0.23593000000000003  0.9412399999999997  0.06535000000000002  1.0000
  C   C12       1.0  0.11414000000000006  0.9716499999999999  0.031029999999999995  1.0000
  C   C13       1.0  0.1227900000000001  0.9229199999999997  0.97014  1.0000
  C   C14       1.0  0.9908399999999998  0.04872  0.06065000000000001  1.0000
  C   C15       1.0  0.6349300000000001  0.79496  0.4904299999999999  1.0000
  C   C16       1.0  0.44677  0.9125699999999999  0.45704  1.0000
  C   C17       1.0  0.5496300000000002  0.9430799999999998  0.40294  1.0000
  C   C18       1.0  0.8067699999999999  0.86292  0.38448  1.0000
  C   C19       1.0  0.8646500000000001  0.8044199999999999  0.31498  1.0000
  C   C20       1.0  0.87287  0.8643199999999999  0.23667  1.0000
  C   C21       1.0  0.91319  0.68977  0.32778  1.0000
  C   C22       1.0  0.31187  0.6551  0.50553  1.0000
  C   C23       1.0  0.38375000000000004  0.5225699999999999  0.60187  1.0000
  C   C24       1.0  0.34138  0.4802699999999999  0.55829  1.0000
  C   C25       1.0  0.24172000000000016  0.5592299999999999  0.435  1.0000
  C   C26       1.0  0.11665000000000007  0.5283299999999999  0.46909  1.0000
  C   C27       1.0  0.015159999999999932  0.57678  0.53005  1.0000
  C   C28       1.0  0.10062000000000006  0.4514999999999999  0.43924  1.0000
  C   C29       1.0  0.07795000000000002  0.29549  0.99102  1.0000
  C   C30       1.0  0.18226000000000003  0.41191999999999995  0.9575600000000001  1.0000
  C   C31       1.0  0.1033900000000001  0.44238999999999995  0.90298  1.0000
  C   C32       1.0  0.9448799999999998  0.36311999999999994  0.8842400000000002  1.0000
  C   C33       1.0  0.015640000000000057  0.30454  0.81477  1.0000
  C   C34       1.0  0.02651999999999997  0.36441  0.73645  1.0000
  C   C35       1.0  0.06856  0.18985  0.82756  1.0000
  C   C36       1.0  0.52716  0.15451999999999996  0.00548  1.0000
  C   C37       1.0  0.49329000000000006  0.021979999999999986  0.10189  1.0000
  C   C38       1.0  0.62161  0.9794499999999998  0.0579  1.0000
  C   C39       1.0  0.7640699999999999  0.05875999999999999  0.93466  1.0000
  C   C40       1.0  0.88586  0.028350000000000007  0.96897  1.0000
  C   C41       1.0  0.8772099999999999  0.07707999999999997  0.029869999999999997  1.0000
  C   C42       1.0  0.009160000000000168  0.9512799999999998  0.93935  1.0000
  C   C43       1.0  0.3650699999999999  0.20502999999999993  0.50957  1.0000
  C   C44       1.0  0.55323  0.08742999999999998  0.54296  1.0000
  C   C45       1.0  0.45037000000000005  0.056920000000000005  0.59707  1.0000
  C   C46       1.0  0.19323000000000004  0.13708  0.61552  1.0000
  C   C47       1.0  0.13535000000000003  0.19557999999999995  0.68502  1.0000
  C   C48       1.0  0.12713  0.13567999999999994  0.76333  1.0000
  C   C49       1.0  0.08681000000000003  0.31023  0.67223  1.0000
  C   C50       1.0  0.6881300000000001  0.3448999999999999  0.49446999999999997  1.0000
  C   C51       1.0  0.6162499999999999  0.47743  0.39813  1.0000
  C   C52       1.0  0.6586199999999999  0.51973  0.44172  1.0000
  C   C53       1.0  0.75828  0.44077  0.565  1.0000
  C   C54       1.0  0.88335  0.4716699999999997  0.53091  1.0000
  C   C55       1.0  0.98484  0.42321999999999993  0.46996  1.0000
  C   C56       1.0  0.8993800000000002  0.5484999999999998  0.56076  1.0000
  S   S1        1.0  0.39652999999999994  0.8656399999999999  0.79936  1.0000
  S   S2        1.0  0.7372900000000001  0.6428  0.83267  1.0000
  S   S3        1.0  0.5250599999999997  0.6322  0.70482  1.0000
  S   S4        1.0  0.2087700000000001  0.6776799999999997  0.85941  1.0000
  S   S5        1.0  0.06253000000000006  0.63343  0.70042  1.0000
  S   S6        1.0  0.21230000000000002  0.8582299999999998  0.6667  1.0000
  S   S7        1.0  0.86182  0.86748  0.79447  1.0000
  S   S8        1.0  0.74642  0.8222399999999997  0.63947  1.0000
  S   S9        1.0  0.6034699999999997  0.13436  0.20064  1.0000
  S   S10       1.0  0.2627100000000001  0.3571999999999999  0.16733  1.0000
  S   S11       1.0  0.4749400000000001  0.3677999999999999  0.29518  1.0000
  S   S12       1.0  0.7912300000000001  0.32232  0.14059  1.0000
  S   S13       1.0  0.9374700000000002  0.3665699999999999  0.29958  1.0000
  S   S14       1.0  0.7877  0.14177  0.3333  1.0000
  S   S15       1.0  0.13818000000000003  0.13251999999999997  0.20553  1.0000
  S   S16       1.0  0.25358  0.17775999999999992  0.36053  1.0000
  N   N1        1.0  0.83435  0.67987  0.98774  1.0000
  N   N2        1.0  0.9622100000000001  0.63228  0.07487  1.0000
  N   N3        1.0  0.5647300000000002  0.8690699999999998  0.93155  1.0000
  N   N4        1.0  0.35848000000000013  0.9353899999999998  0.00326  1.0000
  N   N5        1.0  0.5010400000000003  0.8200199999999997  0.51142  1.0000
  N   N6        1.0  0.6683199999999999  0.86765  0.42505  1.0000
  N   N7        1.0  0.36547000000000013  0.63138  0.56825  1.0000
  N   N8        1.0  0.29611999999999994  0.56537  0.49717000000000006  1.0000
  N   N9        1.0  0.16565000000000007  0.3201299999999999  0.01226  1.0000
  N   N10       1.0  0.03779000000000009  0.36771999999999977  0.92513  1.0000
  N   N11       1.0  0.43527000000000005  0.13093  0.06845  1.0000
  N   N12       1.0  0.6415199999999999  0.06461000000000001  0.99675  1.0000
  N   N13       1.0  0.49896000000000007  0.17998  0.48858  1.0000
  N   N14       1.0  0.33168000000000003  0.13234  0.57495  1.0000
  N   N15       1.0  0.6345300000000001  0.3686199999999999  0.43175  1.0000
  N   N16       1.0  0.70387  0.4346299999999999  0.50283  1.0000
