data_image0
_chemical_formula_structural       Zn12H24C72O48
_chemical_formula_sum              "Zn12 H24 C72 O48"
_cell_length_a       18.95119
_cell_length_b       18.95145
_cell_length_c       18.951449999999998
_cell_angle_alpha    59.97182999999998
_cell_angle_beta     59.977689999999996
_cell_angle_gamma    59.97769000000001

_symmetry_space_group_name_H-M    'P 1'
_symmetry_Int_Tables_number       1

loop_
  _symmetry_equiv_pos_as_xyz
  'x,y,z'

loop_
  _atom_site_type_symbol
  _atom_site_label
  _atom_site_symmetry_multiplicity
  _atom_site_fract_x
  _atom_site_fract_y
  _atom_site_fract_z
  _atom_site_occupancy
  Zn  Zn1       1.0  0.06773999999999994  0.49999000000000005  0.49999  1.0000
  Zn  Zn2       1.0  0.4999999999999999  0.06773999999999997  0.93226  1.0000
  Zn  Zn3       1.0  0.93226  0.50001  0.50001  1.0000
  Zn  Zn4       1.0  0.5  0.93226  0.06774  1.0000
  Zn  Zn5       1.0  0.93226  0.06774  0.5  1.0000
  Zn  Zn6       1.0  0.50001  0.50001  0.93226  1.0000
  Zn  Zn7       1.0  0.06774  0.93226  0.5  1.0000
  Zn  Zn8       1.0  0.4999999999999999  0.49999000000000005  0.06774  1.0000
  Zn  Zn9       1.0  0.5000099999999998  0.9322600000000001  0.50001  1.0000
  Zn  Zn10      1.0  0.06775  0.5  0.93226  1.0000
  Zn  Zn11      1.0  0.5  0.06774  0.49999  1.0000
  Zn  Zn12      1.0  0.93226  0.5  0.06774  1.0000
  H   H1        1.0  0.23324999999999993  0.52745  0.23325000000000007  1.0000
  H   H2        1.0  0.52744  0.23329  0.0060100000000000015  1.0000
  H   H3        1.0  0.006019999999999984  0.23328  0.52745  1.0000
  H   H4        1.0  0.23328  0.005990000000000006  0.23328  1.0000
  H   H5        1.0  0.006009999999999963  0.23327000000000003  0.23327  1.0000
  H   H6        1.0  0.23328000000000004  0.52744  0.00602  1.0000
  H   H7        1.0  0.23328  0.006019999999999982  0.52745  1.0000
  H   H8        1.0  0.5274499999999999  0.23324  0.23324000000000006  1.0000
  H   H9        1.0  0.52744  0.006009999999999986  0.23329000000000005  1.0000
  H   H10       1.0  0.23328  0.23328  0.006  1.0000
  H   H11       1.0  0.23325000000000007  0.23324  0.52745  1.0000
  H   H12       1.0  0.006019999999999984  0.52744  0.23328  1.0000
  H   H13       1.0  0.7667199999999998  0.47255  0.99398  1.0000
  H   H14       1.0  0.4725600000000001  0.7667499999999999  0.7667600000000002  1.0000
  H   H15       1.0  0.9940000000000001  0.7667199999999998  0.76673  1.0000
  H   H16       1.0  0.76672  0.99398  0.4725600000000001  1.0000
  H   H17       1.0  0.99398  0.7667199999999997  0.4725600000000001  1.0000
  H   H18       1.0  0.76676  0.47254999999999997  0.7667600000000002  1.0000
  H   H19       1.0  0.76673  0.994  0.76672  1.0000
  H   H20       1.0  0.47256000000000004  0.7667099999999999  0.9939900000000003  1.0000
  H   H21       1.0  0.4725599999999999  0.9939899999999998  0.7667100000000002  1.0000
  H   H22       1.0  0.7667600000000002  0.7667499999999997  0.4725600000000001  1.0000
  H   H23       1.0  0.7667299999999999  0.7667099999999997  0.9940100000000002  1.0000
  H   H24       1.0  0.99398  0.47254999999999997  0.76672  1.0000
  C   C1        1.0  0.07054000000000002  0.5236999999999999  0.3352100000000001  1.0000
  C   C2        1.0  0.11444000000000006  0.52851  0.24258  1.0000
  C   C3        1.0  0.52369  0.07054999999999999  0.07055  1.0000
  C   C4        1.0  0.52851  0.11444999999999998  0.11445000000000002  1.0000
  C   C5        1.0  0.07053999999999998  0.33520999999999995  0.5237000000000003  1.0000
  C   C6        1.0  0.11443999999999996  0.24257999999999996  0.52851  1.0000
  C   C7        1.0  0.33523  0.07054  0.07054  1.0000
  C   C8        1.0  0.24259000000000003  0.11444999999999998  0.11445000000000002  1.0000
  C   C9        1.0  0.07053999999999996  0.07052999999999995  0.3352300000000001  1.0000
  C   C10       1.0  0.11445  0.11444  0.24259  1.0000
  C   C11       1.0  0.3352200000000001  0.5237  0.07054  1.0000
  C   C12       1.0  0.24258  0.52851  0.11444  1.0000
  C   C13       1.0  0.07055  0.07054999999999999  0.52369  1.0000
  C   C14       1.0  0.11445000000000002  0.11444999999999998  0.52851  1.0000
  C   C15       1.0  0.5237  0.33522  0.07054  1.0000
  C   C16       1.0  0.52851  0.24257999999999996  0.11443  1.0000
  C   C17       1.0  0.5237  0.07054000000000002  0.33522  1.0000
  C   C18       1.0  0.52851  0.11443  0.24258  1.0000
  C   C19       1.0  0.07053999999999995  0.33523  0.07053000000000002  1.0000
  C   C20       1.0  0.11444999999999993  0.24259  0.11444  1.0000
  C   C21       1.0  0.3352200000000001  0.07053999999999995  0.5237000000000003  1.0000
  C   C22       1.0  0.24257999999999996  0.11443999999999997  0.52851  1.0000
  C   C23       1.0  0.07055  0.52369  0.07055  1.0000
  C   C24       1.0  0.11444999999999993  0.52851  0.11445000000000002  1.0000
  C   C25       1.0  0.9294599999999997  0.47630999999999996  0.92945  1.0000
  C   C26       1.0  0.88555  0.4714899999999999  0.8855500000000002  1.0000
  C   C27       1.0  0.4762999999999999  0.9294700000000001  0.66478  1.0000
  C   C28       1.0  0.47149000000000013  0.88556  0.75742  1.0000
  C   C29       1.0  0.9294699999999999  0.6647699999999999  0.9294600000000002  1.0000
  C   C30       1.0  0.8855500000000002  0.7574099999999999  0.88556  1.0000
  C   C31       1.0  0.6647900000000001  0.9294699999999999  0.4763000000000001  1.0000
  C   C32       1.0  0.7574199999999998  0.88556  0.47149  1.0000
  C   C33       1.0  0.9294499999999999  0.92945  0.47631  1.0000
  C   C34       1.0  0.8855499999999993  0.8855500000000001  0.47149  1.0000
  C   C35       1.0  0.6647899999999998  0.4762999999999999  0.9294700000000002  1.0000
  C   C36       1.0  0.7574200000000002  0.47148999999999996  0.88556  1.0000
  C   C37       1.0  0.9294700000000007  0.92946  0.66477  1.0000
  C   C38       1.0  0.88555  0.8855599999999999  0.75741  1.0000
  C   C39       1.0  0.4763  0.6647799999999999  0.9294700000000002  1.0000
  C   C40       1.0  0.47149  0.7574199999999999  0.88557  1.0000
  C   C41       1.0  0.47631  0.9294499999999999  0.92945  1.0000
  C   C42       1.0  0.47149999999999986  0.8855499999999998  0.8855500000000002  1.0000
  C   C43       1.0  0.9294700000000001  0.66479  0.4763000000000001  1.0000
  C   C44       1.0  0.8855599999999998  0.75742  0.47149  1.0000
  C   C45       1.0  0.6647799999999999  0.9294599999999998  0.9294600000000002  1.0000
  C   C46       1.0  0.7574100000000002  0.8855499999999998  0.88556  1.0000
  C   C47       1.0  0.9294700000000001  0.4763  0.6647900000000002  1.0000
  C   C48       1.0  0.8855599999999998  0.47149  0.75742  1.0000
  C   C49       1.0  0.19977000000000003  0.52861  0.19977  1.0000
  C   C50       1.0  0.52861  0.19979  0.07183  1.0000
  C   C51       1.0  0.07183999999999997  0.19979000000000002  0.52861  1.0000
  C   C52       1.0  0.19977999999999999  0.07182  0.19979  1.0000
  C   C53       1.0  0.07182  0.19978000000000004  0.19978  1.0000
  C   C54       1.0  0.19978999999999997  0.52861  0.07183  1.0000
  C   C55       1.0  0.19979  0.07182999999999999  0.52861  1.0000
  C   C56       1.0  0.52861  0.19977  0.19977  1.0000
  C   C57       1.0  0.52861  0.07183  0.19979  1.0000
  C   C58       1.0  0.19978000000000004  0.19979  0.07182000000000002  1.0000
  C   C59       1.0  0.19977000000000003  0.19977  0.52861  1.0000
  C   C60       1.0  0.07183999999999999  0.52861  0.19979  1.0000
  C   C61       1.0  0.80022  0.4713899999999999  0.92817  1.0000
  C   C62       1.0  0.47139  0.8002299999999999  0.80023  1.0000
  C   C63       1.0  0.9281900000000003  0.8002200000000002  0.80022  1.0000
  C   C64       1.0  0.8002200000000003  0.92817  0.47139  1.0000
  C   C65       1.0  0.9281700000000003  0.80021  0.47139  1.0000
  C   C66       1.0  0.8002299999999999  0.47139  0.80023  1.0000
  C   C67       1.0  0.80022  0.92818  0.8002100000000002  1.0000
  C   C68       1.0  0.4713999999999998  0.8002100000000001  0.92817  1.0000
  C   C69       1.0  0.47139999999999993  0.92817  0.8002100000000002  1.0000
  C   C70       1.0  0.8002299999999999  0.80023  0.47139  1.0000
  C   C71       1.0  0.8002199999999999  0.80021  0.92819  1.0000
  C   C72       1.0  0.9281700000000003  0.4713899999999998  0.8002100000000002  1.0000
  O   O1        1.0  0.11389999999999999  0.52105  0.37148  1.0000
  O   O2        1.0  0.5210399999999998  0.11392999999999999  0.99353  1.0000
  O   O3        1.0  0.99351  0.37150999999999995  0.52106  1.0000
  O   O4        1.0  0.37152  0.9935099999999999  0.11393000000000003  1.0000
  O   O5        1.0  0.9935200000000001  0.11391999999999995  0.37152000000000013  1.0000
  O   O6        1.0  0.3715199999999999  0.5210499999999999  0.9935200000000002  1.0000
  O   O7        1.0  0.11393999999999993  0.99353  0.5210400000000002  1.0000
  O   O8        1.0  0.52104  0.37148  0.1139  1.0000
  O   O9        1.0  0.52106  0.9935099999999999  0.37152000000000013  1.0000
  O   O10       1.0  0.11392999999999984  0.37151999999999996  0.9935100000000002  1.0000
  O   O11       1.0  0.3714899999999998  0.1138999999999999  0.5210400000000002  1.0000
  O   O12       1.0  0.99353  0.52104  0.11393000000000003  1.0000
  O   O13       1.0  0.8860700000000001  0.4789599999999999  0.00647  1.0000
  O   O14       1.0  0.47896000000000005  0.8860999999999998  0.6285200000000002  1.0000
  O   O15       1.0  0.006479999999999976  0.6284799999999998  0.8860800000000002  1.0000
  O   O16       1.0  0.6284899999999999  0.006479999999999963  0.4789400000000001  1.0000
  O   O17       1.0  0.006469999999999956  0.8860699999999999  0.4789600000000001  1.0000
  O   O18       1.0  0.6285200000000001  0.4789599999999998  0.8861  1.0000
  O   O19       1.0  0.8860699999999997  0.0064899999999999194  0.6284800000000003  1.0000
  O   O20       1.0  0.47893999999999987  0.62848  0.00649  1.0000
  O   O21       1.0  0.47895999999999983  0.006469999999999926  0.8860700000000002  1.0000
  O   O22       1.0  0.8861  0.62851  0.47895  1.0000
  O   O23       1.0  0.62849  0.88607  0.00649  1.0000
  O   O24       1.0  0.006489999999999997  0.47894000000000003  0.62849  1.0000
  O   O25       1.0  0.8860999999999998  0.4789499999999999  0.6285200000000002  1.0000
  O   O26       1.0  0.47896000000000005  0.88606  0.00647  1.0000
  O   O27       1.0  0.00648999999999995  0.62849  0.4789400000000001  1.0000
  O   O28       1.0  0.62849  0.006489999999999946  0.8860700000000002  1.0000
  O   O29       1.0  0.006489999999999997  0.8860799999999999  0.62849  1.0000
  O   O30       1.0  0.6284899999999999  0.47894  0.006480000000000001  1.0000
  O   O31       1.0  0.8860700000000001  0.00646999999999998  0.4789600000000001  1.0000
  O   O32       1.0  0.4789600000000001  0.62851  0.8861  1.0000
  O   O33       1.0  0.47894  0.0064899999999999194  0.6284800000000003  1.0000
  O   O34       1.0  0.8860700000000001  0.62848  0.00649  1.0000
  O   O35       1.0  0.62852  0.88609  0.4789600000000001  1.0000
  O   O36       1.0  0.006470000000000003  0.4789599999999998  0.8860700000000002  1.0000
  O   O37       1.0  0.11394000000000003  0.52104  0.99354  1.0000
  O   O38       1.0  0.52104  0.11389999999999999  0.37148  1.0000
  O   O39       1.0  0.9935200000000001  0.37152  0.11392  1.0000
  O   O40       1.0  0.37152000000000013  0.9935099999999997  0.52106  1.0000
  O   O41       1.0  0.99353  0.11392999999999993  0.5210400000000002  1.0000
  O   O42       1.0  0.37149000000000004  0.52104  0.1139  1.0000
  O   O43       1.0  0.1139299999999999  0.9935099999999999  0.37152000000000013  1.0000
  O   O44       1.0  0.5210599999999997  0.37151999999999996  0.9935100000000002  1.0000
  O   O45       1.0  0.5210399999999997  0.99353  0.11394000000000003  1.0000
  O   O46       1.0  0.11390000000000002  0.37148  0.52105  1.0000
  O   O47       1.0  0.37151999999999985  0.11392999999999993  0.9935100000000002  1.0000
  O   O48       1.0  0.99351  0.5210599999999997  0.37152000000000013  1.0000
