data_image0
_chemical_formula_structural       Zn4H64C100N4O24
_chemical_formula_sum              "Zn4 H64 C100 N4 O24"
_cell_length_a       13.48608
_cell_length_b       13.338619999999999
_cell_length_c       16.32223
_cell_angle_alpha    90.0
_cell_angle_beta     90.0
_cell_angle_gamma    116.77740000000001

_symmetry_space_group_name_H-M    'P 1'
_symmetry_Int_Tables_number       1

loop_
  _symmetry_equiv_pos_as_xyz
  'x,y,z'

loop_
  _atom_site_type_symbol
  _atom_site_label
  _atom_site_symmetry_multiplicity
  _atom_site_fract_x
  _atom_site_fract_y
  _atom_site_fract_z
  _atom_site_occupancy
  Zn  Zn1       1.0  0.08916999999999999  0.11099999999999997  0.50155  1.0000
  Zn  Zn2       1.0  0.91082  0.389  0.00155  1.0000
  Zn  Zn3       1.0  0.91082  0.8889899999999998  0.49845000000000006  1.0000
  Zn  Zn4       1.0  0.08916999999999996  0.6109999999999999  0.99845  1.0000
  H   H1        1.0  0.32524  0.16227999999999998  0.50972  1.0000
  H   H2        1.0  0.5106  0.32703  0.51223  1.0000
  H   H3        1.0  0.3436400000000001  0.53574  0.47822  1.0000
  H   H4        1.0  0.16636999999999993  0.3616399999999999  0.47583  1.0000
  H   H5        1.0  0.9360500000000002  0.28241  0.34725  1.0000
  H   H6        1.0  0.8424000000000003  0.33112  0.2319  1.0000
  H   H7        1.0  0.6978  0.17955  0.14911  1.0000
  H   H8        1.0  0.7405300000000002  0.9319899999999999  0.29343  1.0000
  H   H9        1.0  0.49689  0.89015  0.28677  1.0000
  H   H10       1.0  0.39907999999999993  0.6872699999999999  0.33144  1.0000
  H   H11       1.0  0.57114  0.60094  0.14425  1.0000
  H   H12       1.0  0.66701  0.80268  0.09936  1.0000
  H   H13       1.0  0.33372  0.32459  0.3266000000000001  1.0000
  H   H14       1.0  0.14150000000000001  0.18247  0.2928900000000001  1.0000
  H   H15       1.0  0.02772000000000001  0.23097  0.19301  1.0000
  H   H16       1.0  0.29627  0.56306  0.16779  1.0000
  H   H17       1.0  0.67476  0.33771999999999996  0.00972  1.0000
  H   H18       1.0  0.48939  0.17295999999999995  0.01223  1.0000
  H   H19       1.0  0.6563500000000001  0.9642599999999999  0.97822  1.0000
  H   H20       1.0  0.83363  0.13836  0.9758300000000002  1.0000
  H   H21       1.0  0.06393999999999997  0.21758999999999995  0.84725  1.0000
  H   H22       1.0  0.15759  0.16888  0.7319  1.0000
  H   H23       1.0  0.30219  0.32044  0.6491100000000002  1.0000
  H   H24       1.0  0.25946  0.56801  0.79343  1.0000
  H   H25       1.0  0.5031000000000001  0.6098499999999999  0.7867700000000002  1.0000
  H   H26       1.0  0.60091  0.8127299999999997  0.83144  1.0000
  H   H27       1.0  0.4288499999999999  0.8990599999999997  0.6442500000000002  1.0000
  H   H28       1.0  0.33297999999999994  0.6973099999999998  0.59936  1.0000
  H   H29       1.0  0.66627  0.17540999999999998  0.8266  1.0000
  H   H30       1.0  0.85849  0.31753  0.79289  1.0000
  H   H31       1.0  0.9722799999999999  0.26902999999999994  0.69301  1.0000
  H   H32       1.0  0.7037199999999999  0.9369399999999998  0.66779  1.0000
  H   H33       1.0  0.6747499999999998  0.8377199999999998  0.49027999999999994  1.0000
  H   H34       1.0  0.48939  0.67296  0.48777  1.0000
  H   H35       1.0  0.6563500000000001  0.46426  0.52178  1.0000
  H   H36       1.0  0.83363  0.63836  0.52417  1.0000
  H   H37       1.0  0.06393999999999998  0.71759  0.6527500000000003  1.0000
  H   H38       1.0  0.15759  0.66888  0.7681000000000002  1.0000
  H   H39       1.0  0.30219  0.8204499999999999  0.85089  1.0000
  H   H40       1.0  0.25946  0.06801  0.7065700000000003  1.0000
  H   H41       1.0  0.50311  0.10985  0.71323  1.0000
  H   H42       1.0  0.60091  0.31273  0.66857  1.0000
  H   H43       1.0  0.4288500000000001  0.39906  0.85575  1.0000
  H   H44       1.0  0.33298  0.19731999999999997  0.90064  1.0000
  H   H45       1.0  0.66627  0.6754099999999998  0.6734000000000001  1.0000
  H   H46       1.0  0.85849  0.8175199999999998  0.7071200000000002  1.0000
  H   H47       1.0  0.97227  0.7690299999999998  0.8069900000000002  1.0000
  H   H48       1.0  0.7037199999999999  0.4369399999999999  0.8322100000000002  1.0000
  H   H49       1.0  0.32524  0.66228  0.99028  1.0000
  H   H50       1.0  0.5106  0.8270299999999999  0.9877700000000001  1.0000
  H   H51       1.0  0.3436400000000001  0.03574  0.021780000000000008  1.0000
  H   H52       1.0  0.16635999999999995  0.86163  0.02417  1.0000
  H   H53       1.0  0.9360500000000002  0.78241  0.15275  1.0000
  H   H54       1.0  0.8424000000000001  0.8311199999999997  0.2681  1.0000
  H   H55       1.0  0.6977999999999999  0.6795499999999998  0.35089  1.0000
  H   H56       1.0  0.7405300000000002  0.43199  0.20657  1.0000
  H   H57       1.0  0.49689000000000005  0.39015  0.21323  1.0000
  H   H58       1.0  0.3990900000000001  0.18726999999999996  0.16856  1.0000
  H   H59       1.0  0.57115  0.10093999999999997  0.35575  1.0000
  H   H60       1.0  0.66701  0.30268  0.40064  1.0000
  H   H61       1.0  0.33372  0.8245899999999999  0.1734  1.0000
  H   H62       1.0  0.1414999999999999  0.6824699999999998  0.20712  1.0000
  H   H63       1.0  0.027719999999999956  0.7309699999999999  0.30699  1.0000
  H   H64       1.0  0.29628  0.06305999999999999  0.33221  1.0000
  C   C1        1.0  0.33415  0.2471  0.50272  1.0000
  C   C2        1.0  0.43752000000000013  0.34055  0.50456  1.0000
  C   C3        1.0  0.44569  0.4491099999999999  0.49741  1.0000
  C   C4        1.0  0.34553999999999996  0.45569999999999994  0.48552  1.0000
  C   C5        1.0  0.24503000000000003  0.35862  0.4843200000000001  1.0000
  C   C6        1.0  0.90083  0.07183999999999999  0.3933300000000001  1.0000
  C   C7        1.0  0.84314  0.10425999999999998  0.3274300000000001  1.0000
  C   C8        1.0  0.8721600000000003  0.21721  0.3106  1.0000
  C   C9        1.0  0.8198100000000003  0.24388999999999997  0.24637  1.0000
  C   C10       1.0  0.7395300000000001  0.15948999999999997  0.19862  1.0000
  C   C11       1.0  0.7119600000000003  0.04724  0.21534000000000006  1.0000
  C   C12       1.0  0.76222  0.01907  0.27994  1.0000
  C   C13       1.0  0.5857700000000001  0.85605  0.19047  1.0000
  C   C14       1.0  0.51214  0.82584  0.25663  1.0000
  C   C15       1.0  0.45879  0.71394  0.28144  1.0000
  C   C16       1.0  0.48072999999999994  0.6340599999999998  0.24058  1.0000
  C   C17       1.0  0.55341  0.66395  0.17409  1.0000
  C   C18       1.0  0.6068100000000001  0.77618  0.14903  1.0000
  C   C19       1.0  0.32635000000000003  0.45146999999999987  0.24924  1.0000
  C   C20       1.0  0.28261  0.34443  0.28463  1.0000
  C   C21       1.0  0.17519000000000007  0.26503  0.26441  1.0000
  C   C22       1.0  0.11149  0.29192  0.20923  1.0000
  C   C23       1.0  0.15555999999999998  0.39987999999999996  0.17518  1.0000
  C   C24       1.0  0.2636  0.48015  0.19516  1.0000
  C   C25       1.0  0.08967999999999998  0.4323199999999999  0.11623  1.0000
  C   C26       1.0  0.66584  0.2529  0.00272  1.0000
  C   C27       1.0  0.56247  0.15944999999999998  0.0045600000000000016  1.0000
  C   C28       1.0  0.5543  0.05088999999999999  0.9974200000000001  1.0000
  C   C29       1.0  0.6544600000000003  0.04429  0.9855200000000001  1.0000
  C   C30       1.0  0.75496  0.14138  0.9843199999999999  1.0000
  C   C31       1.0  0.09915999999999996  0.4281599999999999  0.89334  1.0000
  C   C32       1.0  0.15686  0.39574  0.8274300000000002  1.0000
  C   C33       1.0  0.12783999999999998  0.28278999999999993  0.8106  1.0000
  C   C34       1.0  0.18019000000000004  0.25611  0.74637  1.0000
  C   C35       1.0  0.26047  0.3405099999999999  0.69862  1.0000
  C   C36       1.0  0.28803  0.4527599999999999  0.71535  1.0000
  C   C37       1.0  0.23778000000000005  0.48093  0.7799400000000002  1.0000
  C   C38       1.0  0.41422000000000003  0.6439499999999999  0.69047  1.0000
  C   C39       1.0  0.48785  0.67415  0.7566300000000002  1.0000
  C   C40       1.0  0.5412  0.78605  0.78144  1.0000
  C   C41       1.0  0.51926  0.86593  0.7405800000000001  1.0000
  C   C42       1.0  0.44658  0.83605  0.67409  1.0000
  C   C43       1.0  0.3931800000000002  0.72381  0.64903  1.0000
  C   C44       1.0  0.6736500000000002  0.04852999999999999  0.74924  1.0000
  C   C45       1.0  0.71739  0.15556  0.78463  1.0000
  C   C46       1.0  0.8248  0.23496999999999996  0.76441  1.0000
  C   C47       1.0  0.8885100000000002  0.20807999999999993  0.70923  1.0000
  C   C48       1.0  0.84443  0.10011999999999999  0.6751800000000002  1.0000
  C   C49       1.0  0.73639  0.01985  0.69516  1.0000
  C   C50       1.0  0.9103100000000002  0.06768  0.61623  1.0000
  C   C51       1.0  0.66584  0.75289  0.49728  1.0000
  C   C52       1.0  0.56247  0.6594499999999999  0.49544  1.0000
  C   C53       1.0  0.5543  0.55089  0.5025900000000002  1.0000
  C   C54       1.0  0.6544600000000003  0.5443  0.51448  1.0000
  C   C55       1.0  0.75496  0.64138  0.51569  1.0000
  C   C56       1.0  0.09916999999999991  0.9281699999999998  0.6066700000000003  1.0000
  C   C57       1.0  0.15685000000000004  0.89573  0.67257  1.0000
  C   C58       1.0  0.12782999999999992  0.7827899999999998  0.68941  1.0000
  C   C59       1.0  0.18017999999999992  0.7561099999999997  0.7536400000000002  1.0000
  C   C60       1.0  0.2604599999999999  0.8405099999999998  0.8013800000000002  1.0000
  C   C61       1.0  0.28803  0.9527599999999998  0.78466  1.0000
  C   C62       1.0  0.23776999999999998  0.9809299999999999  0.72007  1.0000
  C   C63       1.0  0.41422000000000003  0.14394999999999997  0.8095300000000002  1.0000
  C   C64       1.0  0.48785  0.17415999999999998  0.74337  1.0000
  C   C65       1.0  0.5412  0.28606  0.71856  1.0000
  C   C66       1.0  0.51926  0.36594  0.75942  1.0000
  C   C67       1.0  0.44658  0.33605  0.8259100000000003  1.0000
  C   C68       1.0  0.39318  0.22381999999999994  0.8509800000000002  1.0000
  C   C69       1.0  0.6736400000000002  0.5485299999999999  0.7507600000000002  1.0000
  C   C70       1.0  0.71739  0.65556  0.71538  1.0000
  C   C71       1.0  0.8248  0.7349699999999999  0.7356  1.0000
  C   C72       1.0  0.8884999999999998  0.7080699999999999  0.79078  1.0000
  C   C73       1.0  0.84443  0.60012  0.82482  1.0000
  C   C74       1.0  0.73638  0.51984  0.80485  1.0000
  C   C75       1.0  0.9103000000000002  0.56766  0.88377  1.0000
  C   C76       1.0  0.33415  0.7471  0.9972800000000002  1.0000
  C   C77       1.0  0.4375200000000002  0.8405499999999999  0.99545  1.0000
  C   C78       1.0  0.4456900000000001  0.9491  0.00259  1.0000
  C   C79       1.0  0.34552999999999995  0.9556999999999998  0.01448  1.0000
  C   C80       1.0  0.24503  0.85862  0.01569  1.0000
  C   C81       1.0  0.9008200000000001  0.57182  0.10667  1.0000
  C   C82       1.0  0.84314  0.6042599999999999  0.17257  1.0000
  C   C83       1.0  0.8721600000000003  0.7171999999999998  0.18941  1.0000
  C   C84       1.0  0.8198100000000003  0.7438899999999999  0.25363  1.0000
  C   C85       1.0  0.7395300000000001  0.65949  0.30138  1.0000
  C   C86       1.0  0.7119600000000003  0.54724  0.28466000000000014  1.0000
  C   C87       1.0  0.76222  0.5190599999999999  0.22007  1.0000
  C   C88       1.0  0.5857700000000002  0.35605  0.30953000000000014  1.0000
  C   C89       1.0  0.51214  0.32583999999999996  0.24337  1.0000
  C   C90       1.0  0.4587899999999999  0.21393999999999996  0.21856  1.0000
  C   C91       1.0  0.48073  0.13406  0.25942  1.0000
  C   C92       1.0  0.55342  0.16395  0.32591  1.0000
  C   C93       1.0  0.6068200000000001  0.2761799999999999  0.35097  1.0000
  C   C94       1.0  0.32635000000000003  0.9514699999999999  0.25076  1.0000
  C   C95       1.0  0.2826  0.8444399999999999  0.21537000000000006  1.0000
  C   C96       1.0  0.1751899999999999  0.7650299999999998  0.2356  1.0000
  C   C97       1.0  0.11148999999999994  0.7919299999999998  0.29078  1.0000
  C   C98       1.0  0.15555999999999995  0.89988  0.32482  1.0000
  C   C99       1.0  0.26360999999999996  0.9801499999999997  0.30485  1.0000
  C   C100      1.0  0.08968999999999992  0.9323399999999998  0.38377000000000006  1.0000
  N   N1        1.0  0.23872  0.25559  0.4940300000000001  1.0000
  N   N2        1.0  0.76127  0.24440999999999996  0.9940300000000001  1.0000
  N   N3        1.0  0.76127  0.74441  0.50597  1.0000
  N   N4        1.0  0.23872  0.75559  0.00597  1.0000
  O   O1        1.0  0.9921200000000001  0.14828  0.42064  1.0000
  O   O2        1.0  0.8544300000000001  0.9690799999999998  0.41584  1.0000
  O   O3        1.0  0.6365500000000002  0.96661  0.16271  1.0000
  O   O4        1.0  0.43545999999999996  0.5244399999999999  0.27038  1.0000
  O   O5        1.0  0.13465000000000005  0.53446  0.09185  1.0000
  O   O6        1.0  0.9946300000000001  0.35636  0.09478  1.0000
  O   O7        1.0  0.007879999999999986  0.3517199999999999  0.92064  1.0000
  O   O8        1.0  0.14556000000000005  0.53092  0.9158400000000002  1.0000
  O   O9        1.0  0.36344000000000004  0.5333799999999999  0.66271  1.0000
  O   O10       1.0  0.56453  0.9755599999999999  0.77038  1.0000
  O   O11       1.0  0.8653400000000001  0.9655399999999997  0.59185  1.0000
  O   O12       1.0  0.005360000000000002  0.14364  0.59478  1.0000
  O   O13       1.0  0.007869999999999868  0.8516899999999997  0.57935  1.0000
  O   O14       1.0  0.14555  0.03091  0.58417  1.0000
  O   O15       1.0  0.3634400000000001  0.03338  0.8372900000000002  1.0000
  O   O16       1.0  0.56454  0.47556  0.72962  1.0000
  O   O17       1.0  0.8653500000000001  0.4655499999999999  0.90815  1.0000
  O   O18       1.0  0.0053699999999999625  0.6436399999999999  0.90521  1.0000
  O   O19       1.0  0.9921200000000001  0.6483  0.07935  1.0000
  O   O20       1.0  0.8544500000000003  0.4690899999999999  0.08417  1.0000
  O   O21       1.0  0.6365500000000002  0.46662  0.33729  1.0000
  O   O22       1.0  0.43546  0.024439999999999993  0.22962000000000005  1.0000
  O   O23       1.0  0.13464000000000004  0.03444  0.40815  1.0000
  O   O24       1.0  0.99462  0.8563599999999999  0.4052100000000001  1.0000
