data_image0
_chemical_formula_structural       Ag4H52C88N12O4
_chemical_formula_sum              "Ag4 H52 C88 N12 O4"
_cell_length_a       7.69032
_cell_length_b       10.6821
_cell_length_c       27.31427
_cell_angle_alpha    88.32518
_cell_angle_beta     93.4955
_cell_angle_gamma    89.95322

_space_group_name_H-M_alt    "P 1"
_space_group_IT_number       1

loop_
  _space_group_symop_operation_xyz
  'x, y, z'

loop_
  _atom_site_type_symbol
  _atom_site_label
  _atom_site_symmetry_multiplicity
  _atom_site_fract_x
  _atom_site_fract_y
  _atom_site_fract_z
  _atom_site_occupancy
  Ag  Ag1       1.0  0.82978  0.9288100000000001  0.9673299999999998  1.0000
  Ag  Ag2       1.0  0.34972  0.52365  0.4680499999999999  1.0000
  Ag  Ag3       1.0  0.6503300000000002  0.47625  0.53195  1.0000
  Ag  Ag4       1.0  0.16999000000000006  0.07125  0.03269  1.0000
  H   H1        1.0  0.60856  0.33879  0.27299  1.0000
  H   H2        1.0  0.83215  0.9503400000000001  0.31221  1.0000
  H   H3        1.0  0.71101  0.77009  0.35656  1.0000
  H   H4        1.0  0.19387999999999997  0.9313100000000001  0.3335799999999999  1.0000
  H   H5        1.0  0.31941  0.11383  0.29013  1.0000
  H   H6        1.0  0.97038  0.27375  0.24446999999999994  1.0000
  H   H7        1.0  0.22362999999999997  0.3432500000000001  0.2964699999999999  1.0000
  H   H8        1.0  0.96094  0.22730000000000003  0.42595  1.0000
  H   H9        1.0  0.7099500000000001  0.15662000000000004  0.37322999999999995  1.0000
  H   H10       1.0  0.4440100000000001  0.18174  0.19404  1.0000
  H   H11       1.0  0.48032  0.11688  0.10947  1.0000
  H   H12       1.0  0.99831  0.9787500000000002  0.1537  1.0000
  H   H13       1.0  0.9594200000000002  0.04507  0.23828  1.0000
  H   H14       1.0  0.08215  0.15916  0.77555  1.0000
  H   H15       1.0  0.31533  0.53993  0.8158399999999998  1.0000
  H   H16       1.0  0.19386  0.71355  0.85973  1.0000
  H   H17       1.0  0.67362  0.56484  0.8312299999999998  1.0000
  H   H18       1.0  0.7995999999999999  0.38939  0.7877499999999997  1.0000
  H   H19       1.0  0.45306  0.23455  0.7450399999999998  1.0000
  H   H20       1.0  0.7115799999999998  0.16429000000000005  0.7968899999999998  1.0000
  H   H21       1.0  0.44344000000000006  0.24674  0.9267499999999997  1.0000
  H   H22       1.0  0.18687000000000004  0.3195200000000001  0.8742499999999997  1.0000
  H   H23       1.0  0.9266100000000003  0.31571  0.6947299999999997  1.0000
  H   H24       1.0  0.9572  0.39737  0.61038  1.0000
  H   H25       1.0  0.4650000000000002  0.54548  0.6546899999999999  1.0000
  H   H26       1.0  0.4337500000000001  0.46054  0.73881  1.0000
  H   H27       1.0  0.9176700000000002  0.8407800000000001  0.22451999999999994  1.0000
  H   H28       1.0  0.6845100000000002  0.45997000000000005  0.18419999999999997  1.0000
  H   H29       1.0  0.80616  0.28637000000000007  0.14035  1.0000
  H   H30       1.0  0.32637000000000005  0.43520000000000003  0.16881  1.0000
  H   H31       1.0  0.20043  0.61072  0.21224999999999994  1.0000
  H   H32       1.0  0.54678  0.76549  0.25499  1.0000
  H   H33       1.0  0.2883000000000001  0.8357900000000006  0.20315  1.0000
  H   H34       1.0  0.55633  0.7533100000000003  0.07328  1.0000
  H   H35       1.0  0.81289  0.68051  0.12575999999999998  1.0000
  H   H36       1.0  0.07337999999999997  0.68436  0.30525999999999986  1.0000
  H   H37       1.0  0.04289  0.60256  0.3896  1.0000
  H   H38       1.0  0.53512  0.45453  0.34538  1.0000
  H   H39       1.0  0.5661  0.5394800000000001  0.26123  1.0000
  H   H40       1.0  0.39144  0.66123  0.72713  1.0000
  H   H41       1.0  0.16796999999999998  0.04975  0.6878699999999999  1.0000
  H   H42       1.0  0.289  0.22986000000000004  0.6435399999999999  1.0000
  H   H43       1.0  0.8060800000000002  0.06862000000000001  0.6664499999999999  1.0000
  H   H44       1.0  0.68064  0.88609  0.70991  1.0000
  H   H45       1.0  0.029589999999999964  0.7262599999999999  0.7555999999999999  1.0000
  H   H46       1.0  0.7764899999999998  0.65678  0.7035999999999998  1.0000
  H   H47       1.0  0.03912  0.77254  0.5741  1.0000
  H   H48       1.0  0.28993  0.84332  0.6268  1.0000
  H   H49       1.0  0.55592  0.8182800000000001  0.80599  1.0000
  H   H50       1.0  0.51961  0.8830800000000002  0.8905899999999998  1.0000
  H   H51       1.0  0.0014199999999999306  0.021240000000000012  0.8463999999999998  1.0000
  H   H52       1.0  0.04045999999999996  0.95496  0.7617399999999998  1.0000
  C   C1        1.0  0.66672  0.15981  0.27416  1.0000
  C   C2        1.0  0.58407  0.04603000000000001  0.29855  1.0000
  C   C3        1.0  0.69247  0.9462900000000001  0.3165599999999999  1.0000
  C   C4        1.0  0.62565  0.84473  0.3416  1.0000
  C   C5        1.0  0.4445300000000001  0.83839  0.34847  1.0000
  C   C6        1.0  0.33320000000000005  0.93531  0.3285  1.0000
  C   C7        1.0  0.40362  0.03725  0.30385  1.0000
  C   C8        1.0  0.3831  0.73621  0.3762  1.0000
  C   C9        1.0  0.82739  0.20187  0.30499  1.0000
  C   C10       1.0  0.97027  0.26026  0.28404  1.0000
  C   C11       1.0  0.11213  0.30111  0.3131499999999999  1.0000
  C   C12       1.0  0.11262999999999997  0.2851  0.3647199999999999  1.0000
  C   C13       1.0  0.9641800000000003  0.23439  0.38623999999999997  1.0000
  C   C14       1.0  0.82421  0.19421000000000005  0.3564299999999999  1.0000
  C   C15       1.0  0.25588  0.31941  0.39592999999999995  1.0000
  C   C16       1.0  0.69973  0.12158000000000001  0.22208999999999995  1.0000
  C   C17       1.0  0.5648200000000002  0.13746000000000003  0.18503999999999995  1.0000
  C   C18       1.0  0.5849500000000001  0.10144  0.13755  1.0000
  C   C19       1.0  0.7445400000000002  0.04588999999999999  0.12516  1.0000
  C   C20       1.0  0.87751  0.022710000000000008  0.16288999999999995  1.0000
  C   C21       1.0  0.85381  0.05954999999999999  0.21027  1.0000
  C   C22       1.0  0.7729200000000002  0.02354  0.07621999999999997  1.0000
  C   C23       1.0  0.14523  0.33784000000000003  0.7754999999999999  1.0000
  C   C24       1.0  0.06573  0.4496200000000001  0.7996699999999998  1.0000
  C   C25       1.0  0.17502999999999996  0.54474  0.8190199999999997  1.0000
  C   C26       1.0  0.10804999999999995  0.64279  0.8438699999999998  1.0000
  C   C27       1.0  0.9257100000000001  0.65071  0.8496099999999998  1.0000
  C   C28       1.0  0.81365  0.5593  0.82765  1.0000
  C   C29       1.0  0.88446  0.46139000000000013  0.8030999999999999  1.0000
  C   C30       1.0  0.8638499999999999  0.7461799999999998  0.8780199999999999  1.0000
  C   C31       1.0  0.30663999999999997  0.29022  0.8059699999999997  1.0000
  C   C32       1.0  0.4518100000000002  0.23992000000000002  0.78466  1.0000
  C   C33       1.0  0.5967  0.19851  0.8136199999999998  1.0000
  C   C34       1.0  0.59664  0.20540000000000008  0.8650199999999998  1.0000
  C   C35       1.0  0.4459000000000001  0.24621000000000007  0.8869799999999999  1.0000
  C   C36       1.0  0.30293  0.28755  0.8574099999999998  1.0000
  C   C37       1.0  0.7469  0.17193  0.89511  1.0000
  C   C38       1.0  0.17656999999999998  0.38202  0.7230599999999999  1.0000
  C   C39       1.0  0.04364999999999998  0.36638  0.6858899999999999  1.0000
  C   C40       1.0  0.060709999999999945  0.41184  0.6384899999999998  1.0000
  C   C41       1.0  0.21361999999999998  0.47802  0.6265099999999998  1.0000
  C   C42       1.0  0.34718  0.4961800000000001  0.6638299999999999  1.0000
  C   C43       1.0  0.32772  0.44905  0.7110299999999998  1.0000
  C   C44       1.0  0.23006000000000001  0.52281  0.5783899999999998  1.0000
  C   C45       1.0  0.85469  0.6621700000000001  0.2245  1.0000
  C   C46       1.0  0.93419  0.5504300000000001  0.20034  1.0000
  C   C47       1.0  0.8248400000000001  0.45526  0.18103  1.0000
  C   C48       1.0  0.8919000000000002  0.35718  0.15620999999999993  1.0000
  C   C49       1.0  0.07425  0.34933  0.15046  1.0000
  C   C50       1.0  0.18634000000000006  0.44076  0.17238999999999993  1.0000
  C   C51       1.0  0.11551000000000004  0.53871  0.19691999999999998  1.0000
  C   C52       1.0  0.13607000000000005  0.25387  0.12203999999999997  1.0000
  C   C53       1.0  0.6932100000000001  0.7098  0.19404999999999994  1.0000
  C   C54       1.0  0.54805  0.7601100000000001  0.21536999999999995  1.0000
  C   C55       1.0  0.40315  0.80153  0.18641999999999995  1.0000
  C   C56       1.0  0.40316  0.7946500000000001  0.13502  1.0000
  C   C57       1.0  0.55388  0.75383  0.11305  1.0000
  C   C58       1.0  0.69685  0.71247  0.14262  1.0000
  C   C59       1.0  0.25288  0.82813  0.10493  1.0000
  C   C60       1.0  0.82341  0.61797  0.27692999999999995  1.0000
  C   C61       1.0  0.9563800000000002  0.63363  0.31409  1.0000
  C   C62       1.0  0.9393500000000001  0.58818  0.36148999999999987  1.0000
  C   C63       1.0  0.78647  0.52202  0.37348999999999993  1.0000
  C   C64       1.0  0.6528700000000001  0.5038500000000001  0.33619  1.0000
  C   C65       1.0  0.6722400000000002  0.55097  0.28897999999999996  1.0000
  C   C66       1.0  0.77013  0.47714000000000006  0.4215999999999999  1.0000
  C   C67       1.0  0.33329  0.8401500000000002  0.72586  1.0000
  C   C68       1.0  0.41596  0.95391  0.70148  1.0000
  C   C69       1.0  0.30762999999999996  0.05371000000000001  0.6834899999999998  1.0000
  C   C70       1.0  0.37445999999999996  0.15529000000000004  0.6584799999999997  1.0000
  C   C71       1.0  0.55552  0.16158000000000003  0.65157  1.0000
  C   C72       1.0  0.6668  0.06464000000000002  0.6715499999999998  1.0000
  C   C73       1.0  0.59641  0.9626700000000001  0.69618  1.0000
  C   C74       1.0  0.6169900000000003  0.26370000000000005  0.6238299999999998  1.0000
  C   C75       1.0  0.17264  0.7980400000000002  0.6950599999999999  1.0000
  C   C76       1.0  0.029789999999999976  0.73967  0.71602  1.0000
  C   C77       1.0  0.88792  0.69891  0.6868999999999997  1.0000
  C   C78       1.0  0.88736  0.71483  0.63533  1.0000
  C   C79       1.0  0.03577999999999997  0.76554  0.6137999999999999  1.0000
  C   C80       1.0  0.17576  0.80567  0.64362  1.0000
  C   C81       1.0  0.7442  0.68027  0.60414  1.0000
  C   C82       1.0  0.3001499999999999  0.87839  0.7779399999999997  1.0000
  C   C83       1.0  0.43507  0.86249  0.8149899999999998  1.0000
  C   C84       1.0  0.41494  0.89845  0.8625  1.0000
  C   C85       1.0  0.25532  0.95401  0.87487  1.0000
  C   C86       1.0  0.12222000000000002  0.9772300000000002  0.83716  1.0000
  C   C87       1.0  0.14602999999999994  0.9404400000000002  0.7897699999999997  1.0000
  C   C88       1.0  0.22718999999999995  0.9764800000000001  0.9238299999999998  1.0000
  N   N1        1.0  0.80275  0.01678  0.03446  1.0000
  N   N2        1.0  0.37193  0.34392  0.4242499999999999  1.0000
  N   N3        1.0  0.33867  0.6489400000000001  0.3994699999999999  1.0000
  N   N4        1.0  0.24080000000000001  0.56015  0.5375899999999999  1.0000
  N   N5        1.0  0.86966  0.14554000000000003  0.9209899999999998  1.0000
  N   N6        1.0  0.8156400000000003  0.8278600000000002  0.9020699999999998  1.0000
  N   N7        1.0  0.7593699999999999  0.43977  0.46239999999999987  1.0000
  N   N8        1.0  0.13015  0.8544900000000001  0.07904999999999997  1.0000
  N   N9        1.0  0.18428  0.17214000000000002  0.09801999999999997  1.0000
  N   N10       1.0  0.19712000000000002  0.9832500000000001  0.9655599999999999  1.0000
  N   N11       1.0  0.6282000000000002  0.65584  0.5757999999999999  1.0000
  N   N12       1.0  0.66149  0.35082000000000013  0.60048  1.0000
  O   O1        1.0  0.54002  0.26188  0.27186  1.0000
  O   O2        1.0  0.016539999999999958  0.23764000000000002  0.7744899999999999  1.0000
  O   O3        1.0  0.9833900000000001  0.76236  0.22550999999999993  1.0000
  O   O4        1.0  0.46003999999999995  0.73812  0.7281799999999998  1.0000
