data_image0
_chemical_formula_structural       Zn4H56C96N8O16
_chemical_formula_sum              "Zn4 H56 C96 N8 O16"
_cell_length_a       10.35552
_cell_length_b       15.24842
_cell_length_c       27.72677
_cell_angle_alpha    77.95372
_cell_angle_beta     78.95688999999999
_cell_angle_gamma    70.18695

_symmetry_space_group_name_H-M    'P 1'
_symmetry_Int_Tables_number       1

loop_
  _symmetry_equiv_pos_as_xyz
  'x,y,z'

loop_
  _atom_site_type_symbol
  _atom_site_label
  _atom_site_symmetry_multiplicity
  _atom_site_fract_x
  _atom_site_fract_y
  _atom_site_fract_z
  _atom_site_occupancy
  Zn  Zn1       1.0  0.81536  0.2862100000000001  0.5170899999999999  1.0000
  Zn  Zn2       1.0  0.38111999999999996  0.78488  0.01713  1.0000
  Zn  Zn3       1.0  0.6188800000000001  0.21511  0.98287  1.0000
  Zn  Zn4       1.0  0.18464000000000008  0.71379  0.48290999999999995  1.0000
  H   H1        1.0  0.8328499999999999  0.33402  0.07473  1.0000
  H   H2        1.0  0.6835299999999997  0.46299  0.20766  1.0000
  H   H3        1.0  0.9940099999999998  0.043  0.030339999999999992  1.0000
  H   H4        1.0  0.8571799999999999  0.18899  0.06422  1.0000
  H   H5        1.0  0.12786  0.11856999999999998  0.17596  1.0000
  H   H6        1.0  0.043190000000000034  0.19031999999999993  0.35713  1.0000
  H   H7        1.0  0.6288399999999998  0.41196  0.28407  1.0000
  H   H8        1.0  0.63761  0.39122  0.37468999999999997  1.0000
  H   H9        1.0  0.03541999999999996  0.20979999999999996  0.26584  1.0000
  H   H10       1.0  0.2715999999999999  0.9721600000000001  0.1398  1.0000
  H   H11       1.0  0.6399000000000001  0.42824  0.05103  1.0000
  H   H12       1.0  0.49795000000000006  0.57889  0.00451  1.0000
  H   H13       1.0  0.49848999999999993  0.73357  0.11031999999999997  1.0000
  H   H14       1.0  0.65431  0.59356  0.15803  1.0000
  H   H15       1.0  0.7586000000000002  0.8346  0.57407  1.0000
  H   H16       1.0  0.6451699999999999  0.9634600000000001  0.70697  1.0000
  H   H17       1.0  0.9336800000000001  0.5434899999999999  0.52965  1.0000
  H   H18       1.0  0.89152  0.68925  0.5636199999999999  1.0000
  H   H19       1.0  0.5777899999999998  0.61904  0.67595  1.0000
  H   H20       1.0  0.40823  0.69096  0.8581099999999999  1.0000
  H   H21       1.0  0.67586  0.91216  0.78289  1.0000
  H   H22       1.0  0.59677  0.8927299999999999  0.87366  1.0000
  H   H23       1.0  0.4874100000000002  0.70959  0.7668699999999998  1.0000
  H   H24       1.0  0.6161499999999999  0.47243000000000007  0.64008  1.0000
  H   H25       1.0  0.8810200000000007  0.93025  0.54994  1.0000
  H   H26       1.0  0.9195299999999998  0.08196000000000002  0.5039299999999999  1.0000
  H   H27       1.0  0.6579499999999999  0.23402999999999996  0.61093  1.0000
  H   H28       1.0  0.5930599999999999  0.09340000000000001  0.65798  1.0000
  H   H29       1.0  0.24140000000000003  0.1654  0.42593  1.0000
  H   H30       1.0  0.3548199999999999  0.036539999999999996  0.29303  1.0000
  H   H31       1.0  0.06631999999999995  0.45651000000000014  0.47034999999999993  1.0000
  H   H32       1.0  0.10847999999999997  0.31074  0.43638  1.0000
  H   H33       1.0  0.4222  0.38095  0.32405  1.0000
  H   H34       1.0  0.5917700000000001  0.30904  0.14189  1.0000
  H   H35       1.0  0.32414  0.08784000000000003  0.21711  1.0000
  H   H36       1.0  0.40322999999999987  0.10727000000000003  0.12634  1.0000
  H   H37       1.0  0.5125799999999998  0.2904100000000001  0.23312999999999995  1.0000
  H   H38       1.0  0.3838500000000001  0.52757  0.3599199999999999  1.0000
  H   H39       1.0  0.11897000000000003  0.06975  0.45005999999999996  1.0000
  H   H40       1.0  0.08047000000000003  0.91804  0.49606  1.0000
  H   H41       1.0  0.34203999999999973  0.76597  0.38907  1.0000
  H   H42       1.0  0.4069400000000001  0.9065899999999999  0.3420199999999999  1.0000
  H   H43       1.0  0.16714000000000007  0.66598  0.9252699999999999  1.0000
  H   H44       1.0  0.31646999999999986  0.53701  0.79234  1.0000
  H   H45       1.0  0.005979999999999876  0.9569900000000001  0.96965  1.0000
  H   H46       1.0  0.14281999999999984  0.8110100000000001  0.9357699999999998  1.0000
  H   H47       1.0  0.8721400000000005  0.8814200000000001  0.8240399999999999  1.0000
  H   H48       1.0  0.9568100000000002  0.80968  0.64287  1.0000
  H   H49       1.0  0.37115999999999993  0.58803  0.71593  1.0000
  H   H50       1.0  0.3623900000000001  0.60878  0.6253099999999998  1.0000
  H   H51       1.0  0.9645799999999998  0.7902  0.73416  1.0000
  H   H52       1.0  0.7283999999999999  0.02784000000000001  0.8602  1.0000
  H   H53       1.0  0.3601000000000001  0.57175  0.9489699999999998  1.0000
  H   H54       1.0  0.5020400000000002  0.42111000000000004  0.9954899999999998  1.0000
  H   H55       1.0  0.50151  0.2664200000000001  0.8896799999999999  1.0000
  H   H56       1.0  0.34569000000000005  0.4064300000000002  0.8419699999999998  1.0000
  C   C1        1.0  0.66167  0.49765  0.10859  1.0000
  C   C2        1.0  0.74779  0.41134999999999994  0.13697  1.0000
  C   C3        1.0  0.9050799999999998  0.25138  0.14332  1.0000
  C   C4        1.0  0.82921  0.3223  0.21448999999999993  1.0000
  C   C5        1.0  0.82876  0.33282999999999996  0.11428999999999999  1.0000
  C   C6        1.0  0.98586  0.1645  0.12193  1.0000
  C   C7        1.0  0.83273  0.31260000000000004  0.26855  1.0000
  C   C8        1.0  0.74715  0.40486  0.18819  1.0000
  C   C9        1.0  0.8460099999999999  0.27705  0.42587  1.0000
  C   C10       1.0  0.84141  0.28953  0.3714799999999999  1.0000
  C   C11       1.0  0.024920000000000008  0.05939  0.06188999999999999  1.0000
  C   C12       1.0  0.94852  0.14252  0.0808  1.0000
  C   C13       1.0  0.1421599999999999  0.99806  0.08306999999999999  1.0000
  C   C14       1.0  0.10130999999999998  0.10134999999999998  0.14379  1.0000
  C   C15       1.0  0.9532899999999999  0.23852  0.34062999999999993  1.0000
  C   C16       1.0  0.72107  0.36412000000000005  0.29959999999999987  1.0000
  C   C17       1.0  0.7247899999999999  0.35267  0.35051  1.0000
  C   C18       1.0  0.9491700000000001  0.24954  0.28983999999999993  1.0000
  C   C19       1.0  0.1798  0.020019999999999996  0.1241  1.0000
  C   C20       1.0  0.23142000000000001  0.91233  0.06179  1.0000
  C   C21       1.0  0.61517  0.49496  0.06458  1.0000
  C   C22       1.0  0.53314  0.57742  0.03929999999999999  1.0000
  C   C23       1.0  0.5348  0.66461  0.09845  1.0000
  C   C24       1.0  0.6199699999999998  0.5856200000000001  0.12492999999999997  1.0000
  C   C25       1.0  0.7319399999999999  0.99851  0.60802  1.0000
  C   C26       1.0  0.7038200000000002  0.91185  0.63635  1.0000
  C   C27       1.0  0.7009199999999999  0.75165  0.6429  1.0000
  C   C28       1.0  0.6337199999999998  0.82235  0.7141499999999997  1.0000
  C   C29       1.0  0.7244999999999999  0.8333100000000002  0.6137  1.0000
  C   C30       1.0  0.7286  0.66483  0.62152  1.0000
  C   C31       1.0  0.58566  0.8127000000000001  0.7683599999999998  1.0000
  C   C32       1.0  0.6592800000000001  0.90518  0.68764  1.0000
  C   C33       1.0  0.45078  0.78026  0.9262999999999998  1.0000
  C   C34       1.0  0.4968299999999999  0.79096  0.87167  1.0000
  C   C35       1.0  0.85469  0.5598200000000002  0.56139  1.0000
  C   C36       1.0  0.8294  0.6429  0.58024  1.0000
  C   C37       1.0  0.7772699999999998  0.49842  0.58294  1.0000
  C   C38       1.0  0.65384  0.60176  0.6436599999999999  1.0000
  C   C39       1.0  0.46665999999999996  0.73927  0.84134  1.0000
  C   C40       1.0  0.6153  0.86456  0.7989199999999999  1.0000
  C   C41       1.0  0.5719  0.85384  0.8499099999999998  1.0000
  C   C42       1.0  0.5105200000000001  0.74975  0.79038  1.0000
  C   C43       1.0  0.6761999999999999  0.5203  0.62415  1.0000
  C   C44       1.0  0.7957  0.41249000000000013  0.56185  1.0000
  C   C45       1.0  0.8254900000000002  0.9966200000000001  0.56382  1.0000
  C   C46       1.0  0.85076  0.07933999999999998  0.53886  1.0000
  C   C47       1.0  0.7021800000000001  0.1653700000000001  0.5986699999999998  1.0000
  C   C48       1.0  0.6689900000000001  0.08611000000000005  0.6247799999999999  1.0000
  C   C49       1.0  0.2680600000000001  0.001480000000000019  0.39197999999999994  1.0000
  C   C50       1.0  0.29618  0.08814000000000001  0.36364999999999986  1.0000
  C   C51       1.0  0.29908000000000007  0.24835  0.3571  1.0000
  C   C52       1.0  0.36626999999999993  0.17765  0.28585  1.0000
  C   C53       1.0  0.2755  0.16668000000000002  0.38629999999999987  1.0000
  C   C54       1.0  0.27139  0.33516  0.37848  1.0000
  C   C55       1.0  0.41433999999999993  0.1873  0.23163999999999996  1.0000
  C   C56       1.0  0.34071  0.09481  0.31236  1.0000
  C   C57       1.0  0.5492100000000001  0.21973  0.0737  1.0000
  C   C58       1.0  0.50317  0.20904  0.12833  1.0000
  C   C59       1.0  0.14530000000000004  0.44017999999999996  0.43861  1.0000
  C   C60       1.0  0.17059999999999995  0.3571000000000001  0.4197499999999999  1.0000
  C   C61       1.0  0.22272999999999998  0.50157  0.41706  1.0000
  C   C62       1.0  0.34615000000000007  0.39824  0.35634  1.0000
  C   C63       1.0  0.53333  0.26073  0.15866  1.0000
  C   C64       1.0  0.3846899999999999  0.13544  0.20108  1.0000
  C   C65       1.0  0.4281  0.14616000000000004  0.15009  1.0000
  C   C66       1.0  0.48946999999999996  0.25025  0.20961999999999995  1.0000
  C   C67       1.0  0.3237999999999999  0.47969000000000006  0.3758499999999999  1.0000
  C   C68       1.0  0.2043  0.5875  0.4381499999999999  1.0000
  C   C69       1.0  0.17450000000000002  0.0033800000000000405  0.4361799999999999  1.0000
  C   C70       1.0  0.14923999999999998  0.9206500000000001  0.46113999999999994  1.0000
  C   C71       1.0  0.2978199999999999  0.8346200000000001  0.4013299999999999  1.0000
  C   C72       1.0  0.3310099999999998  0.9138800000000001  0.3752199999999999  1.0000
  C   C73       1.0  0.33832999999999996  0.50235  0.8914099999999999  1.0000
  C   C74       1.0  0.25220999999999993  0.58865  0.86303  1.0000
  C   C75       1.0  0.09492000000000002  0.7486200000000001  0.8566799999999998  1.0000
  C   C76       1.0  0.17079000000000008  0.67769  0.7854999999999998  1.0000
  C   C77       1.0  0.1712400000000002  0.66717  0.8857099999999999  1.0000
  C   C78       1.0  0.014130000000000005  0.8355000000000001  0.8780699999999998  1.0000
  C   C79       1.0  0.1672699999999999  0.6873900000000001  0.73145  1.0000
  C   C80       1.0  0.25285000000000013  0.5951400000000001  0.8118099999999999  1.0000
  C   C81       1.0  0.15399  0.72295  0.57412  1.0000
  C   C82       1.0  0.15859000000000012  0.71047  0.6285199999999999  1.0000
  C   C83       1.0  0.9750799999999992  0.9406000000000001  0.93811  1.0000
  C   C84       1.0  0.0514800000000001  0.85748  0.9192  1.0000
  C   C85       1.0  0.8578399999999999  0.0019299999999999986  0.91693  1.0000
  C   C86       1.0  0.8986899999999999  0.8986400000000001  0.85621  1.0000
  C   C87       1.0  0.04671000000000011  0.7614700000000001  0.6593699999999998  1.0000
  C   C88       1.0  0.2789300000000001  0.63587  0.7003999999999999  1.0000
  C   C89       1.0  0.27520000000000006  0.64732  0.64949  1.0000
  C   C90       1.0  0.05083000000000006  0.7504500000000001  0.7101499999999997  1.0000
  C   C91       1.0  0.8201900000000001  0.97998  0.8759  1.0000
  C   C92       1.0  0.7685799999999999  0.08767  0.9382099999999999  1.0000
  C   C93       1.0  0.38483000000000006  0.5050399999999998  0.93542  1.0000
  C   C94       1.0  0.46685999999999994  0.42257999999999996  0.9607  1.0000
  C   C95       1.0  0.46518999999999994  0.33538000000000007  0.90155  1.0000
  C   C96       1.0  0.3800300000000002  0.41438  0.8750699999999998  1.0000
  N   N1        1.0  0.90754  0.24757999999999994  0.19217  1.0000
  N   N2        1.0  0.49166999999999994  0.66117  0.05599999999999999  1.0000
  N   N3        1.0  0.6531599999999994  0.7475399999999999  0.69186  1.0000
  N   N4        1.0  0.79177  0.16251  0.55611  1.0000
  N   N5        1.0  0.34684000000000004  0.25246  0.30813999999999997  1.0000
  N   N6        1.0  0.20822  0.83749  0.4438899999999999  1.0000
  N   N7        1.0  0.09246000000000006  0.75241  0.8078299999999999  1.0000
  N   N8        1.0  0.5083299999999998  0.33883000000000013  0.9439999999999997  1.0000
  O   O1        1.0  0.9521399999999998  0.22163000000000005  0.44563999999999987  1.0000
  O   O2        1.0  0.7391199999999999  0.32505000000000006  0.45242999999999994  1.0000
  O   O3        1.0  0.18774  0.87997  0.03074  1.0000
  O   O4        1.0  0.35377000000000003  0.87151  0.07359  1.0000
  O   O5        1.0  0.38251  0.7234100000000001  0.9474999999999998  1.0000
  O   O6        1.0  0.48071999999999987  0.8305400000000001  0.9519099999999998  1.0000
  O   O7        1.0  0.89963  0.38278  0.52878  1.0000
  O   O8        1.0  0.70556  0.36882  0.57566  1.0000
  O   O9        1.0  0.6174799999999999  0.27659  0.052499999999999984  1.0000
  O   O10       1.0  0.51928  0.16945  0.04809  1.0000
  O   O11       1.0  0.10035999999999995  0.6172200000000001  0.4712199999999999  1.0000
  O   O12       1.0  0.2944399999999998  0.63118  0.4243399999999999  1.0000
  O   O13       1.0  0.04785000000000003  0.77836  0.55436  1.0000
  O   O14       1.0  0.26088000000000006  0.67494  0.54757  1.0000
  O   O15       1.0  0.8122599999999999  0.12003000000000005  0.96926  1.0000
  O   O16       1.0  0.64623  0.12847999999999998  0.92641  1.0000
