data_image0
_chemical_formula_structural       Ca8H32C80N24O32
_chemical_formula_sum              "Ca8 H32 C80 N24 O32"
_cell_length_a       14.16905
_cell_length_b       15.60798
_cell_length_c       15.61189
_cell_angle_alpha    101.03428000000001
_cell_angle_beta     89.92373
_cell_angle_gamma    90.07494

_space_group_name_H-M_alt    "P 1"
_space_group_IT_number       1

loop_
  _space_group_symop_operation_xyz
  'x, y, z'

loop_
  _atom_site_type_symbol
  _atom_site_label
  _atom_site_symmetry_multiplicity
  _atom_site_fract_x
  _atom_site_fract_y
  _atom_site_fract_z
  _atom_site_occupancy
  Ca  Ca1       1.0  0.88746  0.05651  0.45736  1.0000
  Ca  Ca2       1.0  0.38678  0.4453199999999999  0.044349999999999994  1.0000
  Ca  Ca3       1.0  0.61327  0.04434  0.44535  1.0000
  Ca  Ca4       1.0  0.11258  0.45735  0.05651999999999999  1.0000
  Ca  Ca5       1.0  0.11254000000000003  0.9434799999999997  0.5426299999999997  1.0000
  Ca  Ca6       1.0  0.6132300000000003  0.5546799999999997  0.95565  1.0000
  Ca  Ca7       1.0  0.38673000000000013  0.95566  0.55465  1.0000
  Ca  Ca8       1.0  0.8874200000000002  0.5426399999999998  0.94348  1.0000
  H   H1        1.0  0.09817  0.19869  0.28941  1.0000
  H   H2        1.0  0.10108  0.30953  0.22214  1.0000
  H   H3        1.0  0.6122900000000001  0.11051  0.67248  1.0000
  H   H4        1.0  0.59648  0.30568  0.2166  1.0000
  H   H5        1.0  0.6013600000000001  0.19416999999999998  0.28469  1.0000
  H   H6        1.0  0.11143  0.38433999999999996  0.8325699999999998  1.0000
  H   H7        1.0  0.40355  0.21650999999999992  0.3055799999999999  1.0000
  H   H8        1.0  0.3986  0.2845699999999999  0.19419  1.0000
  H   H9        1.0  0.8885600000000002  0.8324999999999999  0.3843199999999999  1.0000
  H   H10       1.0  0.9018100000000002  0.28926  0.19867  1.0000
  H   H11       1.0  0.89887  0.2222  0.30962  1.0000
  H   H12       1.0  0.38773  0.67249  0.11052  1.0000
  H   H13       1.0  0.90183  0.8013100000000001  0.71059  1.0000
  H   H14       1.0  0.89892  0.69046  0.77785  1.0000
  H   H15       1.0  0.38773  0.88948  0.32751  1.0000
  H   H16       1.0  0.40352  0.69431  0.7834  1.0000
  H   H17       1.0  0.39865  0.8058299999999999  0.71531  1.0000
  H   H18       1.0  0.88859  0.6156699999999998  0.16743999999999995  1.0000
  H   H19       1.0  0.5964600000000002  0.7834899999999999  0.6944199999999998  1.0000
  H   H20       1.0  0.6014100000000002  0.71543  0.8058099999999998  1.0000
  H   H21       1.0  0.11143  0.16750999999999996  0.61569  1.0000
  H   H22       1.0  0.0982  0.7107399999999999  0.8013299999999998  1.0000
  H   H23       1.0  0.10113000000000003  0.7777999999999999  0.6903799999999998  1.0000
  H   H24       1.0  0.61226  0.3274899999999999  0.88948  1.0000
  H   H25       1.0  0.25129000000000007  0.05423  0.45037  1.0000
  H   H26       1.0  0.7487400000000002  0.4502299999999999  0.05412  1.0000
  H   H27       1.0  0.74871  0.94576  0.54963  1.0000
  H   H28       1.0  0.25126000000000004  0.54977  0.94587  1.0000
  H   H29       1.0  0.84913  0.28658  0.7135  1.0000
  H   H30       1.0  0.3494500000000001  0.20981  0.79016  1.0000
  H   H31       1.0  0.6505500000000002  0.79017  0.20982  1.0000
  H   H32       1.0  0.15087  0.7134299999999998  0.28652  1.0000
  C   C1        1.0  0.07243000000000002  0.09438999999999996  0.4014099999999999  1.0000
  C   C2        1.0  0.16582  0.18234999999999998  0.3145799999999999  1.0000
  C   C3        1.0  0.16586000000000006  0.1255  0.37388  1.0000
  C   C4        1.0  0.7829500000000003  0.1483  0.60223  1.0000
  C   C5        1.0  0.17337000000000002  0.31639  0.20241999999999993  1.0000
  C   C6        1.0  0.73504  0.19558  0.68254  1.0000
  C   C7        1.0  0.64687  0.16864999999999997  0.7086299999999998  1.0000
  C   C8        1.0  0.4825500000000001  0.20772999999999997  0.8984699999999998  1.0000
  C   C9        1.0  0.5703000000000003  0.4083199999999999  0.10220999999999998  1.0000
  C   C10       1.0  0.66395  0.32245  0.19112999999999994  1.0000
  C   C11       1.0  0.66363  0.3788499999999999  0.13131999999999994  1.0000
  C   C12       1.0  0.28244000000000014  0.34808  0.90274  1.0000
  C   C13       1.0  0.67396  0.18823000000000004  0.30366  1.0000
  C   C14       1.0  0.23475000000000004  0.2999199999999999  0.8223599999999998  1.0000
  C   C15       1.0  0.14636  0.32641  0.79638  1.0000
  C   C16       1.0  0.9843000000000002  0.28862999999999983  0.6053499999999998  1.0000
  C   C17       1.0  0.4297400000000001  0.10224999999999998  0.4083299999999999  1.0000
  C   C18       1.0  0.33607  0.19109999999999994  0.32240999999999986  1.0000
  C   C19       1.0  0.3364  0.13136  0.37888  1.0000
  C   C20       1.0  0.7175700000000003  0.9027399999999999  0.3480999999999999  1.0000
  C   C21       1.0  0.326  0.30358  0.18824  1.0000
  C   C22       1.0  0.76526  0.82236  0.2999099999999999  1.0000
  C   C23       1.0  0.8536300000000002  0.7963599999999997  0.32639  1.0000
  C   C24       1.0  0.015490000000000004  0.60519  0.2887299999999999  1.0000
  C   C25       1.0  0.92763  0.40136  0.09439999999999997  1.0000
  C   C26       1.0  0.83419  0.31449  0.18235  1.0000
  C   C27       1.0  0.8341800000000003  0.3737999999999999  0.12549  1.0000
  C   C28       1.0  0.21706  0.6021999999999998  0.14827999999999994  1.0000
  C   C29       1.0  0.8265900000000003  0.20244  0.31645999999999996  1.0000
  C   C30       1.0  0.26498  0.68252  0.19555999999999996  1.0000
  C   C31       1.0  0.35315000000000013  0.70864  0.16864999999999994  1.0000
  C   C32       1.0  0.51728  0.89862  0.20763  1.0000
  C   C33       1.0  0.92757  0.90561  0.59858  1.0000
  C   C34       1.0  0.8341800000000003  0.8176499999999998  0.6854199999999998  1.0000
  C   C35       1.0  0.83414  0.8745  0.62612  1.0000
  C   C36       1.0  0.21705000000000005  0.8516999999999998  0.39777  1.0000
  C   C37       1.0  0.82663  0.6836099999999999  0.7975799999999997  1.0000
  C   C38       1.0  0.26497  0.80443  0.31747  1.0000
  C   C39       1.0  0.35314  0.8313399999999997  0.29137  1.0000
  C   C40       1.0  0.51737  0.7923199999999998  0.10148  1.0000
  C   C41       1.0  0.4297100000000001  0.59167  0.8978  1.0000
  C   C42       1.0  0.3360500000000001  0.67754  0.8088699999999998  1.0000
  C   C43       1.0  0.33637000000000017  0.62115  0.8686799999999998  1.0000
  C   C44       1.0  0.7175700000000003  0.6519099999999998  0.09725999999999997  1.0000
  C   C45       1.0  0.32604  0.81177  0.69634  1.0000
  C   C46       1.0  0.76526  0.70007  0.17763999999999994  1.0000
  C   C47       1.0  0.8536400000000002  0.67359  0.20361999999999994  1.0000
  C   C48       1.0  0.01562  0.71132  0.3947  1.0000
  C   C49       1.0  0.5702600000000001  0.89776  0.5916699999999998  1.0000
  C   C50       1.0  0.66393  0.8089  0.67758  1.0000
  C   C51       1.0  0.6636  0.86864  0.62112  1.0000
  C   C52       1.0  0.28243  0.09726  0.65189  1.0000
  C   C53       1.0  0.6740000000000003  0.69641  0.81176  1.0000
  C   C54       1.0  0.23474  0.17763999999999994  0.70008  1.0000
  C   C55       1.0  0.14637000000000006  0.20364  0.67361  1.0000
  C   C56       1.0  0.98459  0.39486  0.71122  1.0000
  C   C57       1.0  0.07237000000000003  0.59864  0.9056  1.0000
  C   C58       1.0  0.16581  0.6855  0.81765  1.0000
  C   C59       1.0  0.16582  0.62619  0.87451  1.0000
  C   C60       1.0  0.78294  0.39779999999999993  0.8517299999999998  1.0000
  C   C61       1.0  0.17341000000000006  0.79755  0.68354  1.0000
  C   C62       1.0  0.7350100000000003  0.31748  0.80445  1.0000
  C   C63       1.0  0.6468500000000001  0.29135999999999995  0.8313499999999998  1.0000
  C   C64       1.0  0.4828  0.10133  0.79242  1.0000
  C   C65       1.0  0.25122  0.09935  0.4055099999999999  1.0000
  C   C66       1.0  0.25075  0.21577  0.28969  1.0000
  C   C67       1.0  0.74883  0.4054299999999999  0.09931  1.0000
  C   C68       1.0  0.7492300000000002  0.28967  0.21578999999999995  1.0000
  C   C69       1.0  0.74878  0.90064  0.5944899999999997  1.0000
  C   C70       1.0  0.74925  0.78423  0.71031  1.0000
  C   C71       1.0  0.25117000000000006  0.59457  0.90068  1.0000
  C   C72       1.0  0.25077  0.7103199999999997  0.78421  1.0000
  C   C73       1.0  0.77995  0.26785  0.7321999999999999  1.0000
  C   C74       1.0  0.60537  0.21532  0.78468  1.0000
  C   C75       1.0  0.27982  0.2278699999999999  0.7721  1.0000
  C   C76       1.0  0.10509  0.2798  0.7202099999999998  1.0000
  C   C77       1.0  0.72018  0.7721199999999998  0.22789  1.0000
  C   C78       1.0  0.89491  0.72019  0.27978  1.0000
  C   C79       1.0  0.22005000000000005  0.73216  0.26782  1.0000
  C   C80       1.0  0.39463  0.7846899999999998  0.21532  1.0000
  N   N1        1.0  0.20080000000000003  0.36597  0.14756  1.0000
  N   N2        1.0  0.4092900000000001  0.15447999999999995  0.9137999999999997  1.0000
  N   N3        1.0  0.7025500000000001  0.13875999999999994  0.3581  1.0000
  N   N4        1.0  0.91236  0.34261  0.58907  1.0000
  N   N5        1.0  0.29744  0.35799  0.13872  1.0000
  N   N6        1.0  0.08751000000000003  0.58896  0.34266999999999986  1.0000
  N   N7        1.0  0.7991900000000002  0.14762  0.36607  1.0000
  N   N8        1.0  0.59062  0.9138999999999999  0.15444  1.0000
  N   N9        1.0  0.7992000000000001  0.63403  0.85244  1.0000
  N   N10       1.0  0.5906800000000001  0.8455599999999998  0.08619  1.0000
  N   N11       1.0  0.2974500000000001  0.86124  0.6419  1.0000
  N   N12       1.0  0.08759  0.65734  0.41095  1.0000
  N   N13       1.0  0.70256  0.6420099999999997  0.86128  1.0000
  N   N14       1.0  0.9125400000000002  0.41104  0.65728  1.0000
  N   N15       1.0  0.20081000000000004  0.8523799999999998  0.6339199999999998  1.0000
  N   N16       1.0  0.40942000000000006  0.0861  0.84561  1.0000
  N   N17       1.0  0.2501  0.27523  0.23026  1.0000
  N   N18       1.0  0.7498700000000003  0.23024999999999998  0.2752699999999999  1.0000
  N   N19       1.0  0.7499  0.72477  0.76974  1.0000
  N   N20       1.0  0.25014  0.76975  0.7247299999999998  1.0000
  N   N21       1.0  0.5196800000000001  0.18394999999999995  0.8160599999999998  1.0000
  N   N22       1.0  0.020300000000000002  0.31184  0.68815  1.0000
  N   N23       1.0  0.9797000000000002  0.6881399999999998  0.31184  1.0000
  N   N24       1.0  0.48032  0.8160699999999997  0.18397  1.0000
  O   O1        1.0  0.7332800000000003  0.09952999999999994  0.54357  1.0000
  O   O2        1.0  0.8720100000000002  0.15541  0.59291  1.0000
  O   O3        1.0  0.9986500000000001  0.11303999999999997  0.36314999999999986  1.0000
  O   O4        1.0  0.06840000000000002  0.05135999999999998  0.46383  1.0000
  O   O5        1.0  0.23286  0.39808999999999994  0.9606199999999998  1.0000
  O   O6        1.0  0.37143  0.34121  0.91279  1.0000
  O   O7        1.0  0.49575  0.38912999999999986  0.13935  1.0000
  O   O8        1.0  0.5672200000000001  0.45056  0.03912  1.0000
  O   O9        1.0  0.76715  0.9606499999999998  0.3980799999999999  1.0000
  O   O10       1.0  0.6285900000000001  0.9127799999999998  0.34125999999999995  1.0000
  O   O11       1.0  0.50429  0.13937  0.38911  1.0000
  O   O12       1.0  0.4328  0.03918  0.4506  1.0000
  O   O13       1.0  0.26672000000000007  0.5434899999999998  0.09952999999999997  1.0000
  O   O14       1.0  0.12802  0.59292  0.15541  1.0000
  O   O15       1.0  0.0014000000000000004  0.36312  0.1131  1.0000
  O   O16       1.0  0.9316700000000001  0.4637599999999999  0.05134  1.0000
  O   O17       1.0  0.26672000000000007  0.9004599999999998  0.45645  1.0000
  O   O18       1.0  0.128  0.8445899999999997  0.4070799999999999  1.0000
  O   O19       1.0  0.0013500000000000003  0.88695  0.63684  1.0000
  O   O20       1.0  0.9315900000000003  0.9486399999999998  0.53617  1.0000
  O   O21       1.0  0.76715  0.60191  0.03937  1.0000
  O   O22       1.0  0.6285800000000002  0.6587699999999999  0.08722  1.0000
  O   O23       1.0  0.5042500000000001  0.61086  0.8606499999999998  1.0000
  O   O24       1.0  0.4327800000000001  0.54944  0.96089  1.0000
  O   O25       1.0  0.23285  0.03934  0.60191  1.0000
  O   O26       1.0  0.3714  0.08722000000000002  0.65873  1.0000
  O   O27       1.0  0.49572  0.8606299999999997  0.6108799999999998  1.0000
  O   O28       1.0  0.5672100000000002  0.9608299999999997  0.5494099999999997  1.0000
  O   O29       1.0  0.7332800000000003  0.45652999999999994  0.90046  1.0000
  O   O30       1.0  0.87198  0.40707  0.8445999999999999  1.0000
  O   O31       1.0  0.9986  0.6368799999999998  0.8869  1.0000
  O   O32       1.0  0.06833  0.53624  0.94866  1.0000
