data_image0
_chemical_formula_structural       Al4Cu4H64C112N16O16
_chemical_formula_sum              "Al4 Cu4 H64 C112 N16 O16"
_cell_length_a       12.62693
_cell_length_b       14.68672
_cell_length_c       16.63503
_cell_angle_alpha    90.01473000000001
_cell_angle_beta     93.30607
_cell_angle_gamma    90.01544

_symmetry_space_group_name_H-M    'P 1'
_symmetry_Int_Tables_number       1

loop_
  _symmetry_equiv_pos_as_xyz
  'x,y,z'

loop_
  _atom_site_type_symbol
  _atom_site_label
  _atom_site_symmetry_multiplicity
  _atom_site_fract_x
  _atom_site_fract_y
  _atom_site_fract_z
  _atom_site_occupancy
  Al  Al1       1.0  0.52084  0.5178399999999997  0.25086  1.0000
  Al  Al2       1.0  0.5208  0.9823  0.75082  1.0000
  Al  Al3       1.0  0.47921  0.0177  0.24919000000000002  1.0000
  Al  Al4       1.0  0.47917  0.48216  0.74914  1.0000
  Cu  Cu1       1.0  0.97321  0.47912  0.77312  1.0000
  Cu  Cu2       1.0  0.9734  0.020879999999999992  0.27304  1.0000
  Cu  Cu3       1.0  0.026600000000000002  0.9791199999999998  0.72696  1.0000
  Cu  Cu4       1.0  0.0268  0.5208799999999999  0.22688  1.0000
  H   H1        1.0  0.55297  0.4754099999999999  0.43465  1.0000
  H   H2        1.0  0.65091  0.4522299999999999  0.56697  1.0000
  H   H3        1.0  0.9311200000000001  0.57153  0.47234  1.0000
  H   H4        1.0  0.83237  0.59304  0.34027  1.0000
  H   H5        1.0  0.31719  0.4238299999999999  0.18213  1.0000
  H   H6        1.0  0.17066000000000006  0.31078  0.17221  1.0000
  H   H7        1.0  0.2564  0.22030999999999995  0.4147  1.0000
  H   H8        1.0  0.39903  0.33753  0.42527  1.0000
  H   H9        1.0  0.29615  0.58108  0.30022  1.0000
  H   H10       1.0  0.1496  0.68885  0.32305  1.0000
  H   H11       1.0  0.29585  0.8871199999999999  0.17316  1.0000
  H   H12       1.0  0.44551  0.77979  0.15475000000000005  1.0000
  H   H13       1.0  0.8635700000000001  0.54433  0.06921  1.0000
  H   H14       1.0  0.7380400000000001  0.5372599999999998  0.17833  1.0000
  H   H15       1.0  0.64017  0.3936199999999999  0.9133  1.0000
  H   H16       1.0  0.51677  0.38539  0.02392  1.0000
  H   H17       1.0  0.55297  0.024659999999999994  0.93461  1.0000
  H   H18       1.0  0.65085  0.04790999999999999  0.06697  1.0000
  H   H19       1.0  0.93099  0.9284999999999998  0.9723900000000001  1.0000
  H   H20       1.0  0.8323  0.9069499999999998  0.8403  1.0000
  H   H21       1.0  0.31769  0.07659999999999999  0.68218  1.0000
  H   H22       1.0  0.17056000000000002  0.18897999999999995  0.6722700000000003  1.0000
  H   H23       1.0  0.25574  0.27977  0.9147000000000002  1.0000
  H   H24       1.0  0.39898  0.16326  0.92537  1.0000
  H   H25       1.0  0.29583000000000004  0.9192  0.8003700000000002  1.0000
  H   H26       1.0  0.14949  0.8111299999999998  0.82311  1.0000
  H   H27       1.0  0.29606  0.6130999999999998  0.67316  1.0000
  H   H28       1.0  0.44554  0.72062  0.65489  1.0000
  H   H29       1.0  0.8637  0.9557099999999997  0.56907  1.0000
  H   H30       1.0  0.73808  0.9627  0.67815  1.0000
  H   H31       1.0  0.64053  0.10642  0.41317  1.0000
  H   H32       1.0  0.517  0.11453999999999998  0.52375  1.0000
  H   H33       1.0  0.44703  0.9753399999999998  0.06539  1.0000
  H   H34       1.0  0.34916  0.95209  0.93303  1.0000
  H   H35       1.0  0.06901  0.0715  0.02761  1.0000
  H   H36       1.0  0.1677  0.09305  0.1597  1.0000
  H   H37       1.0  0.68231  0.9233999999999998  0.31782  1.0000
  H   H38       1.0  0.82944  0.81102  0.32773  1.0000
  H   H39       1.0  0.7442600000000001  0.7202299999999998  0.0853  1.0000
  H   H40       1.0  0.60103  0.83674  0.07463000000000003  1.0000
  H   H41       1.0  0.7041700000000001  0.08079999999999997  0.19963  1.0000
  H   H42       1.0  0.85051  0.18887  0.17689  1.0000
  H   H43       1.0  0.70394  0.3869  0.32684  1.0000
  H   H44       1.0  0.5544700000000001  0.27937  0.3451100000000001  1.0000
  H   H45       1.0  0.13631  0.04429  0.43093  1.0000
  H   H46       1.0  0.26192000000000004  0.0373  0.32185000000000014  1.0000
  H   H47       1.0  0.35947  0.89358  0.58683  1.0000
  H   H48       1.0  0.483  0.88546  0.4762500000000001  1.0000
  H   H49       1.0  0.44704000000000005  0.52459  0.56535  1.0000
  H   H50       1.0  0.34909  0.54776  0.43303  1.0000
  H   H51       1.0  0.06888000000000002  0.42847  0.52766  1.0000
  H   H52       1.0  0.16763  0.40694999999999987  0.65973  1.0000
  H   H53       1.0  0.68282  0.5761699999999997  0.81787  1.0000
  H   H54       1.0  0.8293400000000001  0.6892199999999998  0.82779  1.0000
  H   H55       1.0  0.7436  0.7796899999999998  0.58531  1.0000
  H   H56       1.0  0.60097  0.66246  0.57473  1.0000
  H   H57       1.0  0.7038500000000001  0.4189199999999999  0.69978  1.0000
  H   H58       1.0  0.85041  0.31114999999999987  0.67695  1.0000
  H   H59       1.0  0.70415  0.11287999999999997  0.82684  1.0000
  H   H60       1.0  0.55449  0.22021  0.84525  1.0000
  H   H61       1.0  0.13643  0.4556699999999999  0.9307900000000002  1.0000
  H   H62       1.0  0.26196  0.46274  0.82167  1.0000
  H   H63       1.0  0.35983000000000004  0.60638  0.0867  1.0000
  H   H64       1.0  0.48322999999999994  0.61461  0.9760899999999999  1.0000
  C   C1        1.0  0.68556  0.53784  0.37934  1.0000
  C   C2        1.0  0.6351200000000001  0.4971299999999999  0.4441200000000001  1.0000
  C   C3        1.0  0.6904500000000001  0.48332999999999987  0.51752  1.0000
  C   C4        1.0  0.7976200000000001  0.5104599999999999  0.5288  1.0000
  C   C5        1.0  0.8484200000000001  0.5508999999999997  0.4642600000000001  1.0000
  C   C6        1.0  0.79324  0.56398  0.39079  1.0000
  C   C7        1.0  0.85291  0.4982499999999999  0.6041600000000003  1.0000
  C   C8        1.0  0.36756  0.3881199999999999  0.3045  1.0000
  C   C9        1.0  0.30288  0.3796599999999999  0.23284  1.0000
  C   C10       1.0  0.22149000000000002  0.3161199999999999  0.22709  1.0000
  C   C11       1.0  0.20374  0.25824  0.29281  1.0000
  C   C12       1.0  0.26904  0.26572  0.36446  1.0000
  C   C13       1.0  0.3492100000000001  0.3301899999999999  0.3701  1.0000
  C   C14       1.0  0.12309000000000002  0.19155999999999995  0.28664  1.0000
  C   C15       1.0  0.38165000000000004  0.67467  0.22806000000000007  1.0000
  C   C16       1.0  0.29697  0.6492599999999997  0.2750400000000001  1.0000
  C   C17       1.0  0.21466000000000002  0.7092999999999998  0.28707  1.0000
  C   C18       1.0  0.21451000000000003  0.7963199999999998  0.25122  1.0000
  C   C19       1.0  0.29765  0.8210099999999998  0.20228  1.0000
  C   C20       1.0  0.38024  0.7612899999999999  0.19129  1.0000
  C   C21       1.0  0.13346  0.8600499999999998  0.26352  1.0000
  C   C22       1.0  0.61883  0.4609199999999999  0.10822  1.0000
  C   C23       1.0  0.78713  0.51077  0.05878  1.0000
  C   C24       1.0  0.71719  0.50657  0.12002  1.0000
  C   C25       1.0  0.7601400000000003  0.47002  0.98336  1.0000
  C   C26       1.0  0.6618  0.4243999999999999  0.97126  1.0000
  C   C27       1.0  0.59281  0.41974  0.03284  1.0000
  C   C28       1.0  0.8295900000000003  0.4747299999999999  0.91991  1.0000
  C   C29       1.0  0.6855100000000001  0.96219  0.8793100000000003  1.0000
  C   C30       1.0  0.63509  0.002899999999999999  0.9441  1.0000
  C   C31       1.0  0.6903700000000002  0.016749999999999998  0.01753  1.0000
  C   C32       1.0  0.79752  0.9895999999999998  0.02885  1.0000
  C   C33       1.0  0.84829  0.9491099999999998  0.96431  1.0000
  C   C34       1.0  0.7931400000000001  0.9360099999999998  0.8908100000000002  1.0000
  C   C35       1.0  0.8528800000000002  0.0018199999999999996  0.10418000000000002  1.0000
  C   C36       1.0  0.3675800000000001  0.11214999999999997  0.80461  1.0000
  C   C37       1.0  0.30309  0.12072  0.73288  1.0000
  C   C38       1.0  0.22145  0.18397  0.72711  1.0000
  C   C39       1.0  0.20335000000000003  0.24171  0.79285  1.0000
  C   C40       1.0  0.26875  0.23447999999999994  0.86445  1.0000
  C   C41       1.0  0.3492100000000001  0.17027  0.8701300000000002  1.0000
  C   C42       1.0  0.12257  0.3082499999999999  0.78666  1.0000
  C   C43       1.0  0.38153  0.8256099999999997  0.72814  1.0000
  C   C44       1.0  0.2968300000000001  0.8510199999999999  0.7751200000000001  1.0000
  C   C45       1.0  0.2146  0.79082  0.7871300000000002  1.0000
  C   C46       1.0  0.2145  0.7038  0.75124  1.0000
  C   C47       1.0  0.29768  0.6791799999999998  0.70233  1.0000
  C   C48       1.0  0.38016  0.7389899999999998  0.6913800000000001  1.0000
  C   C49       1.0  0.13347  0.63998  0.76349  1.0000
  C   C50       1.0  0.61895  0.03907  0.60809  1.0000
  C   C51       1.0  0.78726  0.98924  0.55865  1.0000
  C   C52       1.0  0.71727  0.9934099999999998  0.6198600000000002  1.0000
  C   C53       1.0  0.7603500000000001  0.029989999999999992  0.48325  1.0000
  C   C54       1.0  0.66204  0.0756  0.47113  1.0000
  C   C55       1.0  0.59301  0.08022  0.5326900000000001  1.0000
  C   C56       1.0  0.82982  0.025289999999999993  0.4198  1.0000
  C   C57       1.0  0.3145  0.03781  0.12069  1.0000
  C   C58       1.0  0.36491  0.9970899999999998  0.0559  1.0000
  C   C59       1.0  0.30963  0.98325  0.9824700000000001  1.0000
  C   C60       1.0  0.20249  0.010399999999999998  0.9711499999999998  1.0000
  C   C61       1.0  0.15171  0.05089  0.03569  1.0000
  C   C62       1.0  0.20686000000000002  0.06399  0.10919  1.0000
  C   C63       1.0  0.14713  0.9981799999999998  0.8958200000000002  1.0000
  C   C64       1.0  0.63242  0.88785  0.19539  1.0000
  C   C65       1.0  0.6969100000000003  0.8792699999999998  0.26713  1.0000
  C   C66       1.0  0.77855  0.81603  0.27289  1.0000
  C   C67       1.0  0.79666  0.75829  0.20715  1.0000
  C   C68       1.0  0.73125  0.76552  0.13555  1.0000
  C   C69       1.0  0.6508  0.82973  0.12987  1.0000
  C   C70       1.0  0.8774400000000001  0.69175  0.21334000000000006  1.0000
  C   C71       1.0  0.61847  0.17439  0.27186  1.0000
  C   C72       1.0  0.70318  0.14897999999999995  0.22488  1.0000
  C   C73       1.0  0.7854000000000001  0.20917999999999995  0.21287000000000006  1.0000
  C   C74       1.0  0.78551  0.2962  0.24876000000000004  1.0000
  C   C75       1.0  0.70233  0.32081999999999994  0.29767  1.0000
  C   C76       1.0  0.61984  0.26101  0.3086200000000001  1.0000
  C   C77       1.0  0.8665400000000001  0.36001  0.23651  1.0000
  C   C78       1.0  0.38106  0.9609299999999997  0.39191  1.0000
  C   C79       1.0  0.21275  0.010759999999999997  0.44135  1.0000
  C   C80       1.0  0.28274  0.00659  0.38014  1.0000
  C   C81       1.0  0.23965000000000003  0.9700099999999998  0.51675  1.0000
  C   C82       1.0  0.33796  0.9244  0.52887  1.0000
  C   C83       1.0  0.4069900000000001  0.91978  0.4673100000000001  1.0000
  C   C84       1.0  0.17018000000000003  0.97471  0.5802  1.0000
  C   C85       1.0  0.31444  0.4621599999999999  0.62066  1.0000
  C   C86       1.0  0.3648800000000001  0.50287  0.5558800000000002  1.0000
  C   C87       1.0  0.30956  0.51667  0.4824800000000001  1.0000
  C   C88       1.0  0.20238  0.48954  0.4712  1.0000
  C   C89       1.0  0.15159  0.4491  0.53574  1.0000
  C   C90       1.0  0.20677000000000004  0.43602  0.60921  1.0000
  C   C91       1.0  0.1471  0.50175  0.39584  1.0000
  C   C92       1.0  0.63244  0.6118799999999998  0.6955  1.0000
  C   C93       1.0  0.6971200000000001  0.62034  0.76716  1.0000
  C   C94       1.0  0.77851  0.68388  0.77291  1.0000
  C   C95       1.0  0.79626  0.7417599999999998  0.70719  1.0000
  C   C96       1.0  0.73096  0.7342799999999998  0.63554  1.0000
  C   C97       1.0  0.65079  0.6698099999999998  0.62991  1.0000
  C   C98       1.0  0.87692  0.80844  0.7133600000000002  1.0000
  C   C99       1.0  0.61835  0.3253299999999999  0.7719400000000002  1.0000
  C   C100      1.0  0.7030400000000001  0.35073999999999994  0.72496  1.0000
  C   C101      1.0  0.7853400000000003  0.2907  0.71293  1.0000
  C   C102      1.0  0.78549  0.20368  0.74878  1.0000
  C   C103      1.0  0.70235  0.17898999999999995  0.79772  1.0000
  C   C104      1.0  0.61977  0.23870999999999995  0.80871  1.0000
  C   C105      1.0  0.8665500000000003  0.13994  0.73648  1.0000
  C   C106      1.0  0.38117  0.53908  0.89178  1.0000
  C   C107      1.0  0.21288000000000004  0.4892299999999999  0.94122  1.0000
  C   C108      1.0  0.28282  0.49342999999999987  0.87998  1.0000
  C   C109      1.0  0.23987  0.5299799999999998  0.016640000000000005  1.0000
  C   C110      1.0  0.33821  0.5756  0.02874  1.0000
  C   C111      1.0  0.4072000000000001  0.58026  0.96716  1.0000
  C   C112      1.0  0.17041000000000003  0.52527  0.08009  1.0000
  N   N1        1.0  0.8847  0.4790599999999999  0.8657200000000003  1.0000
  N   N2        1.0  0.05841  0.13423  0.28104  1.0000
  N   N3        1.0  0.06938  0.91602  0.27302  1.0000
  N   N4        1.0  0.8977300000000001  0.48726999999999987  0.66702  1.0000
  N   N5        1.0  0.8849100000000001  0.02098  0.3656  1.0000
  N   N6        1.0  0.058010000000000006  0.36565  0.78105  1.0000
  N   N7        1.0  0.06942  0.58399  0.773  1.0000
  N   N8        1.0  0.89785  0.012769999999999997  0.16700000000000007  1.0000
  N   N9        1.0  0.11510000000000002  0.9790199999999998  0.6344000000000002  1.0000
  N   N10       1.0  0.9419900000000002  0.6343499999999997  0.21895  1.0000
  N   N11       1.0  0.93059  0.41601  0.22700000000000004  1.0000
  N   N12       1.0  0.10215000000000002  0.98723  0.8330000000000002  1.0000
  N   N13       1.0  0.11531000000000002  0.52094  0.13428  1.0000
  N   N14       1.0  0.94159  0.86577  0.71896  1.0000
  N   N15       1.0  0.93062  0.08398  0.72698  1.0000
  N   N16       1.0  0.10227000000000001  0.51273  0.3329800000000001  1.0000
  O   O1        1.0  0.63644  0.55087  0.30732  1.0000
  O   O2        1.0  0.4449  0.4502099999999999  0.31356000000000006  1.0000
  O   O3        1.0  0.46114000000000005  0.6182199999999998  0.21416  1.0000
  O   O4        1.0  0.5501  0.4541599999999999  0.16594000000000006  1.0000
  O   O5        1.0  0.63644  0.94928  0.80722  1.0000
  O   O6        1.0  0.4446  0.04974999999999999  0.81363  1.0000
  O   O7        1.0  0.46121  0.8818499999999998  0.71416  1.0000
  O   O8        1.0  0.55021  0.045889999999999986  0.66583  1.0000
  O   O9        1.0  0.36356  0.05071999999999999  0.19278  1.0000
  O   O10       1.0  0.5554  0.95024  0.18637000000000006  1.0000
  O   O11       1.0  0.53879  0.11815  0.28584  1.0000
  O   O12       1.0  0.4497999999999999  0.9541099999999998  0.33417  1.0000
  O   O13       1.0  0.36356  0.44912999999999986  0.69268  1.0000
  O   O14       1.0  0.55511  0.54979  0.6864400000000002  1.0000
  O   O15       1.0  0.53886  0.3817799999999999  0.78584  1.0000
  O   O16       1.0  0.44990000000000013  0.54584  0.83406  1.0000
