data_image0
_chemical_formula_structural       Sr8Cd4H32C64N8O56
_chemical_formula_sum              "Sr8 Cd4 H32 C64 N8 O56"
_cell_length_a       13.2257
_cell_length_b       17.75874
_cell_length_c       17.75878
_cell_angle_alpha    90.26007
_cell_angle_beta     90.0
_cell_angle_gamma    90.0

_symmetry_space_group_name_H-M    'P 1'
_symmetry_Int_Tables_number       1

loop_
  _symmetry_equiv_pos_as_xyz
  'x,y,z'

loop_
  _atom_site_type_symbol
  _atom_site_label
  _atom_site_symmetry_multiplicity
  _atom_site_fract_x
  _atom_site_fract_y
  _atom_site_fract_z
  _atom_site_occupancy
  Sr  Sr1       1.0  0.05658  0.85416  0.60873  1.0000
  Sr  Sr2       1.0  0.55658  0.14584  0.39127  1.0000
  Sr  Sr3       1.0  0.30786  0.891  0.35407  1.0000
  Sr  Sr4       1.0  0.80786  0.10900000000000003  0.64593  1.0000
  Sr  Sr5       1.0  0.19214  0.64593  0.109  1.0000
  Sr  Sr6       1.0  0.69214  0.35406000000000004  0.89099  1.0000
  Sr  Sr7       1.0  0.94342  0.60873  0.8541599999999999  1.0000
  Sr  Sr8       1.0  0.44342000000000004  0.39127  0.14584  1.0000
  Cd  Cd1       1.0  0.0  0.66183  0.6618299999999999  1.0000
  Cd  Cd2       1.0  0.5  0.33817  0.33817  1.0000
  Cd  Cd3       1.0  0.25  0.83833  0.16167  1.0000
  Cd  Cd4       1.0  0.75  0.16167  0.83833  1.0000
  H   H1        1.0  0.82981  0.61595  0.4239  1.0000
  H   H2        1.0  0.8223400000000002  0.61417  0.28251  1.0000
  H   H3        1.0  0.95231  0.6834  0.20898  1.0000
  H   H4        1.0  0.08484  0.76453  0.41539  1.0000
  H   H5        1.0  0.32981  0.38405  0.5761  1.0000
  H   H6        1.0  0.32234  0.3858300000000001  0.71749  1.0000
  H   H7        1.0  0.45231  0.3166  0.7910199999999998  1.0000
  H   H8        1.0  0.58485  0.23547  0.58461  1.0000
  H   H9        1.0  0.07785000000000002  0.07628  0.11561000000000002  1.0000
  H   H10       1.0  0.07265  0.21762000000000004  0.11285999999999999  1.0000
  H   H11       1.0  0.20361  0.29106  0.18187  1.0000
  H   H12       1.0  0.33195  0.08483000000000003  0.26517  1.0000
  H   H13       1.0  0.57785  0.9237200000000001  0.88439  1.0000
  H   H14       1.0  0.57265  0.78238  0.88714  1.0000
  H   H15       1.0  0.70361  0.7089400000000002  0.81813  1.0000
  H   H16       1.0  0.83195  0.91517  0.73483  1.0000
  H   H17       1.0  0.42215  0.88439  0.92372  1.0000
  H   H18       1.0  0.42735  0.88714  0.78238  1.0000
  H   H19       1.0  0.29639  0.81813  0.70894  1.0000
  H   H20       1.0  0.16805  0.73483  0.91517  1.0000
  H   H21       1.0  0.9221500000000001  0.11561  0.07628  1.0000
  H   H22       1.0  0.9273500000000001  0.11286  0.21762  1.0000
  H   H23       1.0  0.79639  0.18187  0.29106  1.0000
  H   H24       1.0  0.66805  0.26517  0.08483  1.0000
  H   H25       1.0  0.17019  0.4239  0.61595  1.0000
  H   H26       1.0  0.17766  0.28251  0.61417  1.0000
  H   H27       1.0  0.04769000000000001  0.20898  0.6834  1.0000
  H   H28       1.0  0.91516  0.41539  0.76453  1.0000
  H   H29       1.0  0.6701900000000001  0.5761  0.38405  1.0000
  H   H30       1.0  0.67766  0.71749  0.38583  1.0000
  H   H31       1.0  0.5477  0.79102  0.3166  1.0000
  H   H32       1.0  0.41516  0.5846100000000002  0.23546999999999998  1.0000
  C   C1        1.0  0.96544  0.69008  0.51118  1.0000
  C   C2        1.0  0.10812  0.76816  0.26564  1.0000
  C   C3        1.0  0.95701  0.6907000000000001  0.42768  1.0000
  C   C4        1.0  0.88329  0.64789  0.39023  1.0000
  C   C5        1.0  0.88037  0.6464200000000002  0.31165  1.0000
  C   C6        1.0  0.9529400000000001  0.68558  0.27018  1.0000
  C   C7        1.0  0.0272  0.72811  0.30763  1.0000
  C   C8        1.0  0.02767  0.73163  0.38622  1.0000
  C   C9        1.0  0.4654400000000001  0.30992  0.4888199999999999  1.0000
  C   C10       1.0  0.60812  0.23184  0.73436  1.0000
  C   C11       1.0  0.4570100000000001  0.30930000000000013  0.57232  1.0000
  C   C12       1.0  0.38329  0.3521  0.60977  1.0000
  C   C13       1.0  0.38037  0.35358  0.68835  1.0000
  C   C14       1.0  0.45294  0.31442000000000003  0.72982  1.0000
  C   C15       1.0  0.5272  0.27189  0.69237  1.0000
  C   C16       1.0  0.52767  0.26837  0.61378  1.0000
  C   C17       1.0  0.21108  0.9888600000000001  0.1915  1.0000
  C   C18       1.0  0.35798  0.23404000000000003  0.26802  1.0000
  C   C19       1.0  0.20419  0.07244  0.19117  1.0000
  C   C20       1.0  0.13171  0.10989000000000003  0.14754  1.0000
  C   C21       1.0  0.1302  0.18847000000000005  0.14539  1.0000
  C   C22       1.0  0.20335000000000006  0.22989  0.18444  1.0000
  C   C23       1.0  0.27672  0.19243  0.22751999999999997  1.0000
  C   C24       1.0  0.27554  0.11393000000000002  0.23178  1.0000
  C   C25       1.0  0.71108  0.01114  0.8085  1.0000
  C   C26       1.0  0.8579800000000001  0.76596  0.73198  1.0000
  C   C27       1.0  0.70419  0.92755  0.80883  1.0000
  C   C28       1.0  0.63171  0.89011  0.85246  1.0000
  C   C29       1.0  0.6302000000000002  0.81153  0.85461  1.0000
  C   C30       1.0  0.7033500000000001  0.77011  0.81556  1.0000
  C   C31       1.0  0.77672  0.8075700000000002  0.77248  1.0000
  C   C32       1.0  0.77554  0.88607  0.76822  1.0000
  C   C33       1.0  0.28892  0.8085  0.01114  1.0000
  C   C34       1.0  0.14202  0.73198  0.76596  1.0000
  C   C35       1.0  0.29581  0.8088300000000003  0.92755  1.0000
  C   C36       1.0  0.36829  0.8524600000000002  0.89011  1.0000
  C   C37       1.0  0.36981  0.85461  0.81153  1.0000
  C   C38       1.0  0.29665  0.81556  0.77011  1.0000
  C   C39       1.0  0.22328000000000003  0.77248  0.80757  1.0000
  C   C40       1.0  0.22446  0.7682200000000001  0.88607  1.0000
  C   C41       1.0  0.7889200000000001  0.19150000000000006  0.98886  1.0000
  C   C42       1.0  0.64202  0.26802  0.23404  1.0000
  C   C43       1.0  0.7958100000000002  0.19117  0.07245  1.0000
  C   C44       1.0  0.86829  0.14754000000000003  0.10989  1.0000
  C   C45       1.0  0.8698100000000001  0.14539  0.18847  1.0000
  C   C46       1.0  0.79666  0.18444  0.22988999999999998  1.0000
  C   C47       1.0  0.72328  0.22752  0.19243  1.0000
  C   C48       1.0  0.72447  0.23178  0.11393  1.0000
  C   C49       1.0  0.03456  0.5111800000000001  0.69008  1.0000
  C   C50       1.0  0.8918800000000002  0.2656400000000001  0.76816  1.0000
  C   C51       1.0  0.04299  0.42768  0.6907  1.0000
  C   C52       1.0  0.11671  0.39023  0.64789  1.0000
  C   C53       1.0  0.11963  0.31165  0.64642  1.0000
  C   C54       1.0  0.04706  0.27018  0.68558  1.0000
  C   C55       1.0  0.9728  0.30763000000000007  0.72811  1.0000
  C   C56       1.0  0.9723300000000001  0.38622  0.73163  1.0000
  C   C57       1.0  0.53457  0.48882000000000003  0.30992  1.0000
  C   C58       1.0  0.39188000000000006  0.73436  0.23184  1.0000
  C   C59       1.0  0.54299  0.57232  0.3093  1.0000
  C   C60       1.0  0.61671  0.60977  0.35211  1.0000
  C   C61       1.0  0.61963  0.68835  0.35358  1.0000
  C   C62       1.0  0.54706  0.72982  0.31442  1.0000
  C   C63       1.0  0.4728  0.6923700000000002  0.27189  1.0000
  C   C64       1.0  0.47233  0.61378  0.26837  1.0000
  N   N1        1.0  0.2588  0.89436  0.52849  1.0000
  N   N2        1.0  0.7588  0.10564  0.47151  1.0000
  N   N3        1.0  0.51122  0.9697800000000001  0.39545  1.0000
  N   N4        1.0  0.01122  0.030220000000000004  0.60455  1.0000
  N   N5        1.0  0.98878  0.6045500000000001  0.03022  1.0000
  N   N6        1.0  0.48878  0.39545000000000013  0.9697800000000001  1.0000
  N   N7        1.0  0.7412  0.52849  0.89436  1.0000
  N   N8        1.0  0.2412  0.47151  0.10564  1.0000
  O   O1        1.0  0.91379  0.64376  0.5493  1.0000
  O   O2        1.0  0.029700000000000004  0.73552  0.54199  1.0000
  O   O3        1.0  0.12198  0.75042  0.19574  1.0000
  O   O4        1.0  0.16125  0.81763  0.29906  1.0000
  O   O5        1.0  0.24742  0.8899300000000002  0.59887  1.0000
  O   O6        1.0  0.18690000000000004  0.8713400000000002  0.48444  1.0000
  O   O7        1.0  0.33847000000000005  0.9203300000000001  0.49982000000000004  1.0000
  O   O8        1.0  0.41379000000000005  0.35624  0.4507  1.0000
  O   O9        1.0  0.52971  0.2644800000000001  0.4580099999999999  1.0000
  O   O10       1.0  0.6219800000000001  0.24958  0.80426  1.0000
  O   O11       1.0  0.6612500000000002  0.18237  0.70094  1.0000
  O   O12       1.0  0.7474200000000001  0.11007  0.40113  1.0000
  O   O13       1.0  0.6869  0.12865  0.51556  1.0000
  O   O14       1.0  0.8384700000000003  0.07967  0.50018  1.0000
  O   O15       1.0  0.16155000000000005  0.95051  0.14377  1.0000
  O   O16       1.0  0.27265  0.95828  0.23879999999999998  1.0000
  O   O17       1.0  0.3739300000000001  0.3034  0.24997  1.0000
  O   O18       1.0  0.40931  0.20073000000000005  0.31832  1.0000
  O   O19       1.0  0.50014  0.89924  0.39317  1.0000
  O   O20       1.0  0.43888  0.01259  0.37115  1.0000
  O   O21       1.0  0.59059  0.00012000000000000002  0.42031  1.0000
  O   O22       1.0  0.6615500000000002  0.04949  0.85623  1.0000
  O   O23       1.0  0.77265  0.04172  0.7612  1.0000
  O   O24       1.0  0.87393  0.6966  0.75002  1.0000
  O   O25       1.0  0.90931  0.79927  0.68168  1.0000
  O   O26       1.0  0.00014  0.10076  0.60683  1.0000
  O   O27       1.0  0.9388800000000002  0.9874100000000001  0.62885  1.0000
  O   O28       1.0  0.09059000000000002  0.9998800000000001  0.57969  1.0000
  O   O29       1.0  0.33846  0.85623  0.04949  1.0000
  O   O30       1.0  0.22735  0.7612000000000001  0.04172  1.0000
  O   O31       1.0  0.12607  0.75002  0.6966  1.0000
  O   O32       1.0  0.09069  0.6816700000000002  0.79927  1.0000
  O   O33       1.0  0.9998600000000001  0.6068300000000002  0.10076  1.0000
  O   O34       1.0  0.06112000000000001  0.6288500000000002  0.98741  1.0000
  O   O35       1.0  0.90941  0.57969  0.99988  1.0000
  O   O36       1.0  0.8384600000000001  0.14377  0.95051  1.0000
  O   O37       1.0  0.7273500000000003  0.23880000000000004  0.95828  1.0000
  O   O38       1.0  0.6260700000000001  0.24997000000000003  0.3034  1.0000
  O   O39       1.0  0.59069  0.31832  0.20072999999999996  1.0000
  O   O40       1.0  0.49986  0.39317  0.89924  1.0000
  O   O41       1.0  0.56112  0.37115  0.01259  1.0000
  O   O42       1.0  0.40941  0.42031  0.00012  1.0000
  O   O43       1.0  0.08621  0.5493  0.64376  1.0000
  O   O44       1.0  0.9703  0.54199  0.73552  1.0000
  O   O45       1.0  0.87802  0.19574000000000003  0.75042  1.0000
  O   O46       1.0  0.83875  0.29905  0.81763  1.0000
  O   O47       1.0  0.75258  0.59887  0.88993  1.0000
  O   O48       1.0  0.8131000000000003  0.48444  0.87134  1.0000
  O   O49       1.0  0.66154  0.49982  0.9203300000000001  1.0000
  O   O50       1.0  0.58621  0.4507  0.35624  1.0000
  O   O51       1.0  0.4703000000000001  0.45801  0.26448  1.0000
  O   O52       1.0  0.37802  0.80426  0.24958  1.0000
  O   O53       1.0  0.33875000000000005  0.70094  0.18237  1.0000
  O   O54       1.0  0.25258  0.4011300000000001  0.11007  1.0000
  O   O55       1.0  0.3131000000000001  0.51556  0.12866  1.0000
  O   O56       1.0  0.16154  0.50018  0.07967  1.0000
