data_image0
_chemical_formula_structural       Ni16H48C48N48O16
_chemical_formula_sum              "Ni16 H48 C48 N48 O16"
_cell_length_a       13.48513
_cell_length_b       13.48674
_cell_length_c       17.70293
_cell_angle_alpha    112.79376000000002
_cell_angle_beta     112.78607
_cell_angle_gamma    89.65964000000001

_symmetry_space_group_name_H-M    'P 1'
_symmetry_Int_Tables_number       1

loop_
  _symmetry_equiv_pos_as_xyz
  'x,y,z'

loop_
  _atom_site_type_symbol
  _atom_site_label
  _atom_site_symmetry_multiplicity
  _atom_site_fract_x
  _atom_site_fract_y
  _atom_site_fract_z
  _atom_site_occupancy
  Ni  Ni1       1.0  0.33693999999999996  0.75359  0.8266599999999998  1.0000
  Ni  Ni2       1.0  0.48760999999999977  0.57608  0.8276299999999998  1.0000
  Ni  Ni3       1.0  0.16265999999999994  0.9236800000000002  0.17304999999999995  1.0000
  Ni  Ni4       1.0  0.012299999999999985  0.74654  0.17292999999999994  1.0000
  Ni  Ni5       1.0  0.24658  0.5123000000000001  0.67293  1.0000
  Ni  Ni6       1.0  0.4237199999999999  0.6625899999999999  0.6729799999999998  1.0000
  Ni  Ni7       1.0  0.2535999999999999  0.83697  0.3266799999999999  1.0000
  Ni  Ni8       1.0  0.07605999999999993  0.98759  0.3276599999999999  1.0000
  Ni  Ni9       1.0  0.75341  0.48769999999999997  0.3270699999999999  1.0000
  Ni  Ni10      1.0  0.57627  0.33740999999999993  0.32701999999999987  1.0000
  Ni  Ni11      1.0  0.74639  0.16302999999999995  0.67332  1.0000
  Ni  Ni12      1.0  0.92393  0.012410000000000013  0.67234  1.0000
  Ni  Ni13      1.0  0.66305  0.24641000000000002  0.17333999999999994  1.0000
  Ni  Ni14      1.0  0.5123799999999997  0.42392000000000013  0.17236999999999994  1.0000
  Ni  Ni15      1.0  0.8373399999999998  0.07631999999999994  0.8269499999999999  1.0000
  Ni  Ni16      1.0  0.98769  0.25346  0.8270699999999997  1.0000
  H   H1        1.0  0.33986999999999984  0.6201  0.9415499999999998  1.0000
  H   H2        1.0  0.28233999999999987  0.48443  0.8552599999999998  1.0000
  H   H3        1.0  0.20242999999999992  0.59075  0.8571699999999998  1.0000
  H   H4        1.0  0.59766  0.82468  0.9436999999999998  1.0000
  H   H5        1.0  0.5700999999999998  0.8743899999999999  0.8583699999999997  1.0000
  H   H6        1.0  0.6536  0.77118  0.8616499999999998  1.0000
  H   H7        1.0  0.15979999999999994  0.67501  0.057649999999999986  1.0000
  H   H8        1.0  0.21805  0.62621  0.14380999999999994  1.0000
  H   H9        1.0  0.29715  0.73033  0.14188  1.0000
  H   H10       1.0  0.9011699999999999  0.8797200000000001  0.057569999999999996  1.0000
  H   H11       1.0  0.9283399999999998  0.015189999999999971  0.14324999999999993  1.0000
  H   H12       1.0  0.8465999999999999  0.9089399999999999  0.14023999999999995  1.0000
  H   H13       1.0  0.37973  0.4011800000000001  0.55751  1.0000
  H   H14       1.0  0.5151899999999999  0.42830000000000007  0.6431899999999998  1.0000
  H   H15       1.0  0.40889999999999993  0.34658000000000005  0.6401499999999999  1.0000
  H   H16       1.0  0.17504999999999996  0.6598300000000002  0.55767  1.0000
  H   H17       1.0  0.12629  0.718  0.6439  1.0000
  H   H18       1.0  0.23036999999999985  0.79717  0.6419299999999998  1.0000
  H   H19       1.0  0.11996  0.8398400000000003  0.44153  1.0000
  H   H20       1.0  0.9842999999999998  0.78233  0.3552199999999999  1.0000
  H   H21       1.0  0.09062999999999997  0.70242  0.35715  1.0000
  H   H22       1.0  0.32469  0.09758999999999997  0.4437799999999999  1.0000
  H   H23       1.0  0.37444  0.07003999999999994  0.3584799999999999  1.0000
  H   H24       1.0  0.27115  0.15346  0.36172  1.0000
  H   H25       1.0  0.62026  0.59882  0.44249  1.0000
  H   H26       1.0  0.4848  0.5717  0.35681  1.0000
  H   H27       1.0  0.5910999999999998  0.65342  0.3598499999999999  1.0000
  H   H28       1.0  0.8249399999999998  0.34017  0.4423199999999999  1.0000
  H   H29       1.0  0.8737  0.282  0.3560999999999999  1.0000
  H   H30       1.0  0.76963  0.20283000000000007  0.35807  1.0000
  H   H31       1.0  0.88003  0.16015999999999997  0.55847  1.0000
  H   H32       1.0  0.01568999999999997  0.21767000000000003  0.64478  1.0000
  H   H33       1.0  0.90936  0.2975800000000001  0.64285  1.0000
  H   H34       1.0  0.67531  0.9024100000000003  0.55622  1.0000
  H   H35       1.0  0.62555  0.9299599999999999  0.6415199999999998  1.0000
  H   H36       1.0  0.72884  0.8465400000000002  0.63828  1.0000
  H   H37       1.0  0.6601199999999999  0.37991  0.05844999999999999  1.0000
  H   H38       1.0  0.71765  0.51557  0.14474  1.0000
  H   H39       1.0  0.79756  0.40925  0.14282999999999996  1.0000
  H   H40       1.0  0.4023299999999999  0.17532000000000006  0.05629999999999999  1.0000
  H   H41       1.0  0.42988999999999983  0.12561  0.14161999999999994  1.0000
  H   H42       1.0  0.3463999999999999  0.22882  0.13835  1.0000
  H   H43       1.0  0.8401899999999997  0.3249899999999999  0.9423499999999998  1.0000
  H   H44       1.0  0.78195  0.37378999999999996  0.8561899999999998  1.0000
  H   H45       1.0  0.7028399999999997  0.26967999999999986  0.8581199999999998  1.0000
  H   H46       1.0  0.09881999999999988  0.12027999999999996  0.9424299999999998  1.0000
  H   H47       1.0  0.07164999999999992  0.9848100000000002  0.8567499999999999  1.0000
  H   H48       1.0  0.15339999999999993  0.09106000000000003  0.8597599999999999  1.0000
  C   C1        1.0  0.4236  0.8761200000000002  0.03204999999999999  1.0000
  C   C2        1.0  0.28516999999999987  0.57163  0.8703799999999998  1.0000
  C   C3        1.0  0.37189  0.9336300000000002  0.14678999999999995  1.0000
  C   C4        1.0  0.6072399999999999  0.6574500000000001  0.03333999999999999  1.0000
  C   C5        1.0  0.5826999999999998  0.8021600000000001  0.8730799999999997  1.0000
  C   C6        1.0  0.7759699999999999  0.7101100000000002  0.14675999999999997  1.0000
  C   C7        1.0  0.07549999999999989  0.84316  0.9678799999999997  1.0000
  C   C8        1.0  0.21464  0.69818  0.12877999999999998  1.0000
  C   C9        1.0  0.12737999999999988  0.7894  0.8530099999999998  1.0000
  C   C10       1.0  0.8925199999999998  0.62366  0.9671199999999998  1.0000
  C   C11       1.0  0.9167399999999998  0.9281200000000002  0.12834  1.0000
  C   C12       1.0  0.72407  0.56596  0.8535999999999998  1.0000
  C   C13       1.0  0.12364999999999994  0.39249000000000006  0.4671499999999999  1.0000
  C   C14       1.0  0.42811  0.41673000000000004  0.62828  1.0000
  C   C15       1.0  0.06594999999999991  0.22405000000000003  0.3536299999999999  1.0000
  C   C16       1.0  0.34308  0.5752700000000002  0.46779  1.0000
  C   C17       1.0  0.19823999999999997  0.7146400000000002  0.6288299999999998  1.0000
  C   C18       1.0  0.2893099999999999  0.62712  0.3528999999999999  1.0000
  C   C19       1.0  0.3759899999999999  0.92338  0.5319799999999998  1.0000
  C   C20       1.0  0.07152  0.78515  0.37036  1.0000
  C   C21       1.0  0.43362  0.8717900000000002  0.64673  1.0000
  C   C22       1.0  0.15744  0.10722999999999999  0.53335  1.0000
  C   C23       1.0  0.30218  0.08260999999999995  0.3731599999999999  1.0000
  C   C24       1.0  0.21011000000000005  0.27598  0.64673  1.0000
  C   C25       1.0  0.8763399999999999  0.6075099999999998  0.5328499999999998  1.0000
  C   C26       1.0  0.57188  0.5832800000000002  0.37172  1.0000
  C   C27       1.0  0.9340399999999999  0.7759500000000001  0.6463699999999998  1.0000
  C   C28       1.0  0.65691  0.4247300000000001  0.53221  1.0000
  C   C29       1.0  0.8017499999999999  0.28536000000000006  0.3711699999999999  1.0000
  C   C30       1.0  0.71069  0.3728800000000001  0.6471  1.0000
  C   C31       1.0  0.6239999999999998  0.07662  0.4680199999999999  1.0000
  C   C32       1.0  0.92847  0.21485000000000007  0.62964  1.0000
  C   C33       1.0  0.5663700000000002  0.12821  0.35327  1.0000
  C   C34       1.0  0.84255  0.8927700000000002  0.4666499999999999  1.0000
  C   C35       1.0  0.69782  0.91739  0.62684  1.0000
  C   C36       1.0  0.7898899999999996  0.72402  0.35326  1.0000
  C   C37       1.0  0.5763899999999997  0.12387999999999999  0.9679499999999998  1.0000
  C   C38       1.0  0.71482  0.42837000000000003  0.12961999999999996  1.0000
  C   C39       1.0  0.6281  0.06636999999999996  0.8532099999999998  1.0000
  C   C40       1.0  0.3927499999999999  0.34254999999999997  0.9666599999999997  1.0000
  C   C41       1.0  0.41729  0.19784  0.12692  1.0000
  C   C42       1.0  0.22401999999999994  0.28989  0.85324  1.0000
  C   C43       1.0  0.9244999999999999  0.15685000000000002  0.03211999999999999  1.0000
  C   C44       1.0  0.78536  0.30182  0.87121  1.0000
  C   C45       1.0  0.8726199999999997  0.21061000000000002  0.14698999999999995  1.0000
  C   C46       1.0  0.10746999999999997  0.37634000000000006  0.03288  1.0000
  C   C47       1.0  0.08325999999999989  0.07187999999999999  0.8716599999999998  1.0000
  C   C48       1.0  0.27592999999999995  0.43404  0.14639999999999995  1.0000
  N   N1        1.0  0.41015999999999986  0.8452400000000002  0.9561099999999998  1.0000
  N   N2        1.0  0.30914  0.9577400000000003  0.17974  1.0000
  N   N3        1.0  0.4472399999999999  0.9103600000000001  0.11731999999999997  1.0000
  N   N4        1.0  0.5431199999999999  0.6142500000000001  0.9573899999999997  1.0000
  N   N5        1.0  0.8718  0.71612  0.17826999999999996  1.0000
  N   N6        1.0  0.67119  0.7068200000000002  0.11858999999999997  1.0000
  N   N7        1.0  0.08853  0.8861800000000001  0.04392999999999998  1.0000
  N   N8        1.0  0.18990999999999986  0.7820300000000001  0.8201099999999998  1.0000
  N   N9        1.0  0.05232999999999988  0.79408  0.8824899999999998  1.0000
  N   N10       1.0  0.95621  0.6548900000000002  0.04301999999999999  1.0000
  N   N11       1.0  0.6281999999999999  0.5418  0.8220499999999997  1.0000
  N   N12       1.0  0.82894  0.5893300000000001  0.88197  1.0000
  N   N13       1.0  0.15489  0.45618000000000003  0.54305  1.0000
  N   N14       1.0  0.04178999999999995  0.12817999999999996  0.32207999999999987  1.0000
  N   N15       1.0  0.08930999999999997  0.3289100000000001  0.382  1.0000
  N   N16       1.0  0.38618999999999987  0.5883399999999999  0.5438399999999999  1.0000
  N   N17       1.0  0.2819899999999999  0.6896400000000001  0.3199999999999999  1.0000
  N   N18       1.0  0.2938999999999999  0.5521  0.3824099999999999  1.0000
  N   N19       1.0  0.3450799999999999  0.9098300000000001  0.45601999999999987  1.0000
  N   N20       1.0  0.45782  0.8090400000000001  0.6796599999999999  1.0000
  N   N21       1.0  0.4102699999999998  0.9471300000000002  0.6172699999999998  1.0000
  N   N22       1.0  0.11420999999999992  0.04307999999999996  0.45740999999999987  1.0000
  N   N23       1.0  0.2161099999999999  0.37179999999999996  0.6782299999999998  1.0000
  N   N24       1.0  0.2068499999999999  0.17121000000000008  0.61859  1.0000
  N   N25       1.0  0.84511  0.5438200000000001  0.4569499999999999  1.0000
  N   N26       1.0  0.9581999999999998  0.87182  0.6779199999999999  1.0000
  N   N27       1.0  0.91068  0.6710900000000002  0.618  1.0000
  N   N28       1.0  0.6138099999999999  0.41166  0.4561599999999999  1.0000
  N   N29       1.0  0.7179999999999999  0.31036  0.6799999999999998  1.0000
  N   N30       1.0  0.70609  0.4479  0.61759  1.0000
  N   N31       1.0  0.65492  0.09017000000000004  0.54398  1.0000
  N   N32       1.0  0.5421699999999999  0.19096  0.3203399999999999  1.0000
  N   N33       1.0  0.58972  0.052870000000000014  0.38273  1.0000
  N   N34       1.0  0.8857899999999997  0.9569200000000001  0.5425899999999998  1.0000
  N   N35       1.0  0.7838899999999998  0.6282  0.32176  1.0000
  N   N36       1.0  0.79314  0.8287900000000002  0.3814099999999999  1.0000
  N   N37       1.0  0.5898299999999999  0.15476  0.043889999999999985  1.0000
  N   N38       1.0  0.6908599999999998  0.04225999999999984  0.8202599999999998  1.0000
  N   N39       1.0  0.5527499999999997  0.08964000000000001  0.8826799999999998  1.0000
  N   N40       1.0  0.45687  0.3857500000000001  0.04261  1.0000
  N   N41       1.0  0.1281999999999999  0.28387999999999985  0.8217299999999997  1.0000
  N   N42       1.0  0.3288099999999998  0.29317999999999994  0.8814099999999999  1.0000
  N   N43       1.0  0.9114599999999998  0.11381999999999994  0.9560699999999999  1.0000
  N   N44       1.0  0.8100899999999995  0.21798000000000006  0.17989  1.0000
  N   N45       1.0  0.94767  0.20592  0.11750999999999998  1.0000
  N   N46       1.0  0.04378999999999988  0.34511  0.9569799999999998  1.0000
  N   N47       1.0  0.3718  0.4582000000000001  0.17794999999999997  1.0000
  N   N48       1.0  0.17105  0.41067  0.11802999999999997  1.0000
  O   O1        1.0  0.32526999999999984  0.59521  0.8137899999999998  1.0000
  O   O2        1.0  0.4862699999999999  0.7204400000000002  0.8147099999999999  1.0000
  O   O3        1.0  0.1743999999999999  0.77928  0.18560999999999994  1.0000
  O   O4        1.0  0.013669999999999969  0.9045699999999999  0.18588999999999994  1.0000
  O   O5        1.0  0.4045899999999999  0.5136600000000002  0.68585  1.0000
  O   O6        1.0  0.27936999999999984  0.67441  0.6856199999999998  1.0000
  O   O7        1.0  0.09517  0.8252500000000002  0.3138  1.0000
  O   O8        1.0  0.22045999999999988  0.9862000000000001  0.3147599999999999  1.0000
  O   O9        1.0  0.5954099999999999  0.48634  0.31415  1.0000
  O   O10       1.0  0.72062  0.32559  0.31438  1.0000
  O   O11       1.0  0.9048199999999997  0.17474999999999988  0.6861999999999998  1.0000
  O   O12       1.0  0.7795299999999998  0.01379999999999984  0.6852399999999997  1.0000
  O   O13       1.0  0.67472  0.4047899999999999  0.18620999999999993  1.0000
  O   O14       1.0  0.51372  0.27956  0.18528999999999995  1.0000
  O   O15       1.0  0.8255899999999999  0.22071999999999994  0.8143899999999997  1.0000
  O   O16       1.0  0.98632  0.09543000000000013  0.81411  1.0000
