data_image0
_chemical_formula_structural       Cd4H68C116N12O20
_chemical_formula_sum              "Cd4 H68 C116 N12 O20"
_cell_length_a       10.20394
_cell_length_b       17.27438
_cell_length_c       17.37949
_cell_angle_alpha    90.0
_cell_angle_beta     92.25458
_cell_angle_gamma    90.0

_symmetry_space_group_name_H-M    'P 1'
_symmetry_Int_Tables_number       1

loop_
  _symmetry_equiv_pos_as_xyz
  'x,y,z'

loop_
  _atom_site_type_symbol
  _atom_site_label
  _atom_site_symmetry_multiplicity
  _atom_site_fract_x
  _atom_site_fract_y
  _atom_site_fract_z
  _atom_site_occupancy
  Cd  Cd1       1.0  0.82412  0.35894  0.021979999999999996  1.0000
  Cd  Cd2       1.0  0.17588  0.85894  0.47801999999999994  1.0000
  Cd  Cd3       1.0  0.17587  0.64106  0.9780199999999999  1.0000
  Cd  Cd4       1.0  0.82412  0.14106  0.52198  1.0000
  H   H1        1.0  0.63323  0.34313  0.88098  1.0000
  H   H2        1.0  0.61632  0.36658  0.73975  1.0000
  H   H3        1.0  0.9734899999999999  0.50065  0.76483  1.0000
  H   H4        1.0  0.98433  0.46193  0.90434  1.0000
  H   H5        1.0  0.64323  0.37119  0.62226  1.0000
  H   H6        1.0  0.77253  0.52719  0.44802  1.0000
  H   H7        1.0  0.13073  0.74707  0.63091  1.0000
  H   H8        1.0  0.99303  0.6324300000000003  0.663  1.0000
  H   H9        1.0  0.9253399999999999  0.59729  0.41869  1.0000
  H   H10       1.0  0.06268  0.71288  0.39689  1.0000
  H   H11       1.0  0.59006  0.29838  0.5304  1.0000
  H   H12       1.0  0.43114  0.23932000000000003  0.43711  1.0000
  H   H13       1.0  0.43782  0.44577  0.29848  1.0000
  H   H14       1.0  0.59053  0.50694  0.39374  1.0000
  H   H15       1.0  0.12503  0.33887000000000006  0.22714  1.0000
  H   H16       1.0  0.32815  0.37596  0.01808  1.0000
  H   H17       1.0  0.54546  0.31073  0.22536  1.0000
  H   H18       1.0  0.36676  0.84313  0.61901  1.0000
  H   H19       1.0  0.38368  0.86658  0.76024  1.0000
  H   H20       1.0  0.0265  0.00065  0.73516  1.0000
  H   H21       1.0  0.01566  0.9619300000000001  0.59566  1.0000
  H   H22       1.0  0.35676  0.87119  0.87774  1.0000
  H   H23       1.0  0.22747  0.02719  0.05198  1.0000
  H   H24       1.0  0.86926  0.24706999999999998  0.86908  1.0000
  H   H25       1.0  0.006959999999999992  0.13243  0.8369999999999999  1.0000
  H   H26       1.0  0.07466  0.09729000000000003  0.08131  1.0000
  H   H27       1.0  0.93731  0.21288000000000004  0.10311  1.0000
  H   H28       1.0  0.40993  0.7983900000000003  0.9696  1.0000
  H   H29       1.0  0.56886  0.7393200000000002  0.06289  1.0000
  H   H30       1.0  0.56218  0.94577  0.20152  1.0000
  H   H31       1.0  0.40946  0.00694  0.10626  1.0000
  H   H32       1.0  0.87497  0.83887  0.27286  1.0000
  H   H33       1.0  0.67185  0.87596  0.48192  1.0000
  H   H34       1.0  0.45454  0.81073  0.27464  1.0000
  H   H35       1.0  0.36677  0.65687  0.11901  1.0000
  H   H36       1.0  0.38368  0.63342  0.26024  1.0000
  H   H37       1.0  0.02651  0.49935000000000007  0.23516999999999996  1.0000
  H   H38       1.0  0.01567  0.53807  0.09566  1.0000
  H   H39       1.0  0.35676  0.62881  0.37773999999999996  1.0000
  H   H40       1.0  0.22747  0.47281  0.55198  1.0000
  H   H41       1.0  0.86926  0.25293000000000004  0.36909  1.0000
  H   H42       1.0  0.006960000000000001  0.36757  0.337  1.0000
  H   H43       1.0  0.07466  0.40271  0.58131  1.0000
  H   H44       1.0  0.93731  0.28712  0.60311  1.0000
  H   H45       1.0  0.40993999999999997  0.70162  0.4696  1.0000
  H   H46       1.0  0.56886  0.76068  0.56289  1.0000
  H   H47       1.0  0.56217  0.55423  0.70152  1.0000
  H   H48       1.0  0.40946  0.49306000000000005  0.60626  1.0000
  H   H49       1.0  0.87497  0.66113  0.77286  1.0000
  H   H50       1.0  0.67185  0.62404  0.9819199999999999  1.0000
  H   H51       1.0  0.4545299999999999  0.68927  0.77463  1.0000
  H   H52       1.0  0.63323  0.15687  0.38099  1.0000
  H   H53       1.0  0.61632  0.13342  0.23976  1.0000
  H   H54       1.0  0.9734899999999999  0.9993500000000001  0.26483  1.0000
  H   H55       1.0  0.98433  0.03807000000000001  0.40434  1.0000
  H   H56       1.0  0.64324  0.12881  0.12226000000000001  1.0000
  H   H57       1.0  0.77253  0.97281  0.9480099999999999  1.0000
  H   H58       1.0  0.13074  0.75293  0.13091  1.0000
  H   H59       1.0  0.99304  0.86757  0.163  1.0000
  H   H60       1.0  0.92533  0.90271  0.91869  1.0000
  H   H61       1.0  0.06268  0.78712  0.89688  1.0000
  H   H62       1.0  0.59006  0.20162000000000005  0.0304  1.0000
  H   H63       1.0  0.43113  0.26068  0.9370999999999999  1.0000
  H   H64       1.0  0.43782  0.05423  0.79848  1.0000
  H   H65       1.0  0.59053  0.9930600000000002  0.89373  1.0000
  H   H66       1.0  0.12502  0.16113  0.72714  1.0000
  H   H67       1.0  0.32814  0.12404000000000001  0.51807  1.0000
  H   H68       1.0  0.54546  0.18927000000000002  0.72536  1.0000
  C   C1        1.0  0.70816  0.37559  0.8519  1.0000
  C   C2        1.0  0.6992900000000001  0.39009  0.77327  1.0000
  C   C3        1.0  0.79555  0.43574  0.73952  1.0000
  C   C4        1.0  0.89857  0.46353000000000005  0.78784  1.0000
  C   C5        1.0  0.90375  0.44405  0.86549  1.0000
  C   C6        1.0  0.7882600000000001  0.45692  0.65664  1.0000
  C   C7        1.0  0.70349  0.41902  0.60366  1.0000
  C   C8        1.0  0.69414  0.44372  0.52659  1.0000
  C   C9        1.0  0.77469  0.50587  0.50683  1.0000
  C   C10       1.0  0.85868  0.54001  0.56262  1.0000
  C   C11       1.0  0.08348  0.71219  0.58563  1.0000
  C   C12       1.0  0.0066800000000000045  0.64886  0.60349  1.0000
  C   C13       1.0  0.94452  0.60607  0.54385  1.0000
  C   C14       1.0  0.96653  0.62895  0.46796000000000004  1.0000
  C   C15       1.0  0.04513  0.6929400000000002  0.45501  1.0000
  C   C16       1.0  0.60266  0.40743000000000007  0.46973  1.0000
  C   C17       1.0  0.5548  0.33198  0.48086000000000007  1.0000
  C   C18       1.0  0.46629  0.2979  0.4281  1.0000
  C   C19       1.0  0.42469  0.33918  0.36228  1.0000
  C   C20       1.0  0.47147999999999995  0.41413  0.34952  1.0000
  C   C21       1.0  0.559  0.44762  0.40302  1.0000
  C   C22       1.0  0.33504  0.32371  0.23500000000000001  1.0000
  C   C23       1.0  0.21586  0.33987  0.19669  1.0000
  C   C24       1.0  0.21357999999999996  0.35846  0.11808999999999999  1.0000
  C   C25       1.0  0.33056  0.36032000000000003  0.07869  1.0000
  C   C26       1.0  0.4496  0.3421100000000001  0.11743  1.0000
  C   C27       1.0  0.45192  0.32355  0.19599  1.0000
  C   C28       1.0  0.08551  0.37577  0.07623  1.0000
  C   C29       1.0  0.57628  0.34341  0.07669  1.0000
  C   C30       1.0  0.29184  0.8755900000000001  0.64809  1.0000
  C   C31       1.0  0.3007099999999999  0.89009  0.72672  1.0000
  C   C32       1.0  0.20445  0.93574  0.76048  1.0000
  C   C33       1.0  0.10142  0.9635299999999999  0.71215  1.0000
  C   C34       1.0  0.09624  0.94405  0.63451  1.0000
  C   C35       1.0  0.21173  0.9569200000000001  0.84336  1.0000
  C   C36       1.0  0.29651000000000005  0.9190200000000002  0.89633  1.0000
  C   C37       1.0  0.30586  0.94372  0.97341  1.0000
  C   C38       1.0  0.22529999999999997  0.00587  0.9931599999999999  1.0000
  C   C39       1.0  0.14131  0.04001  0.93738  1.0000
  C   C40       1.0  0.91652  0.21219  0.9143599999999998  1.0000
  C   C41       1.0  0.9933099999999999  0.14886  0.8965  1.0000
  C   C42       1.0  0.05548  0.10607  0.9561499999999999  1.0000
  C   C43       1.0  0.03346  0.12895  0.03204  1.0000
  C   C44       1.0  0.9548600000000002  0.19294  0.04499  1.0000
  C   C45       1.0  0.39734  0.90743  0.030260000000000002  1.0000
  C   C46       1.0  0.44520000000000004  0.83198  0.01914  1.0000
  C   C47       1.0  0.53371  0.7979  0.0719  1.0000
  C   C48       1.0  0.57531  0.83918  0.13771  1.0000
  C   C49       1.0  0.52851  0.91413  0.15048  1.0000
  C   C50       1.0  0.44099999999999995  0.94762  0.09697  1.0000
  C   C51       1.0  0.66496  0.82371  0.265  1.0000
  C   C52       1.0  0.7841300000000001  0.83987  0.3033  1.0000
  C   C53       1.0  0.7864199999999999  0.8584600000000002  0.38191  1.0000
  C   C54       1.0  0.66944  0.86032  0.42131  1.0000
  C   C55       1.0  0.5504  0.84211  0.38257  1.0000
  C   C56       1.0  0.54808  0.82355  0.30401  1.0000
  C   C57       1.0  0.91449  0.87577  0.4237699999999999  1.0000
  C   C58       1.0  0.42372  0.8434100000000001  0.42331  1.0000
  C   C59       1.0  0.29184  0.62441  0.14809  1.0000
  C   C60       1.0  0.3007100000000001  0.60992  0.22672  1.0000
  C   C61       1.0  0.20445  0.56426  0.26048  1.0000
  C   C62       1.0  0.10142999999999999  0.53647  0.21215  1.0000
  C   C63       1.0  0.09625  0.55595  0.13451  1.0000
  C   C64       1.0  0.21174  0.5430800000000002  0.34336  1.0000
  C   C65       1.0  0.29651000000000005  0.58098  0.39633  1.0000
  C   C66       1.0  0.30586  0.55628  0.47341  1.0000
  C   C67       1.0  0.22531  0.49413000000000007  0.49316  1.0000
  C   C68       1.0  0.14131  0.45999  0.43738  1.0000
  C   C69       1.0  0.91652  0.28781  0.41436  1.0000
  C   C70       1.0  0.9933099999999999  0.35114  0.39651  1.0000
  C   C71       1.0  0.05548  0.39393  0.45615  1.0000
  C   C72       1.0  0.03346  0.37105000000000005  0.53203  1.0000
  C   C73       1.0  0.9548600000000002  0.30706  0.54499  1.0000
  C   C74       1.0  0.39734  0.59257  0.53026  1.0000
  C   C75       1.0  0.44520000000000004  0.6680200000000002  0.51914  1.0000
  C   C76       1.0  0.5337  0.7021000000000002  0.5719  1.0000
  C   C77       1.0  0.57531  0.66082  0.63771  1.0000
  C   C78       1.0  0.52851  0.58587  0.65048  1.0000
  C   C79       1.0  0.44099  0.55238  0.59697  1.0000
  C   C80       1.0  0.66496  0.67629  0.765  1.0000
  C   C81       1.0  0.7841300000000001  0.6601300000000001  0.8033  1.0000
  C   C82       1.0  0.7864199999999999  0.64154  0.88191  1.0000
  C   C83       1.0  0.66944  0.63968  0.92131  1.0000
  C   C84       1.0  0.5503999999999999  0.65789  0.88257  1.0000
  C   C85       1.0  0.54808  0.6764500000000001  0.80401  1.0000
  C   C86       1.0  0.91449  0.62423  0.9237699999999999  1.0000
  C   C87       1.0  0.42372  0.65659  0.9233  1.0000
  C   C88       1.0  0.70816  0.12441000000000002  0.35191  1.0000
  C   C89       1.0  0.69929  0.10991  0.27327  1.0000
  C   C90       1.0  0.79555  0.06426  0.23952000000000004  1.0000
  C   C91       1.0  0.89857  0.03647  0.28785  1.0000
  C   C92       1.0  0.90375  0.05595  0.36549  1.0000
  C   C93       1.0  0.7882600000000001  0.04308  0.15664  1.0000
  C   C94       1.0  0.70349  0.08098  0.10367  1.0000
  C   C95       1.0  0.69414  0.05628  0.02659  1.0000
  C   C96       1.0  0.77469  0.9941299999999998  0.00684  1.0000
  C   C97       1.0  0.85869  0.95999  0.06262  1.0000
  C   C98       1.0  0.08348  0.78781  0.08564  1.0000
  C   C99       1.0  0.00668  0.85114  0.10349  1.0000
  C   C100      1.0  0.94452  0.8939300000000002  0.04385  1.0000
  C   C101      1.0  0.96653  0.87105  0.96796  1.0000
  C   C102      1.0  0.04513  0.80706  0.9550000000000001  1.0000
  C   C103      1.0  0.60265  0.09257  0.96973  1.0000
  C   C104      1.0  0.5548  0.16802  0.9808499999999999  1.0000
  C   C105      1.0  0.46629  0.2021  0.9281  1.0000
  C   C106      1.0  0.42468  0.16082  0.86228  1.0000
  C   C107      1.0  0.47147999999999995  0.08587  0.84952  1.0000
  C   C108      1.0  0.559  0.05238  0.90302  1.0000
  C   C109      1.0  0.33504  0.17629  0.73499  1.0000
  C   C110      1.0  0.21586  0.16013000000000002  0.6966899999999999  1.0000
  C   C111      1.0  0.21357  0.14154  0.61809  1.0000
  C   C112      1.0  0.33056  0.13968000000000003  0.57869  1.0000
  C   C113      1.0  0.44958999999999993  0.15789  0.61742  1.0000
  C   C114      1.0  0.45191000000000003  0.17645  0.69599  1.0000
  C   C115      1.0  0.0855  0.12423  0.57623  1.0000
  C   C116      1.0  0.57628  0.15659  0.57669  1.0000
  N   N1        1.0  0.80929  0.40143  0.8973  1.0000
  N   N2        1.0  0.86561  0.5161  0.63642  1.0000
  N   N3        1.0  0.10214  0.7347400000000002  0.51262  1.0000
  N   N4        1.0  0.19071  0.90143  0.6026999999999999  1.0000
  N   N5        1.0  0.13438  0.0161  0.86358  1.0000
  N   N6        1.0  0.89785  0.23474  0.9873800000000001  1.0000
  N   N7        1.0  0.19071  0.5985700000000003  0.1027  1.0000
  N   N8        1.0  0.13438  0.4839  0.36358  1.0000
  N   N9        1.0  0.89785  0.26526  0.4873799999999999  1.0000
  N   N10       1.0  0.80929  0.09857  0.3973  1.0000
  N   N11       1.0  0.86562  0.9839000000000001  0.13642  1.0000
  N   N12       1.0  0.10214  0.76526  0.012619999999999998  1.0000
  O   O1        1.0  0.08387  0.39091  0.0053  1.0000
  O   O2        1.0  0.9813299999999999  0.37168  0.11651999999999998  1.0000
  O   O3        1.0  0.57779  0.36784  0.00782  1.0000
  O   O4        1.0  0.68009  0.31974  0.11407  1.0000
  O   O5        1.0  0.33293  0.30417000000000005  0.3131  1.0000
  O   O6        1.0  0.9161200000000002  0.8909100000000002  0.49470000000000003  1.0000
  O   O7        1.0  0.018669999999999992  0.87168  0.38348  1.0000
  O   O8        1.0  0.42219999999999996  0.8678400000000002  0.49217999999999995  1.0000
  O   O9        1.0  0.31991  0.81974  0.38592  1.0000
  O   O10       1.0  0.66707  0.80417  0.1869  1.0000
  O   O11       1.0  0.9161200000000002  0.60909  0.9946899999999999  1.0000
  O   O12       1.0  0.018670000000000006  0.62832  0.88348  1.0000
  O   O13       1.0  0.42219999999999996  0.63216  0.99218  1.0000
  O   O14       1.0  0.31991  0.68026  0.88592  1.0000
  O   O15       1.0  0.66707  0.69583  0.6869  1.0000
  O   O16       1.0  0.08387  0.10909  0.5053  1.0000
  O   O17       1.0  0.9813299999999999  0.12832  0.61651  1.0000
  O   O18       1.0  0.57779  0.13216  0.50782  1.0000
  O   O19       1.0  0.68008  0.18026  0.61407  1.0000
  O   O20       1.0  0.33293  0.19583  0.8131  1.0000
