data_image0
_chemical_formula_structural       Zn6H66C54Br6N12O12
_chemical_formula_sum              "Zn6 H66 C54 Br6 N12 O12"
_cell_length_a       10.26767
_cell_length_b       17.88713
_cell_length_c       17.88656
_cell_angle_alpha    120.09541
_cell_angle_beta     90.0
_cell_angle_gamma    90.0

_symmetry_space_group_name_H-M    'P 1'
_symmetry_Int_Tables_number       1

loop_
  _symmetry_equiv_pos_as_xyz
  'x,y,z'

loop_
  _atom_site_type_symbol
  _atom_site_label
  _atom_site_symmetry_multiplicity
  _atom_site_fract_x
  _atom_site_fract_y
  _atom_site_fract_z
  _atom_site_occupancy
  Zn  Zn1       1.0  0.87283  0.45453999999999994  0.92052  1.0000
  Zn  Zn2       1.0  0.53593  0.46618  0.54543  1.0000
  Zn  Zn3       1.0  0.20416  0.07957000000000002  0.534  1.0000
  Zn  Zn4       1.0  0.37283  0.54547  0.07948  1.0000
  Zn  Zn5       1.0  0.03593  0.53383  0.45458  1.0000
  Zn  Zn6       1.0  0.70416  0.92044  0.466  1.0000
  H   H1        1.0  0.98392  0.51985  0.06423  1.0000
  H   H2        1.0  0.95159  0.37236  0.02045  1.0000
  H   H3        1.0  0.7843400000000001  0.3939  0.04957  1.0000
  H   H4        1.0  0.76981  0.5648399999999999  0.16352999999999995  1.0000
  H   H5        1.0  0.80321  0.44622999999999996  0.3375999999999999  1.0000
  H   H6        1.0  0.11082000000000002  0.49297  0.1545  1.0000
  H   H7        1.0  0.7358100000000001  0.40144  0.18611  1.0000
  H   H8        1.0  0.15994  0.53533  0.3068799999999999  1.0000
  H   H9        1.0  0.92863  0.67036  0.16896  1.0000
  H   H10       1.0  0.76932  0.70258  0.15931  1.0000
  H   H11       1.0  0.8736200000000001  0.65389  0.06665  1.0000
  H   H12       1.0  0.65043  0.54432  0.48027  1.0000
  H   H13       1.0  0.6189  0.64848  0.62754  1.0000
  H   H14       1.0  0.4513400000000001  0.65603  0.6066  1.0000
  H   H15       1.0  0.43655  0.59905  0.43532  1.0000
  H   H16       1.0  0.46901000000000004  0.89124  0.55341  1.0000
  H   H17       1.0  0.77722  0.66151  0.50682  1.0000
  H   H18       1.0  0.40201000000000003  0.7846  0.59831  1.0000
  H   H19       1.0  0.82585  0.77119  0.46422  1.0000
  H   H20       1.0  0.59589  0.4988  0.33  1.0000
  H   H21       1.0  0.4368600000000001  0.45638  0.2974  1.0000
  H   H22       1.0  0.54125  0.41305  0.34657  1.0000
  H   H23       1.0  0.31603  0.93593  0.4554199999999999  1.0000
  H   H24       1.0  0.28374  0.9793299999999999  0.3515599999999999  1.0000
  H   H25       1.0  0.11654  0.95015  0.34382999999999997  1.0000
  H   H26       1.0  0.10193000000000002  0.83673  0.4009399999999999  1.0000
  H   H27       1.0  0.13714  0.66147  0.10819  1.0000
  H   H28       1.0  0.44291  0.84602  0.3392099999999999  1.0000
  H   H29       1.0  0.06882  0.81299  0.21460999999999994  1.0000
  H   H30       1.0  0.49316000000000004  0.69369  0.22942  1.0000
  H   H31       1.0  0.26071  0.83138  0.50134  1.0000
  H   H32       1.0  0.10126  0.8411499999999998  0.5430299999999998  1.0000
  H   H33       1.0  0.20543000000000003  0.93373  0.58725  1.0000
  H   H34       1.0  0.48392  0.48016  0.93578  1.0000
  H   H35       1.0  0.45159  0.62765  0.97955  1.0000
  H   H36       1.0  0.28434  0.6060999999999999  0.9504299999999998  1.0000
  H   H37       1.0  0.26982  0.43517  0.83647  1.0000
  H   H38       1.0  0.30321  0.55378  0.66241  1.0000
  H   H39       1.0  0.61082  0.50704  0.8455  1.0000
  H   H40       1.0  0.23581000000000002  0.59857  0.81389  1.0000
  H   H41       1.0  0.65994  0.4646799999999999  0.69312  1.0000
  H   H42       1.0  0.42863  0.32964  0.83105  1.0000
  H   H43       1.0  0.26932  0.29743  0.8407  1.0000
  H   H44       1.0  0.37362  0.34611999999999987  0.9333599999999997  1.0000
  H   H45       1.0  0.15043  0.45569  0.51973  1.0000
  H   H46       1.0  0.11890000000000002  0.35152999999999995  0.3724699999999999  1.0000
  H   H47       1.0  0.95134  0.34398  0.3934  1.0000
  H   H48       1.0  0.93655  0.40095  0.56469  1.0000
  H   H49       1.0  0.96901  0.10876999999999994  0.4465899999999999  1.0000
  H   H50       1.0  0.27722  0.33849999999999997  0.4931799999999999  1.0000
  H   H51       1.0  0.9020100000000001  0.2154  0.40169  1.0000
  H   H52       1.0  0.32585000000000003  0.22882  0.53578  1.0000
  H   H53       1.0  0.09589  0.50121  0.67001  1.0000
  H   H54       1.0  0.93686  0.5436199999999998  0.7025999999999998  1.0000
  H   H55       1.0  0.04125  0.58696  0.65344  1.0000
  H   H56       1.0  0.81603  0.06406999999999985  0.5445799999999997  1.0000
  H   H57       1.0  0.78374  0.020679999999999962  0.64844  1.0000
  H   H58       1.0  0.61654  0.04985999999999986  0.6561699999999998  1.0000
  H   H59       1.0  0.60193  0.16328000000000006  0.59906  1.0000
  H   H60       1.0  0.6371400000000002  0.33854  0.89181  1.0000
  H   H61       1.0  0.94291  0.15399000000000004  0.66079  1.0000
  H   H62       1.0  0.56882  0.18701999999999988  0.7853899999999998  1.0000
  H   H63       1.0  0.9931600000000002  0.30632  0.77058  1.0000
  H   H64       1.0  0.76071  0.16862999999999992  0.4986599999999999  1.0000
  H   H65       1.0  0.60126  0.15885  0.4569699999999999  1.0000
  H   H66       1.0  0.70543  0.06628000000000002  0.41275  1.0000
  C   C1        1.0  0.91726  0.4446299999999999  0.15753999999999996  1.0000
  C   C2        1.0  0.66449  0.54439  0.05273999999999999  1.0000
  C   C3        1.0  0.8829100000000001  0.42114  0.06608999999999997  1.0000
  C   C4        1.0  0.7929600000000001  0.56431  0.1032  1.0000
  C   C5        1.0  0.86698  0.4557  0.29448  1.0000
  C   C6        1.0  0.03781000000000001  0.48281  0.19278  1.0000
  C   C7        1.0  0.83098  0.43074  0.21003  1.0000
  C   C8        1.0  0.06676  0.50667  0.27769999999999995  1.0000
  C   C9        1.0  0.8445900000000001  0.65337  0.12551  1.0000
  C   C10       1.0  0.58367  0.7130899999999999  0.5553999999999999  1.0000
  C   C11       1.0  0.33122  0.5083  0.4554399999999999  1.0000
  C   C12       1.0  0.54972  0.64529  0.57905  1.0000
  C   C13       1.0  0.45964  0.53917  0.43574  1.0000
  C   C14       1.0  0.53293  0.8386799999999999  0.5439499999999998  1.0000
  C   C15       1.0  0.70408  0.70993  0.51703  1.0000
  C   C16       1.0  0.49716  0.77932  0.56905  1.0000
  C   C17       1.0  0.73275  0.7708099999999999  0.49297999999999986  1.0000
  C   C18       1.0  0.51184  0.47225000000000006  0.34683  1.0000
  C   C19       1.0  0.24982  0.84229  0.28694  1.0000
  C   C20       1.0  0.9965500000000002  0.9473500000000001  0.49153  1.0000
  C   C21       1.0  0.21509  0.93379  0.35474  1.0000
  C   C22       1.0  0.12513  0.8970800000000001  0.46089  1.0000
  C   C23       1.0  0.20062000000000002  0.70491  0.16093  1.0000
  C   C24       1.0  0.37037  0.80744  0.29043  1.0000
  C   C25       1.0  0.16404  0.7893599999999998  0.22027999999999995  1.0000
  C   C26       1.0  0.39992  0.72253  0.22946999999999995  1.0000
  C   C27       1.0  0.17663000000000004  0.87484  0.52767  1.0000
  C   C28       1.0  0.41727  0.55538  0.84246  1.0000
  C   C29       1.0  0.16449000000000003  0.45561999999999986  0.9472599999999998  1.0000
  C   C30       1.0  0.38291  0.5788699999999999  0.9339199999999998  1.0000
  C   C31       1.0  0.29296  0.4356999999999999  0.8967999999999998  1.0000
  C   C32       1.0  0.36698  0.54431  0.70552  1.0000
  C   C33       1.0  0.53781  0.5172  0.80722  1.0000
  C   C34       1.0  0.33098  0.56927  0.78997  1.0000
  C   C35       1.0  0.56676  0.4933399999999999  0.7223099999999998  1.0000
  C   C36       1.0  0.34459  0.3466399999999999  0.8744999999999998  1.0000
  C   C37       1.0  0.08368000000000002  0.28692  0.4446  1.0000
  C   C38       1.0  0.83121  0.49169999999999997  0.54457  1.0000
  C   C39       1.0  0.04972  0.35471  0.42095  1.0000
  C   C40       1.0  0.9596400000000002  0.46083  0.56426  1.0000
  C   C41       1.0  0.03293  0.16132999999999992  0.4560499999999999  1.0000
  C   C42       1.0  0.20408000000000004  0.29008  0.48298  1.0000
  C   C43       1.0  0.99716  0.22069  0.43095  1.0000
  C   C44       1.0  0.23276000000000005  0.2292  0.50702  1.0000
  C   C45       1.0  0.01184  0.52775  0.65317  1.0000
  C   C46       1.0  0.7498200000000002  0.15771999999999994  0.7130599999999999  1.0000
  C   C47       1.0  0.49655000000000005  0.05266  0.50847  1.0000
  C   C48       1.0  0.7150900000000001  0.06622000000000001  0.64527  1.0000
  C   C49       1.0  0.62513  0.10293000000000004  0.53911  1.0000
  C   C50       1.0  0.70062  0.29510000000000003  0.83908  1.0000
  C   C51       1.0  0.87037  0.19257  0.70957  1.0000
  C   C52       1.0  0.66404  0.21063999999999988  0.7797199999999997  1.0000
  C   C53       1.0  0.89992  0.27747999999999995  0.77053  1.0000
  C   C54       1.0  0.6766300000000001  0.12516  0.47233  1.0000
  Br  Br1       1.0  0.89418  0.5558099999999999  0.8721899999999998  1.0000
  Br  Br2       1.0  0.56211  0.31642  0.4448899999999999  1.0000
  Br  Br3       1.0  0.22577000000000003  0.12802999999999995  0.6837499999999997  1.0000
  Br  Br4       1.0  0.39418000000000003  0.44419999999999993  0.12782  1.0000
  Br  Br5       1.0  0.062110000000000005  0.68359  0.55512  1.0000
  Br  Br6       1.0  0.7257700000000001  0.8719799999999998  0.31624999999999986  1.0000
  N   N1        1.0  0.88969  0.49629  0.05253  1.0000
  N   N2        1.0  0.9824400000000001  0.49388  0.32845  1.0000
  N   N3        1.0  0.55622  0.55646  0.50381  1.0000
  N   N4        1.0  0.6484  0.83439  0.50576  1.0000
  N   N5        1.0  0.22179  0.9477200000000001  0.4436299999999999  1.0000
  N   N6        1.0  0.31622  0.67135  0.16553  1.0000
  N   N7        1.0  0.3897  0.50371  0.94747  1.0000
  N   N8        1.0  0.48244  0.50613  0.67155  1.0000
  N   N9        1.0  0.05623  0.44354  0.4962  1.0000
  N   N10       1.0  0.14841  0.1656199999999999  0.4942499999999999  1.0000
  N   N11       1.0  0.72179  0.052289999999999864  0.5563699999999998  1.0000
  N   N12       1.0  0.8162200000000001  0.32865  0.83447  1.0000
  O   O1        1.0  0.66255  0.4854199999999999  0.9732899999999998  1.0000
  O   O2        1.0  0.56812  0.5902  0.09563999999999998  1.0000
  O   O3        1.0  0.33032  0.48799999999999993  0.51458  1.0000
  O   O4        1.0  0.23445000000000002  0.50461  0.4097699999999999  1.0000
  O   O5        1.0  0.9939  0.026750000000000003  0.51204  1.0000
  O   O6        1.0  0.90083  0.9041399999999999  0.49449  1.0000
  O   O7        1.0  0.16255  0.51459  0.02671  1.0000
  O   O8        1.0  0.06813000000000001  0.4097999999999999  0.90437  1.0000
  O   O9        1.0  0.8303200000000001  0.512  0.4854199999999999  1.0000
  O   O10       1.0  0.73445  0.49539999999999984  0.5902299999999998  1.0000
  O   O11       1.0  0.4939  0.9732500000000001  0.4879599999999999  1.0000
  O   O12       1.0  0.40084  0.09586000000000001  0.50552  1.0000
