data_image0
_chemical_formula_structural       Zn4H60C92N8O20
_chemical_formula_sum              "Zn4 H60 C92 N8 O20"
_cell_length_a       14.41077
_cell_length_b       14.41054
_cell_length_c       16.25386
_cell_angle_alpha    101.88125
_cell_angle_beta     101.92007000000001
_cell_angle_gamma    117.19125

_symmetry_space_group_name_H-M    'P 1'
_symmetry_Int_Tables_number       1

loop_
  _symmetry_equiv_pos_as_xyz
  'x,y,z'

loop_
  _atom_site_type_symbol
  _atom_site_label
  _atom_site_symmetry_multiplicity
  _atom_site_fract_x
  _atom_site_fract_y
  _atom_site_fract_z
  _atom_site_occupancy
  Zn  Zn1       1.0  0.56511  0.5924800000000001  0.36064  1.0000
  Zn  Zn2       1.0  0.4075  0.43488  0.1394  1.0000
  Zn  Zn3       1.0  0.43488  0.40752  0.63936  1.0000
  Zn  Zn4       1.0  0.5924900000000002  0.56512  0.8606  1.0000
  H   H1        1.0  0.6209200000000001  0.30984  0.37815  1.0000
  H   H2        1.0  0.72601  0.21142  0.3859299999999999  1.0000
  H   H3        1.0  0.99053  0.4742500000000001  0.34074  1.0000
  H   H4        1.0  0.8856300000000003  0.5722300000000001  0.33476999999999996  1.0000
  H   H5        1.0  0.92883  0.22591000000000006  0.20872999999999994  1.0000
  H   H6        1.0  0.10677000000000006  0.30244000000000004  0.17373999999999995  1.0000
  H   H7        1.0  0.2934400000000001  0.49256  0.45315  1.0000
  H   H8        1.0  0.11658999999999999  0.41713  0.48736999999999997  1.0000
  H   H9        1.0  0.49248  0.6140000000000001  0.51783  1.0000
  H   H10       1.0  0.57874  0.71168  0.68285  1.0000
  H   H11       1.0  0.89345  0.8916699999999999  0.6458499999999998  1.0000
  H   H12       1.0  0.7939500000000003  0.7846  0.4804099999999999  1.0000
  H   H13       1.0  0.74057  0.83996  0.8134299999999998  1.0000
  H   H14       1.0  0.07880000000000001  0.92338  0.90262  1.0000
  H   H15       1.0  0.8342  0.00845999999999989  0.9312899999999997  1.0000
  H   H16       1.0  0.6901500000000002  0.3791  0.12184999999999997  1.0000
  H   H17       1.0  0.78856  0.274  0.11406  1.0000
  H   H18       1.0  0.52575  0.009449999999999997  0.15925  1.0000
  H   H19       1.0  0.42779  0.11436000000000003  0.16524  1.0000
  H   H20       1.0  0.77405  0.07111999999999995  0.2912599999999999  1.0000
  H   H21       1.0  0.69752  0.89318  0.32627  1.0000
  H   H22       1.0  0.5074500000000001  0.7065800000000002  0.04684  1.0000
  H   H23       1.0  0.58287  0.8834500000000001  0.0126  1.0000
  H   H24       1.0  0.38594999999999985  0.5074799999999999  0.9821199999999998  1.0000
  H   H25       1.0  0.28830000000000006  0.4212400000000001  0.81709  1.0000
  H   H26       1.0  0.10833999999999994  0.1065499999999999  0.8541699999999998  1.0000
  H   H27       1.0  0.21539  0.20603  0.01961999999999999  1.0000
  H   H28       1.0  0.16002000000000005  0.2594  0.68652  1.0000
  H   H29       1.0  0.07667000000000002  0.92121  0.5974499999999998  1.0000
  H   H30       1.0  0.99152  0.1657599999999999  0.5686099999999997  1.0000
  H   H31       1.0  0.3790700000000001  0.6901600000000002  0.62185  1.0000
  H   H32       1.0  0.2739800000000001  0.7885800000000002  0.61407  1.0000
  H   H33       1.0  0.00945999999999995  0.52575  0.6592599999999997  1.0000
  H   H34       1.0  0.11436000000000011  0.4277700000000001  0.66523  1.0000
  H   H35       1.0  0.07115999999999995  0.77409  0.7912699999999998  1.0000
  H   H36       1.0  0.8932200000000001  0.69756  0.82626  1.0000
  H   H37       1.0  0.7065499999999999  0.50744  0.5468499999999997  1.0000
  H   H38       1.0  0.8834000000000002  0.5828700000000001  0.5126299999999999  1.0000
  H   H39       1.0  0.50751  0.38599999999999995  0.4821699999999999  1.0000
  H   H40       1.0  0.42125  0.28832  0.31714  1.0000
  H   H41       1.0  0.10653999999999995  0.10832999999999995  0.3541499999999999  1.0000
  H   H42       1.0  0.20604  0.2154  0.51959  1.0000
  H   H43       1.0  0.25942  0.16004000000000004  0.18656999999999996  1.0000
  H   H44       1.0  0.92119  0.07662000000000001  0.09738  1.0000
  H   H45       1.0  0.16579000000000005  0.9915400000000001  0.0687  1.0000
  H   H46       1.0  0.30984  0.6209  0.87815  1.0000
  H   H47       1.0  0.21142999999999995  0.726  0.8859399999999998  1.0000
  H   H48       1.0  0.4742400000000001  0.99055  0.84075  1.0000
  H   H49       1.0  0.5722000000000003  0.88564  0.83476  1.0000
  H   H50       1.0  0.22594000000000014  0.9288800000000004  0.70874  1.0000
  H   H51       1.0  0.30247000000000007  0.10682000000000003  0.67373  1.0000
  H   H52       1.0  0.4925399999999999  0.29341999999999996  0.9531599999999998  1.0000
  H   H53       1.0  0.4171200000000001  0.11655  0.9874  1.0000
  H   H54       1.0  0.61404  0.49252  0.01788  1.0000
  H   H55       1.0  0.71169  0.57876  0.18291  1.0000
  H   H56       1.0  0.8916500000000003  0.89345  0.14581999999999995  1.0000
  H   H57       1.0  0.7845999999999999  0.7939699999999998  0.9803799999999998  1.0000
  H   H58       1.0  0.8399700000000001  0.7406  0.31348  1.0000
  H   H59       1.0  0.9233200000000003  0.07879  0.4025499999999999  1.0000
  H   H60       1.0  0.00846999999999999  0.8342400000000001  0.4313899999999999  1.0000
  C   C1        1.0  0.7470200000000002  0.44749999999999995  0.3560099999999999  1.0000
  C   C2        1.0  0.7019400000000002  0.34537000000000007  0.37038  1.0000
  C   C3        1.0  0.7599600000000001  0.29045  0.37484  1.0000
  C   C4        1.0  0.86386  0.33708  0.36394  1.0000
  C   C5        1.0  0.91005  0.43864  0.34918  1.0000
  C   C6        1.0  0.8511900000000002  0.4928800000000001  0.3455  1.0000
  C   C7        1.0  0.68908  0.51015  0.35511  1.0000
  C   C8        1.0  0.015140000000000002  0.31817  0.34946  1.0000
  C   C9        1.0  0.00958  0.28394  0.26091  1.0000
  C   C10       1.0  0.10794000000000002  0.3268  0.24201  1.0000
  C   C11       1.0  0.21047000000000007  0.4028700000000001  0.31107  1.0000
  C   C12       1.0  0.21384000000000009  0.4343800000000001  0.39979  1.0000
  C   C13       1.0  0.11593000000000007  0.3919300000000001  0.41938  1.0000
  C   C14       1.0  0.31528  0.44916  0.28972  1.0000
  C   C15       1.0  0.5804900000000003  0.6771400000000002  0.5485199999999998  1.0000
  C   C16       1.0  0.6291900000000001  0.73297  0.64052  1.0000
  C   C17       1.0  0.7439700000000002  0.81063  0.6774  1.0000
  C   C18       1.0  0.80444  0.8317600000000003  0.61892  1.0000
  C   C19       1.0  0.7498  0.77315  0.52778  1.0000
  C   C20       1.0  0.7969600000000002  0.86061  0.77494  1.0000
  C   C21       1.0  0.9496300000000002  0.9592100000000001  0.9059099999999998  1.0000
  C   C22       1.0  0.04508999999999992  0.9573300000000001  0.9458099999999998  1.0000
  C   C23       1.0  0.9060899999999998  0.003939999999999948  0.9615399999999997  1.0000
  C   C24       1.0  0.5525  0.25298  0.14398999999999995  1.0000
  C   C25       1.0  0.65462  0.29807000000000006  0.12962  1.0000
  C   C26       1.0  0.70954  0.24005000000000004  0.12515  1.0000
  C   C27       1.0  0.6629100000000001  0.13614000000000004  0.13603999999999994  1.0000
  C   C28       1.0  0.56136  0.08995000000000003  0.15082  1.0000
  C   C29       1.0  0.50713  0.1488  0.15451  1.0000
  C   C30       1.0  0.48985999999999996  0.31093  0.14489999999999995  1.0000
  C   C31       1.0  0.68182  0.9848400000000003  0.15050999999999995  1.0000
  C   C32       1.0  0.71603  0.9903800000000003  0.23907999999999996  1.0000
  C   C33       1.0  0.67317  0.8920300000000001  0.25799  1.0000
  C   C34       1.0  0.5971100000000003  0.78951  0.18892999999999996  1.0000
  C   C35       1.0  0.56562  0.78617  0.10019  1.0000
  C   C36       1.0  0.60806  0.88408  0.0806  1.0000
  C   C37       1.0  0.5508200000000002  0.6847000000000002  0.21028  1.0000
  C   C38       1.0  0.32282  0.41948  0.95145  1.0000
  C   C39       1.0  0.26700999999999997  0.37078  0.8594399999999998  1.0000
  C   C40       1.0  0.18936000000000003  0.25601000000000007  0.82258  1.0000
  C   C41       1.0  0.1682399999999999  0.19554999999999995  0.8810899999999998  1.0000
  C   C42       1.0  0.2268299999999999  0.2501799999999999  0.9722299999999998  1.0000
  C   C43       1.0  0.13939000000000007  0.20300000000000004  0.72503  1.0000
  C   C44       1.0  0.040810000000000006  0.05036000000000001  0.59409  1.0000
  C   C45       1.0  0.04270000000000022  0.9549200000000004  0.55423  1.0000
  C   C46       1.0  0.99605  0.09386999999999994  0.5384099999999999  1.0000
  C   C47       1.0  0.25297  0.5525  0.64398  1.0000
  C   C48       1.0  0.29805  0.65463  0.62961  1.0000
  C   C49       1.0  0.24003000000000002  0.70955  0.6251599999999999  1.0000
  C   C50       1.0  0.13613  0.66292  0.63605  1.0000
  C   C51       1.0  0.08994000000000005  0.56136  0.65082  1.0000
  C   C52       1.0  0.14880000000000004  0.50712  0.6545  1.0000
  C   C53       1.0  0.31091  0.4898500000000001  0.64489  1.0000
  C   C54       1.0  0.9848500000000002  0.6818300000000002  0.65054  1.0000
  C   C55       1.0  0.99041  0.71605  0.73909  1.0000
  C   C56       1.0  0.8920499999999999  0.6731999999999999  0.7579899999999998  1.0000
  C   C57       1.0  0.78952  0.59713  0.68893  1.0000
  C   C58       1.0  0.7861500000000001  0.56562  0.60021  1.0000
  C   C59       1.0  0.8840600000000003  0.60807  0.5806199999999998  1.0000
  C   C60       1.0  0.6847099999999999  0.5508400000000001  0.7102699999999997  1.0000
  C   C61       1.0  0.4195  0.32286000000000004  0.45148  1.0000
  C   C62       1.0  0.3708  0.26703  0.35947  1.0000
  C   C63       1.0  0.25602  0.18936999999999996  0.3225999999999999  1.0000
  C   C64       1.0  0.19554999999999997  0.16823999999999997  0.38107999999999986  1.0000
  C   C65       1.0  0.25019  0.22685  0.47221999999999986  1.0000
  C   C66       1.0  0.20303  0.13939  0.22506  1.0000
  C   C67       1.0  0.050359999999999995  0.040789999999999986  0.09408999999999997  1.0000
  C   C68       1.0  0.9548999999999999  0.04267  0.05419  1.0000
  C   C69       1.0  0.09388999999999996  0.99606  0.03846  1.0000
  C   C70       1.0  0.44749  0.74702  0.85601  1.0000
  C   C71       1.0  0.34537  0.70193  0.87038  1.0000
  C   C72       1.0  0.29045000000000015  0.7599500000000002  0.87485  1.0000
  C   C73       1.0  0.3370800000000001  0.8638600000000002  0.8639599999999998  1.0000
  C   C74       1.0  0.43862999999999996  0.91005  0.8491799999999999  1.0000
  C   C75       1.0  0.4928600000000001  0.8512  0.8454899999999997  1.0000
  C   C76       1.0  0.5101299999999999  0.68907  0.8550899999999998  1.0000
  C   C77       1.0  0.31817  0.01515999999999997  0.84949  1.0000
  C   C78       1.0  0.28396  0.009609999999999997  0.76092  1.0000
  C   C79       1.0  0.32682  0.10797  0.74201  1.0000
  C   C80       1.0  0.40288  0.21049000000000007  0.81107  1.0000
  C   C81       1.0  0.43437  0.21382999999999996  0.8998099999999998  1.0000
  C   C82       1.0  0.39192999999999995  0.11591999999999995  0.9193999999999998  1.0000
  C   C83       1.0  0.44917  0.3153  0.78972  1.0000
  C   C84       1.0  0.67717  0.58052  0.04855  1.0000
  C   C85       1.0  0.7329800000000001  0.6292200000000002  0.14055999999999993  1.0000
  C   C86       1.0  0.81063  0.74399  0.17742  1.0000
  C   C87       1.0  0.8317500000000001  0.8044500000000002  0.11890999999999999  1.0000
  C   C88       1.0  0.7731600000000002  0.7498200000000002  0.02777  1.0000
  C   C89       1.0  0.8606000000000003  0.797  0.27495999999999987  1.0000
  C   C90       1.0  0.9591799999999999  0.9496399999999999  0.40591  1.0000
  C   C91       1.0  0.95729  0.045079999999999974  0.4457699999999999  1.0000
  C   C92       1.0  0.003939999999999995  0.90612  0.4615899999999999  1.0000
  N   N1        1.0  0.63935  0.69583  0.49264  1.0000
  N   N2        1.0  0.90392  0.91734  0.81224  1.0000
  N   N3        1.0  0.30413  0.36062  0.00735  1.0000
  N   N4        1.0  0.08270000000000002  0.09608  0.68777  1.0000
  N   N5        1.0  0.36064000000000007  0.30417  0.50735  1.0000
  N   N6        1.0  0.09607000000000002  0.08266000000000003  0.18776  1.0000
  N   N7        1.0  0.69586  0.6393800000000002  0.99264  1.0000
  N   N8        1.0  0.91729  0.9039200000000002  0.31223  1.0000
  O   O1        1.0  0.9160600000000002  0.27696  0.36847  1.0000
  O   O2        1.0  0.58914  0.46337  0.35812  1.0000
  O   O3        1.0  0.7374500000000003  0.60807  0.35350999999999994  1.0000
  O   O4        1.0  0.4056100000000001  0.5217400000000002  0.35424  1.0000
  O   O5        1.0  0.3052700000000001  0.4115700000000002  0.20809  1.0000
  O   O6        1.0  0.72299  0.08391  0.13144999999999998  1.0000
  O   O7        1.0  0.53663  0.41086000000000006  0.14189  1.0000
  O   O8        1.0  0.39194  0.26256  0.14651999999999996  1.0000
  O   O9        1.0  0.47825  0.59438  0.14577  1.0000
  O   O10       1.0  0.58841  0.69471  0.29193  1.0000
  O   O11       1.0  0.08392999999999999  0.72304  0.63153  1.0000
  O   O12       1.0  0.41085000000000005  0.53663  0.64188  1.0000
  O   O13       1.0  0.2625399999999999  0.3919299999999999  0.6464899999999998  1.0000
  O   O14       1.0  0.5943800000000001  0.47826000000000013  0.64576  1.0000
  O   O15       1.0  0.6947200000000001  0.58843  0.7919099999999998  1.0000
  O   O16       1.0  0.27699999999999997  0.91609  0.8685399999999998  1.0000
  O   O17       1.0  0.46335999999999994  0.58914  0.8581099999999998  1.0000
  O   O18       1.0  0.60805  0.73744  0.85348  1.0000
  O   O19       1.0  0.5217400000000001  0.4056200000000001  0.85423  1.0000
  O   O20       1.0  0.41157999999999995  0.30527999999999994  0.7080699999999998  1.0000
