data_image0
_chemical_formula_structural       Zn8H36C96O32
_chemical_formula_sum              "Zn8 H36 C96 O32"
_cell_length_a       11.34965
_cell_length_b       16.2548
_cell_length_c       24.11875
_cell_angle_alpha    90.0
_cell_angle_beta     96.14342999999998
_cell_angle_gamma    90.0

_space_group_name_H-M_alt    "P 1"
_space_group_IT_number       1

loop_
  _space_group_symop_operation_xyz
  'x, y, z'

loop_
  _atom_site_type_symbol
  _atom_site_label
  _atom_site_symmetry_multiplicity
  _atom_site_fract_x
  _atom_site_fract_y
  _atom_site_fract_z
  _atom_site_occupancy
  Zn  Zn1       1.0  0.9512500000000003  0.48562  0.14865  1.0000
  Zn  Zn2       1.0  0.11079  0.3730500000000001  0.22043  1.0000
  Zn  Zn3       1.0  0.04874  0.98562  0.35135  1.0000
  Zn  Zn4       1.0  0.8892000000000002  0.87305  0.27957  1.0000
  Zn  Zn5       1.0  0.048740000000000006  0.5143800000000002  0.85135  1.0000
  Zn  Zn6       1.0  0.8892000000000001  0.6269500000000002  0.77957  1.0000
  Zn  Zn7       1.0  0.9512500000000003  0.01438  0.64865  1.0000
  Zn  Zn8       1.0  0.11079  0.12695000000000006  0.72043  1.0000
  H   H1        1.0  0.22306000000000006  0.51238  0.41119  1.0000
  H   H2        1.0  0.23626  0.38039000000000006  0.45907999999999993  1.0000
  H   H3        1.0  0.48385  0.7464100000000002  0.40514999999999995  1.0000
  H   H4        1.0  0.33098  0.24732  0.43103  1.0000
  H   H5        1.0  0.10613000000000002  0.07541  0.50449  1.0000
  H   H6        1.0  0.30140000000000006  0.25524  0.60804  1.0000
  H   H7        1.0  0.28314000000000006  0.77751  0.38772  1.0000
  H   H8        1.0  0.06571000000000002  0.6932200000000002  0.24130999999999994  1.0000
  H   H9        1.0  0.30745000000000006  0.5263500000000002  0.33267  1.0000
  H   H10       1.0  0.7769400000000001  0.01239  0.08880999999999997  1.0000
  H   H11       1.0  0.76373  0.88039  0.04092  1.0000
  H   H12       1.0  0.51614  0.24641000000000002  0.09485  1.0000
  H   H13       1.0  0.6690200000000001  0.74732  0.06898  1.0000
  H   H14       1.0  0.8938600000000001  0.57541  0.99552  1.0000
  H   H15       1.0  0.69859  0.7552300000000002  0.8919699999999998  1.0000
  H   H16       1.0  0.7168500000000001  0.27751  0.11228  1.0000
  H   H17       1.0  0.9342900000000002  0.19322  0.25869  1.0000
  H   H18       1.0  0.69254  0.026350000000000005  0.16733  1.0000
  H   H19       1.0  0.7769400000000001  0.48761  0.58882  1.0000
  H   H20       1.0  0.76373  0.6196100000000002  0.54092  1.0000
  H   H21       1.0  0.51614  0.25359  0.59485  1.0000
  H   H22       1.0  0.6690200000000001  0.7526800000000002  0.56898  1.0000
  H   H23       1.0  0.8938600000000001  0.9245900000000002  0.49552  1.0000
  H   H24       1.0  0.69859  0.74476  0.39196  1.0000
  H   H25       1.0  0.7168500000000001  0.22249  0.61229  1.0000
  H   H26       1.0  0.9342900000000002  0.3067800000000001  0.75869  1.0000
  H   H27       1.0  0.69254  0.4736500000000001  0.66733  1.0000
  H   H28       1.0  0.22305000000000003  0.98761  0.9111899999999999  1.0000
  H   H29       1.0  0.23626  0.11961  0.95908  1.0000
  H   H30       1.0  0.48385  0.75359  0.90516  1.0000
  H   H31       1.0  0.33098  0.25268  0.93103  1.0000
  H   H32       1.0  0.10613000000000002  0.42459  0.00449  1.0000
  H   H33       1.0  0.3014  0.24476000000000006  0.10804  1.0000
  H   H34       1.0  0.28314000000000006  0.7224800000000002  0.8877199999999998  1.0000
  H   H35       1.0  0.0657  0.80678  0.74132  1.0000
  H   H36       1.0  0.30745  0.97365  0.8326699999999998  1.0000
  C   C1        1.0  0.3032  0.49727  0.43796999999999997  1.0000
  C   C2        1.0  0.31003000000000003  0.4232700000000001  0.46504  1.0000
  C   C3        1.0  0.41144000000000003  0.40139  0.5024  1.0000
  C   C4        1.0  0.49644000000000005  0.53875  0.48567  1.0000
  C   C5        1.0  0.3978600000000001  0.55588  0.44487999999999994  1.0000
  C   C6        1.0  0.39662  0.6309200000000001  0.41433  1.0000
  C   C7        1.0  0.48610000000000003  0.6888400000000002  0.42824  1.0000
  C   C8        1.0  0.41986000000000007  0.32457  0.53041  1.0000
  C   C9        1.0  0.3288  0.2590800000000001  0.5208  1.0000
  C   C10       1.0  0.29421  0.22462000000000004  0.46802  1.0000
  C   C11       1.0  0.21412  0.15866  0.46201999999999993  1.0000
  C   C12       1.0  0.16709  0.12705  0.50899  1.0000
  C   C13       1.0  0.19785000000000003  0.16261  0.56141  1.0000
  C   C14       1.0  0.27848  0.22813000000000005  0.56711  1.0000
  C   C15       1.0  0.30632000000000004  0.64911  0.36697  1.0000
  C   C16       1.0  0.258  0.7283000000000002  0.35819  1.0000
  C   C17       1.0  0.17446000000000003  0.7446800000000002  0.31222  1.0000
  C   C18       1.0  0.13389  0.68133  0.27554999999999996  1.0000
  C   C19       1.0  0.18076  0.60233  0.28417  1.0000
  C   C20       1.0  0.26882  0.58741  0.32831  1.0000
  C   C21       1.0  0.13398000000000002  0.53195  0.24909  1.0000
  C   C22       1.0  0.1452  0.13198  0.61122  1.0000
  C   C23       1.0  0.11769000000000002  0.827  0.30497  1.0000
  C   C24       1.0  0.17744000000000004  0.12205000000000003  0.4050599999999999  1.0000
  C   C25       1.0  0.6968000000000001  0.9972700000000001  0.062029999999999995  1.0000
  C   C26       1.0  0.68996  0.9232700000000001  0.03497  1.0000
  C   C27       1.0  0.58855  0.90139  0.9976  1.0000
  C   C28       1.0  0.50355  0.03875  0.014329999999999999  1.0000
  C   C29       1.0  0.6021300000000002  0.05588  0.055119999999999995  1.0000
  C   C30       1.0  0.60338  0.13092  0.08566999999999997  1.0000
  C   C31       1.0  0.5139  0.18884000000000006  0.07176  1.0000
  C   C32       1.0  0.58013  0.8245600000000002  0.9695999999999999  1.0000
  C   C33       1.0  0.67119  0.75908  0.9792  1.0000
  C   C34       1.0  0.70579  0.7246200000000003  0.03198  1.0000
  C   C35       1.0  0.7858700000000002  0.65866  0.03798  1.0000
  C   C36       1.0  0.8329000000000001  0.62705  0.99101  1.0000
  C   C37       1.0  0.80214  0.66261  0.93859  1.0000
  C   C38       1.0  0.72152  0.72813  0.9328899999999998  1.0000
  C   C39       1.0  0.69368  0.14911  0.13303  1.0000
  C   C40       1.0  0.7419900000000001  0.2283  0.14181  1.0000
  C   C41       1.0  0.82554  0.24468  0.18778999999999998  1.0000
  C   C42       1.0  0.8661100000000002  0.18133  0.22444999999999998  1.0000
  C   C43       1.0  0.81923  0.10233  0.21583  1.0000
  C   C44       1.0  0.7311800000000003  0.08741  0.17169  1.0000
  C   C45       1.0  0.86601  0.03195000000000001  0.25091  1.0000
  C   C46       1.0  0.85479  0.63198  0.8887899999999999  1.0000
  C   C47       1.0  0.88231  0.3270000000000001  0.19502999999999998  1.0000
  C   C48       1.0  0.82256  0.62205  0.09494  1.0000
  C   C49       1.0  0.6968000000000001  0.50272  0.5620299999999999  1.0000
  C   C50       1.0  0.68996  0.57673  0.53497  1.0000
  C   C51       1.0  0.58855  0.5986000000000002  0.49759999999999993  1.0000
  C   C52       1.0  0.50355  0.46125  0.51433  1.0000
  C   C53       1.0  0.6021300000000002  0.4441200000000001  0.55512  1.0000
  C   C54       1.0  0.6033800000000001  0.36908000000000013  0.58567  1.0000
  C   C55       1.0  0.51389  0.3111600000000001  0.57177  1.0000
  C   C56       1.0  0.58013  0.67543  0.4696  1.0000
  C   C57       1.0  0.67119  0.74092  0.47919999999999996  1.0000
  C   C58       1.0  0.70579  0.77538  0.53198  1.0000
  C   C59       1.0  0.7858700000000002  0.84133  0.53798  1.0000
  C   C60       1.0  0.8329000000000001  0.87295  0.49101  1.0000
  C   C61       1.0  0.80214  0.83739  0.43858999999999987  1.0000
  C   C62       1.0  0.72152  0.77187  0.4328899999999999  1.0000
  C   C63       1.0  0.69368  0.3508900000000001  0.63303  1.0000
  C   C64       1.0  0.7419900000000001  0.2717  0.64181  1.0000
  C   C65       1.0  0.82554  0.25532  0.68779  1.0000
  C   C66       1.0  0.8661000000000001  0.3186700000000001  0.7244599999999999  1.0000
  C   C67       1.0  0.81923  0.39767  0.7158299999999999  1.0000
  C   C68       1.0  0.7311800000000003  0.41259  0.67169  1.0000
  C   C69       1.0  0.86601  0.4680400000000001  0.75092  1.0000
  C   C70       1.0  0.85479  0.8680200000000002  0.38879  1.0000
  C   C71       1.0  0.88231  0.173  0.69503  1.0000
  C   C72       1.0  0.8225500000000002  0.87795  0.59495  1.0000
  C   C73       1.0  0.30319  0.00273  0.93797  1.0000
  C   C74       1.0  0.31003000000000003  0.07673  0.9650399999999999  1.0000
  C   C75       1.0  0.41144000000000003  0.09861  0.0024  1.0000
  C   C76       1.0  0.49644000000000005  0.9612500000000003  0.98567  1.0000
  C   C77       1.0  0.3978600000000001  0.9441200000000002  0.94489  1.0000
  C   C78       1.0  0.3966100000000001  0.86908  0.91433  1.0000
  C   C79       1.0  0.4861000000000001  0.81116  0.92824  1.0000
  C   C80       1.0  0.41986000000000007  0.17543000000000006  0.03041  1.0000
  C   C81       1.0  0.32881  0.24092000000000002  0.0208  1.0000
  C   C82       1.0  0.29420999999999997  0.2753800000000001  0.9680199999999999  1.0000
  C   C83       1.0  0.21412  0.34134  0.96203  1.0000
  C   C84       1.0  0.16709  0.37295  0.00899  1.0000
  C   C85       1.0  0.19785000000000003  0.33739  0.06141  1.0000
  C   C86       1.0  0.27848  0.27187  0.06711  1.0000
  C   C87       1.0  0.30631  0.8508900000000003  0.86697  1.0000
  C   C88       1.0  0.258  0.7717  0.85819  1.0000
  C   C89       1.0  0.17445  0.75532  0.81222  1.0000
  C   C90       1.0  0.13389  0.8186700000000002  0.77555  1.0000
  C   C91       1.0  0.18076  0.89767  0.78417  1.0000
  C   C92       1.0  0.26881  0.9125900000000002  0.82831  1.0000
  C   C93       1.0  0.13397999999999993  0.96804  0.7490899999999998  1.0000
  C   C94       1.0  0.14520999999999998  0.36802  0.11120999999999998  1.0000
  C   C95       1.0  0.11767999999999995  0.67299  0.8049799999999998  1.0000
  C   C96       1.0  0.17744000000000004  0.37795  0.90506  1.0000
  O   O1        1.0  0.16671  0.17577  0.65626  1.0000
  O   O2        1.0  0.08372999999999998  0.06658  0.6082199999999999  1.0000
  O   O3        1.0  0.04048  0.8367400000000003  0.26176  1.0000
  O   O4        1.0  0.14306000000000002  0.88236  0.34157  1.0000
  O   O5        1.0  0.18968  0.4629100000000001  0.25841  1.0000
  O   O6        1.0  0.04261999999999999  0.54209  0.21438999999999997  1.0000
  O   O7        1.0  0.12471  0.05037  0.40896  1.0000
  O   O8        1.0  0.19634  0.15788  0.36166  1.0000
  O   O9        1.0  0.83328  0.6757700000000002  0.84374  1.0000
  O   O10       1.0  0.9162600000000002  0.56658  0.8917899999999999  1.0000
  O   O11       1.0  0.95951  0.33674  0.23824  1.0000
  O   O12       1.0  0.8569400000000001  0.38237  0.15843999999999997  1.0000
  O   O13       1.0  0.8103100000000002  0.96291  0.24158999999999994  1.0000
  O   O14       1.0  0.9573700000000003  0.04209000000000001  0.28561  1.0000
  O   O15       1.0  0.8752900000000002  0.55037  0.09103999999999997  1.0000
  O   O16       1.0  0.8036600000000003  0.6578800000000002  0.13834  1.0000
  O   O17       1.0  0.83329  0.82423  0.34374  1.0000
  O   O18       1.0  0.9162700000000003  0.93342  0.39178999999999997  1.0000
  O   O19       1.0  0.95951  0.16326  0.73824  1.0000
  O   O20       1.0  0.8569400000000001  0.11763  0.65844  1.0000
  O   O21       1.0  0.8103100000000002  0.53708  0.74159  1.0000
  O   O22       1.0  0.9573700000000003  0.4579000000000001  0.78561  1.0000
  O   O23       1.0  0.8752900000000002  0.9496300000000002  0.59104  1.0000
  O   O24       1.0  0.8036600000000003  0.84212  0.63834  1.0000
  O   O25       1.0  0.16671  0.32423000000000013  0.15626  1.0000
  O   O26       1.0  0.08373  0.43342  0.10820999999999999  1.0000
  O   O27       1.0  0.04048  0.66326  0.76176  1.0000
  O   O28       1.0  0.14306  0.61763  0.84157  1.0000
  O   O29       1.0  0.18968  0.03709  0.75842  1.0000
  O   O30       1.0  0.04262  0.9579  0.7144  1.0000
  O   O31       1.0  0.12470000000000002  0.44963  0.9089699999999998  1.0000
  O   O32       1.0  0.19632999999999998  0.3421200000000001  0.8616599999999999  1.0000
