data_image0
_chemical_formula_structural       Ce4Mg6H36C84N12O48
_chemical_formula_sum              "Ce4 Mg6 H36 C84 N12 O48"
_cell_length_a       14.57297
_cell_length_b       15.7456
_cell_length_c       15.74573
_cell_angle_alpha    120.0416
_cell_angle_beta     90.0
_cell_angle_gamma    90.0

_space_group_name_H-M_alt    "P 1"
_space_group_IT_number       1

loop_
  _space_group_symop_operation_xyz
  'x, y, z'

loop_
  _atom_site_type_symbol
  _atom_site_label
  _atom_site_symmetry_multiplicity
  _atom_site_fract_x
  _atom_site_fract_y
  _atom_site_fract_z
  _atom_site_occupancy
  Ce  Ce1       1.0  0.24985  0.33324  0.66671  1.0000
  Ce  Ce2       1.0  0.24985  0.66676  0.3333  1.0000
  Ce  Ce3       1.0  0.75015  0.66676  0.3333  1.0000
  Ce  Ce4       1.0  0.75015  0.33324  0.66671  1.0000
  Mg  Mg1       1.0  0.0  0.9999999999999999  0.4999999999999999  1.0000
  Mg  Mg2       1.0  0.0  0.5  0.0  1.0000
  Mg  Mg3       1.0  0.0  0.5  0.4999999999999999  1.0000
  Mg  Mg4       1.0  0.5  0.5  0.4999999999999999  1.0000
  Mg  Mg5       1.0  0.5  0.5  0.0  1.0000
  Mg  Mg6       1.0  0.5  0.9999999999999999  0.4999999999999999  1.0000
  H   H1        1.0  0.14804999999999993  0.04229000000000003  0.28725  1.0000
  H   H2        1.0  0.14806  0.24509  0.9576  1.0000
  H   H3        1.0  0.14818  0.71257  0.75503  1.0000
  H   H4        1.0  0.14804999999999993  0.9577199999999999  0.7127499999999998  1.0000
  H   H5        1.0  0.14806  0.75491  0.04241  1.0000
  H   H6        1.0  0.14818  0.28743  0.24496999999999994  1.0000
  H   H7        1.0  0.3516899999999999  0.75511  0.71267  1.0000
  H   H8        1.0  0.35181  0.28715  0.04226999999999999  1.0000
  H   H9        1.0  0.3518  0.95762  0.24501  1.0000
  H   H10       1.0  0.3516899999999999  0.24489  0.28733  1.0000
  H   H11       1.0  0.35181  0.71285  0.9577299999999997  1.0000
  H   H12       1.0  0.3518  0.04237999999999988  0.7549899999999998  1.0000
  H   H13       1.0  0.85195  0.9577199999999999  0.7127499999999998  1.0000
  H   H14       1.0  0.8519399999999999  0.75491  0.04241  1.0000
  H   H15       1.0  0.85182  0.28743  0.24496999999999994  1.0000
  H   H16       1.0  0.85195  0.04229000000000003  0.28725  1.0000
  H   H17       1.0  0.8519399999999999  0.24509  0.9576  1.0000
  H   H18       1.0  0.85182  0.71257  0.75503  1.0000
  H   H19       1.0  0.64831  0.24489  0.28733  1.0000
  H   H20       1.0  0.64819  0.71285  0.9577299999999997  1.0000
  H   H21       1.0  0.6482  0.04237999999999988  0.7549899999999998  1.0000
  H   H22       1.0  0.64831  0.75511  0.71267  1.0000
  H   H23       1.0  0.64819  0.28715  0.04226999999999999  1.0000
  H   H24       1.0  0.6482  0.95762  0.24501  1.0000
  H   H25       1.0  0.24979  0.09583999999999997  0.19183999999999996  1.0000
  H   H26       1.0  0.24987  0.09603999999999999  0.904  1.0000
  H   H27       1.0  0.24995  0.8081599999999999  0.9041299999999998  1.0000
  H   H28       1.0  0.24979  0.90417  0.8081599999999999  1.0000
  H   H29       1.0  0.24987  0.90396  0.096  1.0000
  H   H30       1.0  0.24995  0.19184  0.09587999999999998  1.0000
  H   H31       1.0  0.75021  0.90417  0.8081599999999999  1.0000
  H   H32       1.0  0.75013  0.90396  0.096  1.0000
  H   H33       1.0  0.75005  0.19184  0.09587999999999998  1.0000
  H   H34       1.0  0.75021  0.09583999999999997  0.19183999999999996  1.0000
  H   H35       1.0  0.75013  0.09603999999999999  0.904  1.0000
  H   H36       1.0  0.75005  0.8081599999999999  0.9041299999999998  1.0000
  C   C1        1.0  0.13875  0.13133999999999998  0.4883299999999999  1.0000
  C   C2        1.0  0.19610999999999998  0.15837  0.42554  1.0000
  C   C3        1.0  0.19333  0.10552000000000002  0.3231  1.0000
  C   C4        1.0  0.13873  0.35699999999999993  0.8686199999999998  1.0000
  C   C5        1.0  0.19610999999999998  0.2671699999999999  0.8415799999999998  1.0000
  C   C6        1.0  0.19337  0.21762999999999988  0.8943899999999998  1.0000
  C   C7        1.0  0.13879  0.5114899999999999  0.6429599999999998  1.0000
  C   C8        1.0  0.19615  0.5743600000000002  0.73286  1.0000
  C   C9        1.0  0.19344  0.6768  0.7824599999999999  1.0000
  C   C10       1.0  0.13875  0.86866  0.51167  1.0000
  C   C11       1.0  0.19610999999999998  0.8416399999999999  0.57446  1.0000
  C   C12       1.0  0.19333  0.8944800000000002  0.6769  1.0000
  C   C13       1.0  0.13873  0.643  0.13138  1.0000
  C   C14       1.0  0.19610999999999998  0.7328300000000002  0.15842  1.0000
  C   C15       1.0  0.19337  0.7823799999999997  0.10560999999999997  1.0000
  C   C16       1.0  0.13879  0.48852  0.35704  1.0000
  C   C17       1.0  0.19615  0.4256400000000001  0.26715  1.0000
  C   C18       1.0  0.19344  0.3232  0.21754  1.0000
  C   C19       1.0  0.36117999999999995  0.64291  0.51147  1.0000
  C   C20       1.0  0.30398  0.7329999999999999  0.5743399999999999  1.0000
  C   C21       1.0  0.30649999999999994  0.7825  0.6768099999999999  1.0000
  C   C22       1.0  0.36121  0.48836  0.13131999999999996  1.0000
  C   C23       1.0  0.30401  0.42558  0.15852999999999995  1.0000
  C   C24       1.0  0.30661  0.3231  0.10555999999999997  1.0000
  C   C25       1.0  0.36124  0.86865  0.35704999999999987  1.0000
  C   C26       1.0  0.30402  0.84141  0.26702999999999993  1.0000
  C   C27       1.0  0.30657999999999996  0.89435  0.21758  1.0000
  C   C28       1.0  0.36117999999999995  0.35709  0.4885299999999999  1.0000
  C   C29       1.0  0.30398  0.26701  0.42566  1.0000
  C   C30       1.0  0.30649999999999994  0.2175  0.32319  1.0000
  C   C31       1.0  0.36121  0.51164  0.8686899999999997  1.0000
  C   C32       1.0  0.30401  0.57443  0.84147  1.0000
  C   C33       1.0  0.30661  0.6768999999999997  0.8944399999999998  1.0000
  C   C34       1.0  0.36124  0.13135  0.6429499999999999  1.0000
  C   C35       1.0  0.30402  0.15859  0.73297  1.0000
  C   C36       1.0  0.30657999999999996  0.10564999999999984  0.7824199999999998  1.0000
  C   C37       1.0  0.86125  0.86866  0.51167  1.0000
  C   C38       1.0  0.80389  0.8416399999999999  0.57446  1.0000
  C   C39       1.0  0.8066699999999999  0.8944800000000002  0.6769  1.0000
  C   C40       1.0  0.86127  0.643  0.13138  1.0000
  C   C41       1.0  0.80389  0.7328300000000002  0.15842  1.0000
  C   C42       1.0  0.80663  0.7823799999999997  0.10560999999999997  1.0000
  C   C43       1.0  0.86121  0.48852  0.35704  1.0000
  C   C44       1.0  0.8038499999999997  0.4256400000000001  0.26715  1.0000
  C   C45       1.0  0.80656  0.3232  0.21754  1.0000
  C   C46       1.0  0.86125  0.13133999999999998  0.4883299999999999  1.0000
  C   C47       1.0  0.80389  0.15837  0.42554  1.0000
  C   C48       1.0  0.8066699999999999  0.10552000000000002  0.3231  1.0000
  C   C49       1.0  0.86127  0.35699999999999993  0.8686199999999998  1.0000
  C   C50       1.0  0.80389  0.2671699999999999  0.8415799999999998  1.0000
  C   C51       1.0  0.80663  0.21762999999999988  0.8943899999999998  1.0000
  C   C52       1.0  0.86121  0.5114899999999999  0.6429599999999998  1.0000
  C   C53       1.0  0.8038499999999997  0.5743600000000002  0.73286  1.0000
  C   C54       1.0  0.80656  0.6768  0.7824599999999999  1.0000
  C   C55       1.0  0.63882  0.35709  0.4885299999999999  1.0000
  C   C56       1.0  0.69603  0.26701  0.42566  1.0000
  C   C57       1.0  0.6935  0.2175  0.32319  1.0000
  C   C58       1.0  0.63879  0.51164  0.8686899999999997  1.0000
  C   C59       1.0  0.69599  0.57443  0.84147  1.0000
  C   C60       1.0  0.69339  0.6768999999999997  0.8944399999999998  1.0000
  C   C61       1.0  0.63876  0.13135  0.6429499999999999  1.0000
  C   C62       1.0  0.6959799999999998  0.15859  0.73297  1.0000
  C   C63       1.0  0.69342  0.10564999999999984  0.7824199999999998  1.0000
  C   C64       1.0  0.63882  0.64291  0.51147  1.0000
  C   C65       1.0  0.69603  0.7329999999999999  0.5743399999999999  1.0000
  C   C66       1.0  0.6935  0.7825  0.6768099999999999  1.0000
  C   C67       1.0  0.63879  0.48836  0.13131999999999996  1.0000
  C   C68       1.0  0.69599  0.42558  0.15852999999999995  1.0000
  C   C69       1.0  0.69339  0.3231  0.10555999999999997  1.0000
  C   C70       1.0  0.63876  0.86865  0.35704999999999987  1.0000
  C   C71       1.0  0.6959799999999998  0.84141  0.26702999999999993  1.0000
  C   C72       1.0  0.69342  0.89435  0.21758  1.0000
  C   C73       1.0  0.24996  0.13576000000000002  0.2717399999999999  1.0000
  C   C74       1.0  0.25002  0.13599999999999995  0.8641299999999997  1.0000
  C   C75       1.0  0.25008  0.7282699999999999  0.8641099999999998  1.0000
  C   C76       1.0  0.24996  0.86425  0.72827  1.0000
  C   C77       1.0  0.25002  0.8639999999999999  0.13586999999999996  1.0000
  C   C78       1.0  0.25008  0.27174  0.13589  1.0000
  C   C79       1.0  0.7500399999999999  0.86425  0.72827  1.0000
  C   C80       1.0  0.7499799999999998  0.8639999999999999  0.13586999999999996  1.0000
  C   C81       1.0  0.74992  0.27174  0.13589  1.0000
  C   C82       1.0  0.7500399999999999  0.13576000000000002  0.2717399999999999  1.0000
  C   C83       1.0  0.7499799999999998  0.13599999999999995  0.8641299999999997  1.0000
  C   C84       1.0  0.74992  0.7282699999999999  0.8641099999999998  1.0000
  N   N1        1.0  0.25002  0.23725  0.47468999999999995  1.0000
  N   N2        1.0  0.25001  0.2373799999999999  0.7627099999999998  1.0000
  N   N3        1.0  0.25001  0.5252999999999999  0.7626599999999998  1.0000
  N   N4        1.0  0.25002  0.7627600000000002  0.5253099999999999  1.0000
  N   N5        1.0  0.25001  0.76263  0.23728999999999995  1.0000
  N   N6        1.0  0.25001  0.4747  0.23733999999999994  1.0000
  N   N7        1.0  0.74999  0.7627600000000002  0.5253099999999999  1.0000
  N   N8        1.0  0.74999  0.76263  0.23728999999999995  1.0000
  N   N9        1.0  0.74999  0.4747  0.23733999999999994  1.0000
  N   N10       1.0  0.74999  0.23725  0.47468999999999995  1.0000
  N   N11       1.0  0.74999  0.2373799999999999  0.7627099999999998  1.0000
  N   N12       1.0  0.74999  0.5252999999999999  0.7626599999999998  1.0000
  O   O1        1.0  0.13884999999999995  0.18996  0.5802  1.0000
  O   O2        1.0  0.09402  0.05135999999999995  0.4427099999999999  1.0000
  O   O3        1.0  0.13884  0.39026  0.81009  1.0000
  O   O4        1.0  0.09397  0.39134999999999986  0.9485799999999998  1.0000
  O   O5        1.0  0.13888999999999996  0.4196299999999999  0.6096399999999997  1.0000
  O   O6        1.0  0.09405  0.55705  0.6086199999999998  1.0000
  O   O7        1.0  0.13884999999999995  0.81005  0.4198099999999999  1.0000
  O   O8        1.0  0.09402  0.94864  0.55729  1.0000
  O   O9        1.0  0.13884  0.60974  0.18991  1.0000
  O   O10       1.0  0.09397  0.60865  0.05143  1.0000
  O   O11       1.0  0.13888999999999996  0.5803699999999999  0.3903599999999999  1.0000
  O   O12       1.0  0.09405  0.44295000000000007  0.3913899999999999  1.0000
  O   O13       1.0  0.3610999999999999  0.6095  0.41960999999999987  1.0000
  O   O14       1.0  0.40586  0.60866  0.5571699999999999  1.0000
  O   O15       1.0  0.36115  0.58023  0.18984999999999994  1.0000
  O   O16       1.0  0.40589  0.4426  0.05128999999999999  1.0000
  O   O17       1.0  0.36116  0.81023  0.39042  1.0000
  O   O18       1.0  0.40596  0.94865  0.3912899999999999  1.0000
  O   O19       1.0  0.3610999999999999  0.3905  0.58039  1.0000
  O   O20       1.0  0.40586  0.39133999999999997  0.44282999999999995  1.0000
  O   O21       1.0  0.36115  0.41977  0.81015  1.0000
  O   O22       1.0  0.40589  0.5574100000000002  0.9487099999999998  1.0000
  O   O23       1.0  0.36116  0.18978  0.60958  1.0000
  O   O24       1.0  0.40596  0.05135999999999995  0.6087099999999999  1.0000
  O   O25       1.0  0.8611599999999998  0.81005  0.4198099999999999  1.0000
  O   O26       1.0  0.90598  0.94864  0.55729  1.0000
  O   O27       1.0  0.8611599999999998  0.60974  0.18991  1.0000
  O   O28       1.0  0.90603  0.60865  0.05143  1.0000
  O   O29       1.0  0.86111  0.5803699999999999  0.3903599999999999  1.0000
  O   O30       1.0  0.90595  0.44295000000000007  0.3913899999999999  1.0000
  O   O31       1.0  0.8611599999999998  0.18996  0.5802  1.0000
  O   O32       1.0  0.90598  0.05135999999999995  0.4427099999999999  1.0000
  O   O33       1.0  0.8611599999999998  0.39026  0.81009  1.0000
  O   O34       1.0  0.90603  0.39134999999999986  0.9485799999999998  1.0000
  O   O35       1.0  0.86111  0.4196299999999999  0.6096399999999997  1.0000
  O   O36       1.0  0.90595  0.55705  0.6086199999999998  1.0000
  O   O37       1.0  0.6389  0.3905  0.58039  1.0000
  O   O38       1.0  0.59414  0.39133999999999997  0.44282999999999995  1.0000
  O   O39       1.0  0.63885  0.41977  0.81015  1.0000
  O   O40       1.0  0.5941099999999999  0.5574100000000002  0.9487099999999998  1.0000
  O   O41       1.0  0.63884  0.18978  0.60958  1.0000
  O   O42       1.0  0.59404  0.05135999999999995  0.6087099999999999  1.0000
  O   O43       1.0  0.6389  0.6095  0.41960999999999987  1.0000
  O   O44       1.0  0.59414  0.60866  0.5571699999999999  1.0000
  O   O45       1.0  0.63885  0.58023  0.18984999999999994  1.0000
  O   O46       1.0  0.5941099999999999  0.4426  0.05128999999999999  1.0000
  O   O47       1.0  0.63884  0.81023  0.39042  1.0000
  O   O48       1.0  0.59404  0.94865  0.3912899999999999  1.0000
