data_image0
_chemical_formula_structural       Fe12H24C72N96
_chemical_formula_sum              "Fe12 H24 C72 N96"
_cell_length_a       18.71188
_cell_length_b       18.73167
_cell_length_c       18.69675
_cell_angle_alpha    89.97592000000002
_cell_angle_beta     89.98706999999999
_cell_angle_gamma    90.00711999999999

_symmetry_space_group_name_H-M    'P 1'
_symmetry_Int_Tables_number       1

loop_
  _symmetry_equiv_pos_as_xyz
  'x,y,z'

loop_
  _atom_site_type_symbol
  _atom_site_label
  _atom_site_symmetry_multiplicity
  _atom_site_fract_x
  _atom_site_fract_y
  _atom_site_fract_z
  _atom_site_occupancy
  Fe  Fe1       1.0  0.14371  0.0005300000000000001  0.50031  1.0000
  Fe  Fe2       1.0  0.85481  0.00045999999999999996  0.5001  1.0000
  Fe  Fe3       1.0  0.50055  0.14391  0.00058  1.0000
  Fe  Fe4       1.0  0.5002  0.85452  0.00053  1.0000
  Fe  Fe5       1.0  0.00068  0.49998  0.14361  1.0000
  Fe  Fe6       1.0  0.00064  0.50066  0.85533  1.0000
  Fe  Fe7       1.0  0.99927  0.14555  0.4998099999999999  1.0000
  Fe  Fe8       1.0  0.9995699999999998  0.85609  0.49979  1.0000
  Fe  Fe9       1.0  0.14594  0.49977000000000005  0.99965  1.0000
  Fe  Fe10      1.0  0.8565400000000001  0.49975  0.99961  1.0000
  Fe  Fe11      1.0  0.49977999999999995  0.99912  0.8564399999999999  1.0000
  Fe  Fe12      1.0  0.49977999999999995  0.9997200000000002  0.14529  1.0000
  H   H1        1.0  0.09928  0.2651  0.7348999999999998  1.0000
  H   H2        1.0  0.8986800000000001  0.73575  0.73559  1.0000
  H   H3        1.0  0.8987599999999999  0.26418  0.26452  1.0000
  H   H4        1.0  0.10138  0.73573  0.26423  1.0000
  H   H5        1.0  0.73573  0.10121  0.26449999999999996  1.0000
  H   H6        1.0  0.73566  0.8987299999999999  0.73562  1.0000
  H   H7        1.0  0.26455  0.8986500000000001  0.26419  1.0000
  H   H8        1.0  0.26459  0.10084000000000001  0.7361  1.0000
  H   H9        1.0  0.2646  0.73569  0.10111  1.0000
  H   H10       1.0  0.73557  0.73572  0.8988  1.0000
  H   H11       1.0  0.26501  0.26431  0.89983  1.0000
  H   H12       1.0  0.73561  0.26423  0.10136  1.0000
  H   H13       1.0  0.26426  0.10134  0.26435  1.0000
  H   H14       1.0  0.73486  0.90055  0.26496  1.0000
  H   H15       1.0  0.26421  0.89851  0.7358  1.0000
  H   H16       1.0  0.73501  0.09942  0.73481  1.0000
  H   H17       1.0  0.10121  0.73541  0.73575  1.0000
  H   H18       1.0  0.89919  0.7353  0.26391  1.0000
  H   H19       1.0  0.89977  0.26497  0.7357  1.0000
  H   H20       1.0  0.10126  0.26434  0.26442999999999994  1.0000
  H   H21       1.0  0.73602  0.26472  0.8993  1.0000
  H   H22       1.0  0.7356  0.73494  0.1001  1.0000
  H   H23       1.0  0.26429  0.2644000000000001  0.10119  1.0000
  H   H24       1.0  0.26425  0.73538  0.8989  1.0000
  C   C1        1.0  0.14686  0.24133000000000002  0.75834  1.0000
  C   C2        1.0  0.85116  0.75943  0.75927  1.0000
  C   C3        1.0  0.85123  0.24055  0.24083  1.0000
  C   C4        1.0  0.14892  0.75938  0.24055  1.0000
  C   C5        1.0  0.75937  0.14871  0.24083  1.0000
  C   C6        1.0  0.75929  0.85124  0.7593  1.0000
  C   C7        1.0  0.24086000000000002  0.85118  0.24055  1.0000
  C   C8        1.0  0.24162  0.14849  0.75982  1.0000
  C   C9        1.0  0.24088  0.7593500000000001  0.14863  1.0000
  C   C10       1.0  0.75925  0.75938  0.8512399999999998  1.0000
  C   C11       1.0  0.24209999999999998  0.24029  0.8522199999999999  1.0000
  C   C12       1.0  0.75931  0.24056  0.14888999999999997  1.0000
  C   C13       1.0  0.24059  0.14883  0.24068  1.0000
  C   C14       1.0  0.75868  0.853  0.24155  1.0000
  C   C15       1.0  0.24054999999999999  0.85101  0.75949  1.0000
  C   C16       1.0  0.75846  0.14696000000000004  0.75858  1.0000
  C   C17       1.0  0.14872  0.75911  0.7594  1.0000
  C   C18       1.0  0.85155  0.7583100000000002  0.24011999999999997  1.0000
  C   C19       1.0  0.85216  0.24208000000000002  0.7597199999999997  1.0000
  C   C20       1.0  0.14875  0.24067999999999998  0.24072  1.0000
  C   C21       1.0  0.75985  0.2418  0.85162  1.0000
  C   C22       1.0  0.7597  0.75786  0.14768  1.0000
  C   C23       1.0  0.24063999999999997  0.24069000000000002  0.14875  1.0000
  C   C24       1.0  0.24061  0.7590900000000002  0.8513699999999998  1.0000
  C   C25       1.0  0.14669  0.1492  0.66517  1.0000
  C   C26       1.0  0.17691  0.18102000000000001  0.72772  1.0000
  C   C27       1.0  0.85213  0.85247  0.6648499999999999  1.0000
  C   C28       1.0  0.82049  0.82059  0.72867  1.0000
  C   C29       1.0  0.85213  0.14767  0.33529  1.0000
  C   C30       1.0  0.82053  0.17942  0.27145  1.0000
  C   C31       1.0  0.14794  0.8523200000000001  0.3350099999999999  1.0000
  C   C32       1.0  0.17961  0.82054  0.27115999999999996  1.0000
  C   C33       1.0  0.66501  0.14748  0.14800999999999997  1.0000
  C   C34       1.0  0.72878  0.17938000000000004  0.17961  1.0000
  C   C35       1.0  0.66492  0.85221  0.85232  1.0000
  C   C36       1.0  0.7287  0.82053  0.82052  1.0000
  C   C37       1.0  0.33537  0.85223  0.14773  1.0000
  C   C38       1.0  0.2715  0.82049  0.17938  1.0000
  C   C39       1.0  0.33584  0.14791  0.85273  1.0000
  C   C40       1.0  0.27208  0.17996  0.82143  1.0000
  C   C41       1.0  0.14798  0.66493  0.14763  1.0000
  C   C42       1.0  0.17963  0.7287900000000002  0.17934  1.0000
  C   C43       1.0  0.85215  0.66509  0.8521899999999998  1.0000
  C   C44       1.0  0.82046  0.72886  0.8205  1.0000
  C   C45       1.0  0.14736  0.33462  0.85107  1.0000
  C   C46       1.0  0.17746  0.27257  0.81988  1.0000
  C   C47       1.0  0.8522  0.33495  0.14796  1.0000
  C   C48       1.0  0.82053  0.27113  0.1796  1.0000
  C   C49       1.0  0.14764  0.14784  0.33518  1.0000
  C   C50       1.0  0.17942  0.17949  0.27132  1.0000
  C   C51       1.0  0.85083  0.8531900000000002  0.33481  1.0000
  C   C52       1.0  0.81903  0.823  0.27226  1.0000
  C   C53       1.0  0.14772  0.85214  0.66499  1.0000
  C   C54       1.0  0.17938  0.82035  0.7288399999999999  1.0000
  C   C55       1.0  0.85118  0.14734  0.6654  1.0000
  C   C56       1.0  0.81979  0.17743  0.72747  1.0000
  C   C57       1.0  0.14792  0.6646  0.8522499999999998  1.0000
  C   C58       1.0  0.17949  0.72849  0.82057  1.0000
  C   C59       1.0  0.85202  0.66422  0.14716  1.0000
  C   C60       1.0  0.82007  0.72796  0.17853  1.0000
  C   C61       1.0  0.85293  0.33578  0.852  1.0000
  C   C62       1.0  0.82128  0.27206  0.8202199999999998  1.0000
  C   C63       1.0  0.14782  0.33510000000000006  0.14777999999999997  1.0000
  C   C64       1.0  0.17948  0.27126  0.17949999999999994  1.0000
  C   C65       1.0  0.66523  0.14692  0.85078  1.0000
  C   C66       1.0  0.72771  0.17707000000000003  0.81904  1.0000
  C   C67       1.0  0.66545  0.85264  0.14882  1.0000
  C   C68       1.0  0.72747  0.8224700000000001  0.18004  1.0000
  C   C69       1.0  0.33507  0.14775  0.14782  1.0000
  C   C70       1.0  0.27121  0.17949  0.17946  1.0000
  C   C71       1.0  0.33495  0.85196  0.85248  1.0000
  C   C72       1.0  0.27115  0.82033  0.8207  1.0000
  N   N1        1.0  0.13064  0.07879  0.5768699999999999  1.0000
  N   N2        1.0  0.1738  0.08979  0.63234  1.0000
  N   N3        1.0  0.86912  0.92176  0.57645  1.0000
  N   N4        1.0  0.82569  0.91118  0.63168  1.0000
  N   N5        1.0  0.8692800000000002  0.07843  0.42373  1.0000
  N   N6        1.0  0.82576  0.08897  0.36848  1.0000
  N   N7        1.0  0.13077  0.92118  0.42361  1.0000
  N   N8        1.0  0.17415  0.91104  0.36834  1.0000
  N   N9        1.0  0.57647  0.12959  0.07932  1.0000
  N   N10       1.0  0.6315  0.17335000000000003  0.08926  1.0000
  N   N11       1.0  0.57642  0.86945  0.9213699999999999  1.0000
  N   N12       1.0  0.63153  0.82595  0.91106  1.0000
  N   N13       1.0  0.42394  0.8697999999999999  0.0787  1.0000
  N   N14       1.0  0.3688  0.82614  0.08898999999999999  1.0000
  N   N15       1.0  0.42458  0.12971  0.92115  1.0000
  N   N16       1.0  0.36971  0.17342  0.9115499999999999  1.0000
  N   N17       1.0  0.07949  0.57615  0.13041  1.0000
  N   N18       1.0  0.08942  0.63144  0.17388  1.0000
  N   N19       1.0  0.92092  0.57655  0.86932  1.0000
  N   N20       1.0  0.9109400000000001  0.63185  0.82599  1.0000
  N   N21       1.0  0.07865  0.42388  0.8696799999999999  1.0000
  N   N22       1.0  0.08785  0.36947  0.82552  1.0000
  N   N23       1.0  0.9208399999999999  0.4235900000000001  0.13076  1.0000
  N   N24       1.0  0.91095  0.36832  0.1741  1.0000
  N   N25       1.0  0.07856  0.13078  0.42376  1.0000
  N   N26       1.0  0.0889  0.17416  0.3685  1.0000
  N   N27       1.0  0.9212199999999999  0.86908  0.42326  1.0000
  N   N28       1.0  0.91017  0.82599  0.36779  1.0000
  N   N29       1.0  0.07902  0.86957  0.57625  1.0000
  N   N30       1.0  0.08899  0.82608  0.63147  1.0000
  N   N31       1.0  0.9218200000000001  0.13126  0.5769299999999999  1.0000
  N   N32       1.0  0.91073  0.17452  0.63209  1.0000
  N   N33       1.0  0.13075  0.5761  0.92145  1.0000
  N   N34       1.0  0.17427  0.6313  0.9109599999999999  1.0000
  N   N35       1.0  0.8700200000000001  0.57557  0.07886  1.0000
  N   N36       1.0  0.82637  0.63051  0.08837  1.0000
  N   N37       1.0  0.8701799999999998  0.42413  0.92095  1.0000
  N   N38       1.0  0.82666  0.36899  0.9107299999999999  1.0000
  N   N39       1.0  0.13074  0.42367  0.0788  1.0000
  N   N40       1.0  0.17416  0.36846  0.08907  1.0000
  N   N41       1.0  0.57611  0.07881  0.87003  1.0000
  N   N42       1.0  0.63034  0.08762  0.82582  1.0000
  N   N43       1.0  0.57633  0.92156  0.13025  1.0000
  N   N44       1.0  0.63077  0.91219  0.17438999999999996  1.0000
  N   N45       1.0  0.42373  0.07896  0.13079  1.0000
  N   N46       1.0  0.36829  0.08899  0.17405  1.0000
  N   N47       1.0  0.4237  0.92041  0.8699199999999999  1.0000
  N   N48       1.0  0.36842  0.9106000000000001  0.8264  1.0000
  N   N49       1.0  0.86987  0.9213  0.42408  1.0000
  N   N50       1.0  0.82572  0.9124000000000001  0.36971999999999994  1.0000
  N   N51       1.0  0.12994  0.07916000000000001  0.42386  1.0000
  N   N52       1.0  0.17357  0.08915  0.36868  1.0000
  N   N53       1.0  0.13049  0.92091  0.57633  1.0000
  N   N54       1.0  0.17389  0.9108400000000001  0.63158  1.0000
  N   N55       1.0  0.87025  0.07863  0.57631  1.0000
  N   N56       1.0  0.82592  0.08778  0.63062  1.0000
  N   N57       1.0  0.4237  0.86883  0.92131  1.0000
  N   N58       1.0  0.36837  0.8255600000000001  0.91117  1.0000
  N   N59       1.0  0.42397  0.13052  0.07932999999999998  1.0000
  N   N60       1.0  0.36874  0.17401  0.08929  1.0000
  N   N61       1.0  0.5769  0.13103  0.9212599999999999  1.0000
  N   N62       1.0  0.63223  0.17412  0.9102100000000001  1.0000
  N   N63       1.0  0.57684  0.8690300000000001  0.07842  1.0000
  N   N64       1.0  0.63197  0.82571  0.08922  1.0000
  N   N65       1.0  0.9217799999999999  0.42423  0.86936  1.0000
  N   N66       1.0  0.9117  0.36922  0.82587  1.0000
  N   N67       1.0  0.07906  0.42363  0.13033  1.0000
  N   N68       1.0  0.08912  0.36841  0.17393  1.0000
  N   N69       1.0  0.9211900000000001  0.5758400000000001  0.13069999999999998  1.0000
  N   N70       1.0  0.9106900000000001  0.63116  0.17386  1.0000
  N   N71       1.0  0.07887  0.57617  0.86967  1.0000
  N   N72       1.0  0.08923  0.63138  0.82601  1.0000
  N   N73       1.0  0.92092  0.8704  0.57624  1.0000
  N   N74       1.0  0.9108999999999999  0.82666  0.63132  1.0000
  N   N75       1.0  0.07851  0.13018  0.5759499999999999  1.0000
  N   N76       1.0  0.08752  0.17433  0.6301799999999999  1.0000
  N   N77       1.0  0.9210700000000002  0.13005  0.42386  1.0000
  N   N78       1.0  0.91082  0.17374  0.36873  1.0000
  N   N79       1.0  0.07929  0.86985  0.42375  1.0000
  N   N80       1.0  0.08922  0.82633  0.3686  1.0000
  N   N81       1.0  0.86937  0.42367  0.07941  1.0000
  N   N82       1.0  0.82597  0.36848  0.08931999999999998  1.0000
  N   N83       1.0  0.13133  0.42321  0.92155  1.0000
  N   N84       1.0  0.17449  0.36799  0.91067  1.0000
  N   N85       1.0  0.13105  0.5762200000000001  0.07882  1.0000
  N   N86       1.0  0.17431  0.6316  0.08889  1.0000
  N   N87       1.0  0.86937  0.57639  0.92076  1.0000
  N   N88       1.0  0.82588  0.63156  0.9107899999999999  1.0000
  N   N89       1.0  0.42379  0.92141  0.13052  1.0000
  N   N90       1.0  0.36855  0.9109000000000002  0.17407  1.0000
  N   N91       1.0  0.42414  0.07852000000000002  0.86922  1.0000
  N   N92       1.0  0.36881  0.08921000000000001  0.82602  1.0000
  N   N93       1.0  0.5765  0.92107  0.86987  1.0000
  N   N94       1.0  0.63166  0.91094  0.82622  1.0000
  N   N95       1.0  0.57666  0.07824000000000002  0.13108  1.0000
  N   N96       1.0  0.63189  0.08875  0.17448  1.0000
