data_image0
_chemical_formula_structural       Co12H48C80N32Cl8O32
_chemical_formula_sum              "Co12 H48 C80 N32 Cl8 O32"
_cell_length_a       11.41851
_cell_length_b       11.419160000000002
_cell_length_c       22.80423
_cell_angle_alpha    90.00559
_cell_angle_beta     90.00605
_cell_angle_gamma    89.94192

_space_group_name_H-M_alt    "P 1"
_space_group_IT_number       1

loop_
  _space_group_symop_operation_xyz
  'x, y, z'

loop_
  _atom_site_type_symbol
  _atom_site_label
  _atom_site_symmetry_multiplicity
  _atom_site_fract_x
  _atom_site_fract_y
  _atom_site_fract_z
  _atom_site_occupancy
  Co  Co1       1.0  0.24974999999999994  0.75021  0.24996000000000002  1.0000
  Co  Co2       1.0  0.75002  0.24997  0.25018000000000007  1.0000
  Co  Co3       1.0  0.75013  0.24990000000000007  0.75017  1.0000
  Co  Co4       1.0  0.25005  0.74999  0.7499  1.0000
  Co  Co5       1.0  0.99997  0.99995  0.99999  1.0000
  Co  Co6       1.0  0.49989  0.49984000000000006  0.9998000000000001  1.0000
  Co  Co7       1.0  0.50003  8e-05  0.99992  1.0000
  Co  Co8       1.0  0.9994499999999998  0.50013  0.9998400000000001  1.0000
  Co  Co9       1.0  0.99993  0.49970000000000003  0.49995  1.0000
  Co  Co10      1.0  0.50003  0.9999400000000002  0.50005  1.0000
  Co  Co11      1.0  0.49995  0.4999700000000001  0.50011  1.0000
  Co  Co12      1.0  1.999999999999998e-05  8e-05  0.50009  1.0000
  H   H1        1.0  0.11287999999999997  0.10763000000000003  0.11869  1.0000
  H   H2        1.0  0.19435  0.01054  0.21077  1.0000
  H   H3        1.0  0.106  0.6843600000000001  0.14325000000000002  1.0000
  H   H4        1.0  0.3872  0.39231000000000005  0.11858  1.0000
  H   H5        1.0  0.30582  0.4894700000000001  0.2107  1.0000
  H   H6        1.0  0.39402  0.81564  0.14315  1.0000
  H   H7        1.0  0.39211  0.11337  0.11854  1.0000
  H   H8        1.0  0.48893  0.19371  0.21106000000000005  1.0000
  H   H9        1.0  0.8153999999999998  0.10538  0.14341  1.0000
  H   H10       1.0  0.10789999999999998  0.38658  0.1185  1.0000
  H   H11       1.0  0.01124  0.30636  0.21103  1.0000
  H   H12       1.0  0.6847899999999999  0.39459  0.14342  1.0000
  H   H13       1.0  0.8864599999999999  0.6077  0.38143  1.0000
  H   H14       1.0  0.8063  0.51083  0.28889  1.0000
  H   H15       1.0  0.89462  0.18451  0.35666  1.0000
  H   H16       1.0  0.6135  0.892  0.38137  1.0000
  H   H17       1.0  0.69365  0.9890100000000001  0.28891000000000006  1.0000
  H   H18       1.0  0.60523  0.31515  0.35679  1.0000
  H   H19       1.0  0.6075299999999999  0.61279  0.38148000000000004  1.0000
  H   H20       1.0  0.51041  0.69415  0.28935  1.0000
  H   H21       1.0  0.18417  0.60594  0.35682  1.0000
  H   H22       1.0  0.8922899999999999  0.88717  0.38137  1.0000
  H   H23       1.0  0.9893499999999998  0.80576  0.28925  1.0000
  H   H24       1.0  0.31567  0.8940700000000001  0.35678000000000004  1.0000
  H   H25       1.0  0.88652  0.8922100000000001  0.88142  1.0000
  H   H26       1.0  0.8063099999999997  0.98918  0.78893  1.0000
  H   H27       1.0  0.89465  0.31532  0.8566500000000001  1.0000
  H   H28       1.0  0.61349  0.6077200000000001  0.88151  1.0000
  H   H29       1.0  0.69361  0.51079  0.78895  1.0000
  H   H30       1.0  0.60545  0.18461  0.8566300000000001  1.0000
  H   H31       1.0  0.60787  0.88656  0.8814500000000001  1.0000
  H   H32       1.0  0.51111  0.80627  0.78891  1.0000
  H   H33       1.0  0.18462  0.89457  0.8565400000000001  1.0000
  H   H34       1.0  0.8920899999999998  0.61372  0.88136  1.0000
  H   H35       1.0  0.9891599999999998  0.69365  0.7888800000000001  1.0000
  H   H36       1.0  0.31537  0.60508  0.85675  1.0000
  H   H37       1.0  0.11327999999999999  0.39214  0.61857  1.0000
  H   H38       1.0  0.19372  0.48899  0.7110400000000001  1.0000
  H   H39       1.0  0.10543999999999999  0.8153000000000001  0.64338  1.0000
  H   H40       1.0  0.38637  0.10787  0.61864  1.0000
  H   H41       1.0  0.30632  0.0109  0.71112  1.0000
  H   H42       1.0  0.39466  0.68475  0.64324  1.0000
  H   H43       1.0  0.39209  0.3866200000000001  0.61853  1.0000
  H   H44       1.0  0.48901999999999995  0.30636  0.71107  1.0000
  H   H45       1.0  0.81527  0.39444  0.64339  1.0000
  H   H46       1.0  0.10781999999999999  0.11352  0.6186  1.0000
  H   H47       1.0  0.010909999999999998  0.1937  0.7111100000000001  1.0000
  H   H48       1.0  0.68463  0.10542  0.64343  1.0000
  C   C1        1.0  0.06783  0.83166  0.08685  1.0000
  C   C2        1.0  0.11366  0.01302  0.12437  1.0000
  C   C3        1.0  0.15731  0.9599700000000001  0.1749  1.0000
  C   C4        1.0  0.11024999999999999  0.77878  0.13755  1.0000
  C   C5        1.0  0.01769  0.76142  0.03701  1.0000
  C   C6        1.0  0.4320899999999999  0.6681400000000001  0.08683000000000002  1.0000
  C   C7        1.0  0.38635  0.48689  0.12431000000000002  1.0000
  C   C8        1.0  0.34277  0.5400500000000001  0.17484  1.0000
  C   C9        1.0  0.38973  0.72119  0.13749000000000003  1.0000
  C   C10       1.0  0.4826899999999999  0.73791  0.03709  1.0000
  C   C11       1.0  0.6680599999999999  0.06774  0.08703  1.0000
  C   C12       1.0  0.48668  0.11361000000000002  0.12451000000000001  1.0000
  C   C13       1.0  0.53959  0.15623  0.17532  1.0000
  C   C14       1.0  0.72085  0.10930000000000001  0.13791  1.0000
  C   C15       1.0  0.7381199999999998  0.017540000000000004  0.03717  1.0000
  C   C16       1.0  0.83188  0.43194  0.08699  1.0000
  C   C17       1.0  0.013339999999999998  0.38632  0.12441000000000003  1.0000
  C   C18       1.0  0.96057  0.34384  0.17528000000000002  1.0000
  C   C19       1.0  0.77929  0.39056  0.13794  1.0000
  C   C20       1.0  0.7612499999999999  0.48197  0.03732  1.0000
  C   C21       1.0  0.93218  0.33183  0.41299  1.0000
  C   C22       1.0  0.88623  0.51317  0.37548  1.0000
  C   C23       1.0  0.8437199999999999  0.46023  0.32467  1.0000
  C   C24       1.0  0.89068  0.27903  0.36211  1.0000
  C   C25       1.0  0.98238  0.26178  0.46286  1.0000
  C   C26       1.0  0.56784  0.16788000000000003  0.41307000000000005  1.0000
  C   C27       1.0  0.61364  0.9865500000000001  0.3755200000000001  1.0000
  C   C28       1.0  0.6561799999999999  0.0395  0.32472000000000006  1.0000
  C   C29       1.0  0.60927  0.22065  0.36218  1.0000
  C   C30       1.0  0.51788  0.23840000000000006  0.46284000000000003  1.0000
  C   C31       1.0  0.33164999999999994  0.56739  0.41314  1.0000
  C   C32       1.0  0.51292  0.61361  0.37573  1.0000
  C   C33       1.0  0.45978  0.65724  0.3252  1.0000
  C   C34       1.0  0.27862  0.61019  0.36255000000000004  1.0000
  C   C35       1.0  0.26207  0.51572  0.46272  1.0000
  C   C36       1.0  0.16832  0.9322500000000001  0.4132100000000001  1.0000
  C   C37       1.0  0.98693  0.8864  0.37568000000000007  1.0000
  C   C38       1.0  0.03998  0.84275  0.32513  1.0000
  C   C39       1.0  0.2212  0.88987  0.3625  1.0000
  C   C40       1.0  0.23864999999999997  0.9822700000000002  0.46304  1.0000
  C   C41       1.0  0.93221  0.16812  0.91305  1.0000
  C   C42       1.0  0.88632  0.98676  0.87555  1.0000
  C   C43       1.0  0.8437999999999999  0.03967  0.82472  1.0000
  C   C44       1.0  0.89069  0.22084  0.8621400000000001  1.0000
  C   C45       1.0  0.98207  0.23851000000000003  0.9629100000000003  1.0000
  C   C46       1.0  0.56781  0.33193  0.9129700000000001  1.0000
  C   C47       1.0  0.61369  0.51321  0.87553  1.0000
  C   C48       1.0  0.6562  0.46026  0.8247100000000002  1.0000
  C   C49       1.0  0.60937  0.2791  0.86211  1.0000
  C   C50       1.0  0.51728  0.2619  0.9626700000000001  1.0000
  C   C51       1.0  0.33191  0.93222  0.91294  1.0000
  C   C52       1.0  0.51331  0.8863200000000001  0.8754800000000003  1.0000
  C   C53       1.0  0.46042999999999995  0.84373  0.8246600000000001  1.0000
  C   C54       1.0  0.27915  0.8906600000000002  0.8620600000000002  1.0000
  C   C55       1.0  0.26186  0.9824500000000003  0.96279  1.0000
  C   C56       1.0  0.16799  0.56738  0.91303  1.0000
  C   C57       1.0  0.98668  0.61381  0.87551  1.0000
  C   C58       1.0  0.03969  0.65627  0.8247  1.0000
  C   C59       1.0  0.22081999999999996  0.6091100000000002  0.8621900000000002  1.0000
  C   C60       1.0  0.23818  0.51622  0.9627  1.0000
  C   C61       1.0  0.06775  0.66802  0.587  1.0000
  C   C62       1.0  0.11356  0.48667  0.6245  1.0000
  C   C63       1.0  0.15626  0.53959  0.6752800000000001  1.0000
  C   C64       1.0  0.10931  0.7208000000000001  0.63789  1.0000
  C   C65       1.0  0.01766  0.7379600000000001  0.53709  1.0000
  C   C66       1.0  0.4321099999999999  0.83202  0.58698  1.0000
  C   C67       1.0  0.38631  0.01333  0.62451  1.0000
  C   C68       1.0  0.34373  0.9604000000000001  0.6753100000000001  1.0000
  C   C69       1.0  0.3906899999999999  0.77926  0.63787  1.0000
  C   C70       1.0  0.48214999999999997  0.76151  0.53726  1.0000
  C   C71       1.0  0.66795  0.43209  0.5870700000000001  1.0000
  C   C72       1.0  0.48663999999999996  0.38639  0.62451  1.0000
  C   C73       1.0  0.53959  0.3438  0.67533  1.0000
  C   C74       1.0  0.72075  0.39054  0.6379400000000001  1.0000
  C   C75       1.0  0.7380499999999999  0.48246  0.53737  1.0000
  C   C76       1.0  0.83186  0.06784  0.587  1.0000
  C   C77       1.0  0.01324  0.11368  0.6245  1.0000
  C   C78       1.0  0.9603399999999999  0.15624  0.67534  1.0000
  C   C79       1.0  0.77915  0.10933  0.6379400000000001  1.0000
  C   C80       1.0  0.7614299999999999  0.01795  0.5371600000000001  1.0000
  N   N1        1.0  0.07126  0.9488100000000002  0.07978  1.0000
  N   N2        1.0  0.15786  0.8422900000000001  0.18121  1.0000
  N   N3        1.0  0.42868999999999996  0.55104  0.07972  1.0000
  N   N4        1.0  0.34219  0.65774  0.18116  1.0000
  N   N5        1.0  0.55091  0.07135  0.0799  1.0000
  N   N6        1.0  0.65726  0.15573  0.18194  1.0000
  N   N7        1.0  0.94899  0.42846  0.07979  1.0000
  N   N8        1.0  0.8429399999999999  0.34433  0.18197000000000002  1.0000
  N   N9        1.0  0.92836  0.44892000000000004  0.42012000000000005  1.0000
  N   N10       1.0  0.8441699999999999  0.34262  0.3181  1.0000
  N   N11       1.0  0.57147  0.0508  0.42018  1.0000
  N   N12       1.0  0.65564  0.1571  0.31813  1.0000
  N   N13       1.0  0.4488199999999999  0.571  0.4202400000000001  1.0000
  N   N14       1.0  0.34206  0.65788  0.3189  1.0000
  N   N15       1.0  0.05113  0.92878  0.42027000000000003  1.0000
  N   N16       1.0  0.15772  0.84224  0.31883  1.0000
  N   N17       1.0  0.92855  0.05101  0.92018  1.0000
  N   N18       1.0  0.8443199999999998  0.15727  0.8181100000000002  1.0000
  N   N19       1.0  0.57151  0.44899000000000006  0.9201300000000001  1.0000
  N   N20       1.0  0.6557599999999999  0.3426600000000001  0.8181  1.0000
  N   N21       1.0  0.44907  0.9286200000000002  0.9200700000000003  1.0000
  N   N22       1.0  0.34277  0.84425  0.8180400000000001  1.0000
  N   N23       1.0  0.05082  0.57141  0.9201500000000001  1.0000
  N   N24       1.0  0.15735999999999997  0.6556700000000001  0.8181500000000002  1.0000
  N   N25       1.0  0.07135  0.55091  0.57986  1.0000
  N   N26       1.0  0.15575  0.65719  0.68191  1.0000
  N   N27       1.0  0.42849  0.9491000000000002  0.5798400000000001  1.0000
  N   N28       1.0  0.34427  0.8427900000000003  0.68191  1.0000
  N   N29       1.0  0.55082  0.42863  0.57992  1.0000
  N   N30       1.0  0.65724  0.34423  0.68197  1.0000
  N   N31       1.0  0.94902  0.07148  0.57986  1.0000
  N   N32       1.0  0.8426899999999999  0.1557  0.68197  1.0000
  Cl  Cl1       1.0  0.10198999999999997  0.60198  0.24997  1.0000
  Cl  Cl2       1.0  0.39817  0.89794  0.25003  1.0000
  Cl  Cl3       1.0  0.89819  0.10176  0.25001  1.0000
  Cl  Cl4       1.0  0.6018  0.39812  0.25005  1.0000
  Cl  Cl5       1.0  0.8980399999999998  0.3981000000000001  0.75006  1.0000
  Cl  Cl6       1.0  0.60187  0.10201  0.75  1.0000
  Cl  Cl7       1.0  0.10184999999999998  0.89808  0.74998  1.0000
  Cl  Cl8       1.0  0.3981899999999999  0.6018600000000001  0.74999  1.0000
  O   O1        1.0  0.01657  0.65169  0.045810000000000003  1.0000
  O   O2        1.0  0.98208  0.8165400000000002  0.9920700000000002  1.0000
  O   O3        1.0  0.4825899999999999  0.8476900000000002  0.04543  1.0000
  O   O4        1.0  0.52022  0.6820900000000001  0.99274  1.0000
  O   O5        1.0  0.8478  0.01628  0.04568  1.0000
  O   O6        1.0  0.68254  0.9815900000000001  0.9924300000000001  1.0000
  O   O7        1.0  0.65149  0.48069  0.04578  1.0000
  O   O8        1.0  0.81645  0.52012  0.99294  1.0000
  O   O9        1.0  0.9837899999999999  0.15205  0.45425000000000004  1.0000
  O   O10       1.0  0.01813  0.31703  0.50767  1.0000
  O   O11       1.0  0.51917  0.34824000000000005  0.45437000000000005  1.0000
  O   O12       1.0  0.47977999999999993  0.18333  0.5072400000000001  1.0000
  O   O13       1.0  0.15241  0.51375  0.45428  1.0000
  O   O14       1.0  0.31811  0.47925000000000006  0.5072400000000001  1.0000
  O   O15       1.0  0.34835  0.98329  0.4542000000000001  1.0000
  O   O16       1.0  0.1835  0.01784  0.508  1.0000
  O   O17       1.0  0.9830399999999999  0.34827  0.95413  1.0000
  O   O18       1.0  0.01781  0.18343  0.00783  1.0000
  O   O19       1.0  0.5173  0.15211000000000002  0.9543  1.0000
  O   O20       1.0  0.47967999999999994  0.31740000000000007  0.00703  1.0000
  O   O21       1.0  0.15216  0.98372  0.9543  1.0000
  O   O22       1.0  0.3174699999999999  0.01838  0.007510000000000001  1.0000
  O   O23       1.0  0.34794  0.5145  0.9540800000000002  1.0000
  O   O24       1.0  0.18284999999999998  0.47981  0.007380000000000002  1.0000
  O   O25       1.0  0.01618  0.84768  0.54565  1.0000
  O   O26       1.0  0.98207  0.68233  0.4923  1.0000
  O   O27       1.0  0.481  0.65169  0.5457400000000001  1.0000
  O   O28       1.0  0.5202  0.81662  0.4928600000000001  1.0000
  O   O29       1.0  0.8478199999999999  0.48189000000000004  0.54562  1.0000
  O   O30       1.0  0.68229  0.5205  0.4931300000000001  1.0000
  O   O31       1.0  0.65171  0.01692  0.5459  1.0000
  O   O32       1.0  0.8166  0.98218  0.49224000000000007  1.0000
