data_image0
_chemical_formula_structural       Zn6H64C112N16O16
_chemical_formula_sum              "Zn6 H64 C112 N16 O16"
_cell_length_a       14.24407
_cell_length_b       19.87758
_cell_length_c       19.29517
_cell_angle_alpha    68.12141
_cell_angle_beta     82.17416
_cell_angle_gamma    76.70169

_symmetry_space_group_name_H-M    'P 1'
_symmetry_Int_Tables_number       1

loop_
  _symmetry_equiv_pos_as_xyz
  'x,y,z'

loop_
  _atom_site_type_symbol
  _atom_site_label
  _atom_site_symmetry_multiplicity
  _atom_site_fract_x
  _atom_site_fract_y
  _atom_site_fract_z
  _atom_site_occupancy
  Zn  Zn1       1.0  0.14587  0.67837  0.07073  1.0000
  Zn  Zn2       1.0  0.6498199999999998  0.8759199999999998  0.69735  1.0000
  Zn  Zn3       1.0  0.64577  0.47092  0.43787000000000004  1.0000
  Zn  Zn4       1.0  0.85413  0.32163  0.9292800000000001  1.0000
  Zn  Zn5       1.0  0.35019  0.12407999999999997  0.30265  1.0000
  Zn  Zn6       1.0  0.35424000000000005  0.52908  0.56213  1.0000
  H   H1        1.0  0.6948599999999998  0.9197799999999999  0.82425  1.0000
  H   H2        1.0  0.32950999999999975  0.63303  0.32727  1.0000
  H   H3        1.0  0.46269  0.58058  0.41449  1.0000
  H   H4        1.0  0.58989  0.4253199999999999  0.31702  1.0000
  H   H5        1.0  0.81417  0.58982  0.56574  1.0000
  H   H6        1.0  0.7223  0.20152000000000003  0.43564  1.0000
  H   H7        1.0  0.48849  0.94409  0.79034  1.0000
  H   H8        1.0  0.46424999999999994  0.47556000000000004  0.22063  1.0000
  H   H9        1.0  0.51438  0.6555799999999999  0.51848  1.0000
  H   H10       1.0  0.82477  0.40449000000000007  0.35743  1.0000
  H   H11       1.0  0.78908  0.63054  0.13231  1.0000
  H   H12       1.0  0.79195  0.71958  0.98768  1.0000
  H   H13       1.0  0.05635999999999995  0.8550300000000002  0.79588  1.0000
  H   H14       1.0  0.24578999999999987  0.8507100000000002  0.79931  1.0000
  H   H15       1.0  0.35320000000000007  0.8994299999999998  0.88432  1.0000
  H   H16       1.0  0.8468199999999997  0.77843  0.71838  1.0000
  H   H17       1.0  0.5922500000000002  0.7361099999999999  0.77958  1.0000
  H   H18       1.0  0.46518000000000004  0.6820699999999998  0.87428  1.0000
  H   H19       1.0  0.50761  0.71615  0.00578  1.0000
  H   H20       1.0  0.5040200000000002  0.62697  0.15057  1.0000
  H   H21       1.0  0.81315  0.67295  0.25745  1.0000
  H   H22       1.0  0.6895  0.61385  0.35243  1.0000
  H   H23       1.0  0.6105699999999998  0.27289  0.61993  1.0000
  H   H24       1.0  0.95897  0.45471  0.26571  1.0000
  H   H25       1.0  0.03958999999999999  0.52645  0.34775  1.0000
  H   H26       1.0  0.22626999999999997  0.52455  0.35341  1.0000
  H   H27       1.0  0.70138  0.07187000000000002  0.51492  1.0000
  H   H28       1.0  0.7955799999999998  0.68996  0.61971  1.0000
  H   H29       1.0  0.9773499999999999  0.7283300000000001  0.81064  1.0000
  H   H30       1.0  0.49638000000000004  0.75692  0.57064  1.0000
  H   H31       1.0  0.8152700000000002  0.8718900000000002  0.9247199999999999  1.0000
  H   H32       1.0  0.59152  0.14296000000000003  0.69939  1.0000
  H   H33       1.0  0.3051499999999999  0.08022  0.17575  1.0000
  H   H34       1.0  0.6705000000000001  0.36696999999999996  0.67273  1.0000
  H   H35       1.0  0.5373200000000001  0.41942  0.58552  1.0000
  H   H36       1.0  0.41011999999999993  0.57468  0.68299  1.0000
  H   H37       1.0  0.18583999999999998  0.41018  0.43427  1.0000
  H   H38       1.0  0.27771  0.7984799999999999  0.56436  1.0000
  H   H39       1.0  0.51152  0.05590999999999998  0.20967000000000002  1.0000
  H   H40       1.0  0.5357500000000001  0.52444  0.77937  1.0000
  H   H41       1.0  0.48563  0.34442  0.48153000000000007  1.0000
  H   H42       1.0  0.17523000000000002  0.5955099999999999  0.6425700000000001  1.0000
  H   H43       1.0  0.21093000000000003  0.36945999999999996  0.8676900000000001  1.0000
  H   H44       1.0  0.20805999999999997  0.28042  0.01232  1.0000
  H   H45       1.0  0.94365  0.14496999999999993  0.20412  1.0000
  H   H46       1.0  0.75422  0.14929  0.20069  1.0000
  H   H47       1.0  0.6468100000000001  0.10056999999999998  0.11568000000000002  1.0000
  H   H48       1.0  0.15319  0.22157  0.28162  1.0000
  H   H49       1.0  0.40776  0.26389  0.22043  1.0000
  H   H50       1.0  0.5348300000000002  0.31793  0.12572  1.0000
  H   H51       1.0  0.49239999999999995  0.28385  0.99423  1.0000
  H   H52       1.0  0.49599  0.37303  0.8494300000000001  1.0000
  H   H53       1.0  0.18684999999999996  0.32704999999999995  0.74256  1.0000
  H   H54       1.0  0.31051  0.38615  0.64758  1.0000
  H   H55       1.0  0.3894299999999999  0.7271100000000003  0.38007  1.0000
  H   H56       1.0  0.04104000000000001  0.54529  0.7343  1.0000
  H   H57       1.0  0.9604200000000002  0.47355  0.65225  1.0000
  H   H58       1.0  0.7737399999999999  0.4754500000000001  0.64659  1.0000
  H   H59       1.0  0.29863  0.92813  0.48508  1.0000
  H   H60       1.0  0.20442  0.3100399999999999  0.38029  1.0000
  H   H61       1.0  0.022650000000000024  0.27167  0.18937  1.0000
  H   H62       1.0  0.5036299999999999  0.24307999999999996  0.42936  1.0000
  H   H63       1.0  0.18473999999999996  0.12810999999999997  0.07528  1.0000
  H   H64       1.0  0.40848999999999996  0.85704  0.30061  1.0000
  C   C1        1.0  0.7576799999999999  0.8761699999999999  0.82514  1.0000
  C   C2        1.0  0.38641000000000003  0.5880899999999999  0.32152  1.0000
  C   C3        1.0  0.46007000000000003  0.55849  0.37115000000000004  1.0000
  C   C4        1.0  0.5318000000000002  0.47237999999999997  0.31529  1.0000
  C   C5        1.0  0.74487  0.62621  0.56796  1.0000
  C   C6        1.0  0.69396  0.1879  0.49348  1.0000
  C   C7        1.0  0.90579  0.79524  0.87619  1.0000
  C   C8        1.0  0.39834999999999987  0.78671  0.88698  1.0000
  C   C9        1.0  0.47878999999999994  0.88688  0.8106200000000001  1.0000
  C   C10       1.0  0.56523  0.7195300000000001  0.56993  1.0000
  C   C11       1.0  0.7347  0.6817200000000001  0.59751  1.0000
  C   C12       1.0  0.6332100000000002  0.023380000000000015  0.66046  1.0000
  C   C13       1.0  0.6452799999999999  0.10022999999999997  0.61177  1.0000
  C   C14       1.0  0.38777000000000006  0.56021  0.26449  1.0000
  C   C15       1.0  0.46164000000000005  0.50027  0.26272  1.0000
  C   C16       1.0  0.896  0.56816  0.25379  1.0000
  C   C17       1.0  0.6649  0.61611  0.54031  1.0000
  C   C18       1.0  0.5752300000000005  0.66351  0.54097  1.0000
  C   C19       1.0  0.66834  0.24457000000000004  0.5233  1.0000
  C   C20       1.0  0.82713  0.46323999999999993  0.33439  1.0000
  C   C21       1.0  0.94313  0.64415  0.12523  1.0000
  C   C22       1.0  0.84849  0.65498  0.09903  1.0000
  C   C23       1.0  0.84998  0.70023  0.02551  1.0000
  C   C24       1.0  0.9455800000000001  0.71751  0.00619  1.0000
  C   C25       1.0  0.9774199999999997  0.7624200000000001  0.9352799999999999  1.0000
  C   C26       1.0  0.8252099999999994  0.85006  0.87967  1.0000
  C   C27       1.0  0.07153999999999998  0.77669  0.91504  1.0000
  C   C28       1.0  0.10235999999999998  0.8241400000000001  0.84227  1.0000
  C   C29       1.0  0.19856999999999997  0.82233  0.84421  1.0000
  C   C30       1.0  0.2271199999999999  0.77429  0.91848  1.0000
  C   C31       1.0  0.32157  0.75569  0.94273  1.0000
  C   C32       1.0  0.40487999999999996  0.8614400000000001  0.86256  1.0000
  C   C33       1.0  0.8442599999999999  0.79811  0.76438  1.0000
  C   C34       1.0  0.6322799999999998  0.7875500000000001  0.63191  1.0000
  C   C35       1.0  0.64471  0.7285300000000001  0.59905  1.0000
  C   C36       1.0  0.61994  0.15683000000000002  0.64161  1.0000
  C   C37       1.0  0.6824400000000002  0.11625  0.53734  1.0000
  C   C38       1.0  0.5382799999999999  0.7698299999999999  0.8050200000000001  1.0000
  C   C39       1.0  0.46749999999999997  0.7404  0.85726  1.0000
  C   C40       1.0  0.35085  0.70857  0.014560000000000002  1.0000
  C   C41       1.0  0.44722000000000006  0.69359  0.03957  1.0000
  C   C42       1.0  0.44543999999999995  0.64833  0.11306  1.0000
  C   C43       1.0  0.34799999999999975  0.63521  0.13365  1.0000
  C   C44       1.0  0.31489000000000006  0.59467  0.20622  1.0000
  C   C45       1.0  0.21891999999999998  0.58598  0.22825  1.0000
  C   C46       1.0  0.06389000000000009  0.5878599999999999  0.22428  1.0000
  C   C47       1.0  0.9714099999999999  0.6012  0.19837  1.0000
  C   C48       1.0  0.8185299999999999  0.61334  0.27826  1.0000
  C   C49       1.0  0.74961  0.58107  0.33045  1.0000
  C   C50       1.0  0.6766099999999999  0.55422  0.51151  1.0000
  C   C51       1.0  0.6769700000000001  0.32203000000000004  0.47476  1.0000
  C   C52       1.0  0.6311700000000001  0.22839999999999996  0.59774  1.0000
  C   C53       1.0  0.89989  0.49162000000000006  0.28323  1.0000
  C   C54       1.0  0.08897999999999998  0.54884  0.30123  1.0000
  C   C55       1.0  0.18473  0.54769  0.30381  1.0000
  C   C56       1.0  0.9156200000000001  0.7703499999999999  0.81598  1.0000
  C   C57       1.0  0.24233000000000002  0.12382999999999998  0.17486  1.0000
  C   C58       1.0  0.6136  0.41190999999999994  0.67849  1.0000
  C   C59       1.0  0.5399400000000001  0.44151000000000007  0.62886  1.0000
  C   C60       1.0  0.46820999999999996  0.5276200000000001  0.68471  1.0000
  C   C61       1.0  0.25514  0.37379  0.43205  1.0000
  C   C62       1.0  0.30604  0.8121  0.50653  1.0000
  C   C63       1.0  0.09421999999999997  0.20476  0.12381  1.0000
  C   C64       1.0  0.60166  0.21329  0.11301999999999998  1.0000
  C   C65       1.0  0.52122  0.11312  0.18938  1.0000
  C   C66       1.0  0.43477999999999994  0.28046999999999994  0.43008  1.0000
  C   C67       1.0  0.26531  0.31828  0.40249  1.0000
  C   C68       1.0  0.36680000000000007  0.97662  0.33954  1.0000
  C   C69       1.0  0.35473  0.89977  0.38823  1.0000
  C   C70       1.0  0.61223  0.43979  0.73551  1.0000
  C   C71       1.0  0.5383699999999999  0.49973  0.73728  1.0000
  C   C72       1.0  0.10399999999999997  0.43184000000000006  0.74621  1.0000
  C   C73       1.0  0.33511  0.38389  0.45969000000000004  1.0000
  C   C74       1.0  0.42477000000000004  0.33649  0.45903  1.0000
  C   C75       1.0  0.33166999999999996  0.75543  0.4767  1.0000
  C   C76       1.0  0.17288  0.53676  0.66562  1.0000
  C   C77       1.0  0.056879999999999965  0.35585000000000006  0.87477  1.0000
  C   C78       1.0  0.15151999999999996  0.34502  0.90097  1.0000
  C   C79       1.0  0.15003  0.29977  0.9744899999999999  1.0000
  C   C80       1.0  0.05443000000000001  0.28249  0.9938100000000001  1.0000
  C   C81       1.0  0.02259  0.23758  0.06473  1.0000
  C   C82       1.0  0.1748  0.14994  0.12033  1.0000
  C   C83       1.0  0.92847  0.22331  0.08497  1.0000
  C   C84       1.0  0.89764  0.17586  0.15774  1.0000
  C   C85       1.0  0.80144  0.17767  0.15579000000000004  1.0000
  C   C86       1.0  0.77289  0.22570999999999994  0.08152  1.0000
  C   C87       1.0  0.67844  0.24431  0.057269999999999995  1.0000
  C   C88       1.0  0.59513  0.13856  0.13744  1.0000
  C   C89       1.0  0.15575000000000003  0.20188999999999993  0.23562  1.0000
  C   C90       1.0  0.36773  0.21245  0.3681  1.0000
  C   C91       1.0  0.35530000000000006  0.27147  0.40095  1.0000
  C   C92       1.0  0.38007  0.8431700000000001  0.35839  1.0000
  C   C93       1.0  0.3175700000000001  0.88375  0.46266  1.0000
  C   C94       1.0  0.46173000000000003  0.23017000000000004  0.19499000000000002  1.0000
  C   C95       1.0  0.5325000000000001  0.2596  0.14274  1.0000
  C   C96       1.0  0.6491599999999998  0.29142999999999997  0.98544  1.0000
  C   C97       1.0  0.55279  0.30641  0.96043  1.0000
  C   C98       1.0  0.55457  0.35167  0.88694  1.0000
  C   C99       1.0  0.65201  0.36479  0.86635  1.0000
  C   C100      1.0  0.68512  0.40532999999999997  0.79378  1.0000
  C   C101      1.0  0.7810899999999998  0.41402000000000005  0.77175  1.0000
  C   C102      1.0  0.9361100000000001  0.4121399999999999  0.77572  1.0000
  C   C103      1.0  0.028589999999999977  0.3988000000000001  0.80163  1.0000
  C   C104      1.0  0.18148  0.38665999999999995  0.72175  1.0000
  C   C105      1.0  0.25039999999999996  0.4189300000000001  0.66955  1.0000
  C   C106      1.0  0.32339  0.44578000000000007  0.48849  1.0000
  C   C107      1.0  0.32304000000000005  0.67797  0.52525  1.0000
  C   C108      1.0  0.3688400000000001  0.7716  0.40226  1.0000
  C   C109      1.0  0.10011999999999999  0.50838  0.71677  1.0000
  C   C110      1.0  0.91103  0.4511599999999999  0.69878  1.0000
  C   C111      1.0  0.8152699999999999  0.45230999999999993  0.69619  1.0000
  C   C112      1.0  0.08438999999999999  0.22965000000000002  0.18403  1.0000
  N   N1        1.0  0.14841  0.74751  0.96097  1.0000
  N   N2        1.0  0.5443  0.84173  0.78216  1.0000
  N   N3        1.0  0.76596  0.8496499999999999  0.76917  1.0000
  N   N4        1.0  0.29165  0.67228  0.07268  1.0000
  N   N5        1.0  0.53219  0.50215  0.36773  1.0000
  N   N6        1.0  0.14382  0.61103  0.18072  1.0000
  N   N7        1.0  0.7533499999999999  0.50741  0.35777  1.0000
  N   N8        1.0  0.0013199999999999716  0.68213  0.06761  1.0000
  N   N9        1.0  0.85159  0.25249  0.03903  1.0000
  N   N10       1.0  0.4557  0.15827  0.21784  1.0000
  N   N11       1.0  0.23405  0.15035  0.23084  1.0000
  N   N12       1.0  0.70836  0.32771999999999996  0.92732  1.0000
  N   N13       1.0  0.4678199999999999  0.49785  0.63227  1.0000
  N   N14       1.0  0.8561800000000002  0.38897  0.81928  1.0000
  N   N15       1.0  0.24665999999999993  0.49259  0.64223  1.0000
  N   N16       1.0  0.9986800000000001  0.31787  0.93239  1.0000
  O   O1        1.0  0.7050400000000001  0.7874899999999999  0.66671  1.0000
  O   O2        1.0  0.55465  0.8336300000000001  0.62784  1.0000
  O   O3        1.0  0.65584  0.9747499999999999  0.62774  1.0000
  O   O4        1.0  0.605  0.5552  0.47502000000000005  1.0000
  O   O5        1.0  0.7515599999999996  0.50496  0.5226  1.0000
  O   O6        1.0  0.65233  0.3704700000000001  0.50817  1.0000
  O   O7        1.0  0.70382  0.33786  0.40689  1.0000
  O   O8        1.0  0.60425  0.00923  0.72802  1.0000
  O   O9        1.0  0.29496  0.21251  0.33329  1.0000
  O   O10       1.0  0.44536000000000003  0.16637  0.37217  1.0000
  O   O11       1.0  0.34417000000000003  0.025249999999999988  0.37227  1.0000
  O   O12       1.0  0.39501000000000003  0.44480000000000003  0.52498  1.0000
  O   O13       1.0  0.24845  0.49504  0.47741  1.0000
  O   O14       1.0  0.34767000000000026  0.62953  0.49183000000000004  1.0000
  O   O15       1.0  0.29618999999999995  0.6621400000000001  0.59311  1.0000
  O   O16       1.0  0.39576000000000006  0.99077  0.27198  1.0000
