data_image0
_chemical_formula_structural       Eu8H44W4C80N48O20
_chemical_formula_sum              "Eu8 H44 W4 C80 N48 O20"
_cell_length_a       9.38069
_cell_length_b       19.762599999999996
_cell_length_c       19.11086
_cell_angle_alpha    90.06678
_cell_angle_beta     105.73919
_cell_angle_gamma    90.20185

_space_group_name_H-M_alt    "P 1"
_space_group_IT_number       1

loop_
  _space_group_symop_operation_xyz
  'x, y, z'

loop_
  _atom_site_type_symbol
  _atom_site_label
  _atom_site_symmetry_multiplicity
  _atom_site_fract_x
  _atom_site_fract_y
  _atom_site_fract_z
  _atom_site_occupancy
  Eu  Eu1       1.0  0.41694  0.62419  0.13341999999999998  1.0000
  Eu  Eu2       1.0  0.11842999999999998  0.65477  0.26507  1.0000
  Eu  Eu3       1.0  0.58573  0.12448999999999999  0.36723  1.0000
  Eu  Eu4       1.0  0.8837100000000001  0.15597  0.23479999999999998  1.0000
  Eu  Eu5       1.0  0.58308  0.37581  0.86583  1.0000
  Eu  Eu6       1.0  0.88089  0.3448  0.73397  1.0000
  Eu  Eu7       1.0  0.41802  0.8765  0.63313  1.0000
  Eu  Eu8       1.0  0.12048000000000003  0.84337  0.765  1.0000
  H   H1        1.0  0.3311600000000001  0.48404  0.99787  1.0000
  H   H2        1.0  0.9561999999999999  0.4348699999999999  0.12319  1.0000
  H   H3        1.0  0.05026999999999998  0.35069  0.9165399999999999  1.0000
  H   H4        1.0  0.20492000000000005  0.39875  0.90363  1.0000
  H   H5        1.0  0.23227999999999988  0.32934  0.96581  1.0000
  H   H6        1.0  0.34449  0.7798  0.03268  1.0000
  H   H7        1.0  0.85114  0.82948  0.17283  1.0000
  H   H8        1.0  0.52281  0.93005  0.97631  1.0000
  H   H9        1.0  0.3513999999999999  0.88445  0.96365  1.0000
  H   H10       1.0  0.40707  0.9448000000000001  0.03521  1.0000
  H   H11       1.0  0.12107999999999998  0.64492  0.02254  1.0000
  H   H12       1.0  0.67218  0.9845  0.50145  1.0000
  H   H13       1.0  0.04303000000000002  0.93401  0.37427  1.0000
  H   H14       1.0  0.9496299999999999  0.8505999999999999  0.58139  1.0000
  H   H15       1.0  0.79771  0.8997700000000001  0.59516  1.0000
  H   H16       1.0  0.76604  0.83037  0.53241  1.0000
  H   H17       1.0  0.6613  0.28051  0.46725  1.0000
  H   H18       1.0  0.1551  0.32985  0.32776  1.0000
  H   H19       1.0  0.48823  0.43055000000000004  0.5247  1.0000
  H   H20       1.0  0.6588  0.38539  0.53543  1.0000
  H   H21       1.0  0.60117  0.44583  0.46446999999999994  1.0000
  H   H22       1.0  0.8788099999999999  0.14557  0.48033999999999993  1.0000
  H   H23       1.0  0.66813  0.51566  0.99979  1.0000
  H   H24       1.0  0.042749999999999955  0.56592  0.8745699999999998  1.0000
  H   H25       1.0  0.9489399999999999  0.64889  0.08115  1.0000
  H   H26       1.0  0.79484  0.60033  0.09426999999999999  1.0000
  H   H27       1.0  0.76636  0.66978  0.03189  1.0000
  H   H28       1.0  0.6524100000000002  0.22039000000000003  0.96722  1.0000
  H   H29       1.0  0.14693000000000003  0.1714  0.82489  1.0000
  H   H30       1.0  0.47012999999999994  0.07022  0.02163  1.0000
  H   H31       1.0  0.64202  0.11583  0.03651  1.0000
  H   H32       1.0  0.58897  0.056  0.96417  1.0000
  H   H33       1.0  0.8795600000000001  0.35516  0.9770399999999999  1.0000
  H   H34       1.0  0.32793  0.01643  0.49811  1.0000
  H   H35       1.0  0.9580100000000001  0.06459  0.6264199999999999  1.0000
  H   H36       1.0  0.04635000000000004  0.14892  0.41918  1.0000
  H   H37       1.0  0.20154  0.10223  0.40521  1.0000
  H   H38       1.0  0.22824  0.17138  0.46813000000000005  1.0000
  H   H39       1.0  0.34002  0.72163  0.53175  1.0000
  H   H40       1.0  0.84591  0.66997  0.66989  1.0000
  H   H41       1.0  0.50944  0.56967  0.47483  1.0000
  H   H42       1.0  0.33955  0.61548  0.46349  1.0000
  H   H43       1.0  0.39617  0.55548  0.53504  1.0000
  H   H44       1.0  0.12199999999999998  0.8539499999999999  0.52253  1.0000
  W   W1        1.0  0.5895799999999999  0.34702  0.16611999999999996  1.0000
  W   W2        1.0  0.41162000000000004  0.8469499999999999  0.33315  1.0000
  W   W3        1.0  0.41313999999999995  0.65281  0.8334499999999998  1.0000
  W   W4        1.0  0.58712  0.15375  0.66565  1.0000
  C   C1        1.0  0.24915  0.47189  0.026809999999999997  1.0000
  C   C2        1.0  0.1488  0.41798  0.0038599999999999997  1.0000
  C   C3        1.0  0.03995  0.44502  0.0947  1.0000
  C   C4        1.0  0.14479  0.49639999999999995  0.11913  1.0000
  C   C5        1.0  0.15941999999999992  0.37228  0.9432399999999999  1.0000
  C   C6        1.0  0.14781  0.53878  0.18414  1.0000
  C   C7        1.0  0.45821  0.7908  0.06326  1.0000
  C   C8        1.0  0.52701  0.8529300000000001  0.05492  1.0000
  C   C9        1.0  0.73935  0.81767  0.13943999999999998  1.0000
  C   C10       1.0  0.6719  0.75539  0.14609  1.0000
  C   C11       1.0  0.44722  0.90608  0.0037699999999999995  1.0000
  C   C12       1.0  0.74854  0.69938  0.19466  1.0000
  C   C13       1.0  0.58302  0.4540199999999999  0.15629  1.0000
  C   C14       1.0  0.42013  0.62397  0.94118  1.0000
  C   C15       1.0  0.38159  0.76296  0.25995  1.0000
  C   C16       1.0  0.38452  0.36284  0.18779  1.0000
  C   C17       1.0  0.82054  0.3618  0.21026  1.0000
  C   C18       1.0  0.62774  0.38845  0.27409  1.0000
  C   C19       1.0  0.70668  0.26732  0.12781  1.0000
  C   C20       1.0  0.42975  0.27951  0.10086  1.0000
  C   C21       1.0  0.75394  0.9723700000000001  0.4724  1.0000
  C   C22       1.0  0.85272  0.9181400000000001  0.49473  1.0000
  C   C23       1.0  0.96091  0.9445700000000001  0.40356999999999993  1.0000
  C   C24       1.0  0.8586600000000003  0.9967199999999999  0.38018  1.0000
  C   C25       1.0  0.8412600000000001  0.87279  0.55524  1.0000
  C   C26       1.0  0.85656  0.0393  0.31558  1.0000
  C   C27       1.0  0.5477099999999999  0.2914  0.43671999999999994  1.0000
  C   C28       1.0  0.48034  0.35366  0.4451399999999999  1.0000
  C   C29       1.0  0.26688999999999996  0.31831  0.3609499999999999  1.0000
  C   C30       1.0  0.33273  0.25581  0.35449  1.0000
  C   C31       1.0  0.56206  0.40689  0.49613999999999997  1.0000
  C   C32       1.0  0.25396  0.19953  0.30655  1.0000
  C   C33       1.0  0.42076  0.95395  0.34193999999999997  1.0000
  C   C34       1.0  0.57694  0.12386000000000001  0.55789  1.0000
  C   C35       1.0  0.61962  0.26376  0.24013999999999996  1.0000
  C   C36       1.0  0.61731  0.86142  0.31154  1.0000
  C   C37       1.0  0.18163  0.8625  0.2888  1.0000
  C   C38       1.0  0.37488  0.88691  0.22475999999999996  1.0000
  C   C39       1.0  0.29181  0.76807  0.37134  1.0000
  C   C40       1.0  0.56919  0.7799  0.3996  1.0000
  C   C41       1.0  0.75054  0.52767  0.97103  1.0000
  C   C42       1.0  0.85061  0.58165  0.9940399999999999  1.0000
  C   C43       1.0  0.95962  0.55518  0.90323  1.0000
  C   C44       1.0  0.85584  0.5034  0.879  1.0000
  C   C45       1.0  0.83987  0.62708  0.05469  1.0000
  C   C46       1.0  0.853  0.46096  0.81415  1.0000
  C   C47       1.0  0.53921  0.20956  0.9357799999999998  1.0000
  C   C48       1.0  0.46935  0.14775  0.94405  1.0000
  C   C49       1.0  0.25866999999999984  0.18302  0.8583999999999998  1.0000
  C   C50       1.0  0.3273599999999999  0.24491  0.8515899999999997  1.0000
  C   C51       1.0  0.54746  0.09445  0.9954099999999999  1.0000
  C   C52       1.0  0.25155  0.30071  0.80249  1.0000
  C   C53       1.0  0.41686  0.54573  0.84304  1.0000
  C   C54       1.0  0.58056  0.37579  0.05816999999999999  1.0000
  C   C55       1.0  0.6185899999999999  0.23721000000000003  0.7394599999999999  1.0000
  C   C56       1.0  0.61757  0.63671  0.8113  1.0000
  C   C57       1.0  0.18202000000000002  0.6396  0.78857  1.0000
  C   C58       1.0  0.37487  0.61134  0.72547  1.0000
  C   C59       1.0  0.29782  0.73284  0.8721600000000002  1.0000
  C   C60       1.0  0.57433  0.71928  0.89943  1.0000
  C   C61       1.0  0.24664999999999995  0.02801  0.52761  1.0000
  C   C62       1.0  0.1469  0.08193  0.50564  1.0000
  C   C63       1.0  0.04032000000000001  0.05439  0.59717  1.0000
  C   C64       1.0  0.14396  0.0027  0.62048  1.0000
  C   C65       1.0  0.15613  0.12799  0.44521  1.0000
  C   C66       1.0  0.14726  0.9599  0.68528  1.0000
  C   C67       1.0  0.45365000000000005  0.71016  0.5618  1.0000
  C   C68       1.0  0.51895  0.64734  0.55349  1.0000
  C   C69       1.0  0.73423  0.68196  0.63695  1.0000
  C   C70       1.0  0.6704  0.74495  0.64334  1.0000
  C   C71       1.0  0.43585  0.59398  0.50307  1.0000
  C   C72       1.0  0.75079  0.80067  0.69167  1.0000
  C   C73       1.0  0.58099  0.04679  0.65673  1.0000
  C   C74       1.0  0.41956000000000004  0.8771399999999999  0.44074  1.0000
  C   C75       1.0  0.38606  0.73658  0.76011  1.0000
  C   C76       1.0  0.38176  0.13865  0.68727  1.0000
  C   C77       1.0  0.8174899999999999  0.13873  0.7097999999999999  1.0000
  C   C78       1.0  0.62389  0.11335999999999999  0.7739099999999999  1.0000
  C   C79       1.0  0.7060699999999999  0.23275000000000004  0.6271699999999999  1.0000
  C   C80       1.0  0.42923000000000006  0.22102999999999998  0.59985  1.0000
  N   N1        1.0  0.24697000000000002  0.51075  0.08370999999999999  1.0000
  N   N2        1.0  0.04108  0.4064900000000001  0.03715  1.0000
  N   N3        1.0  0.53054  0.7431  0.1081  1.0000
  N   N4        1.0  0.66637  0.86493  0.09395999999999999  1.0000
  N   N5        1.0  0.56907  0.51254  0.14698  1.0000
  N   N6        1.0  0.4328699999999999  0.61037  0.00232  1.0000
  N   N7        1.0  0.35215  0.71471  0.22282  1.0000
  N   N8        1.0  0.27237  0.37223  0.20278  1.0000
  N   N9        1.0  0.9484099999999999  0.36599  0.23832  1.0000
  N   N10       1.0  0.64734  0.4094999999999999  0.33337  1.0000
  N   N11       1.0  0.77261  0.21994  0.11635  1.0000
  N   N12       1.0  0.34388  0.24356  0.061599999999999995  1.0000
  N   N13       1.0  0.75729  0.01146  0.4159799999999999  1.0000
  N   N14       1.0  0.95931  0.90603  0.46099  1.0000
  N   N15       1.0  0.47390999999999994  0.24346  0.39225  1.0000
  N   N16       1.0  0.34119  0.36578  0.4062  1.0000
  N   N17       1.0  0.43533000000000005  0.01257  0.35057999999999995  1.0000
  N   N18       1.0  0.56336  0.10950999999999998  0.49683  1.0000
  N   N19       1.0  0.64936  0.21590999999999996  0.27762  1.0000
  N   N20       1.0  0.72992  0.8697699999999999  0.29659  1.0000
  N   N21       1.0  0.05401999999999998  0.86814  0.26101  1.0000
  N   N22       1.0  0.35584000000000005  0.9068999999999999  0.16519  1.0000
  N   N23       1.0  0.22449999999999998  0.72097  0.38275999999999993  1.0000
  N   N24       1.0  0.65373  0.7442  0.43938999999999995  1.0000
  N   N25       1.0  0.7534999999999998  0.48879  0.91431  1.0000
  N   N26       1.0  0.9582800000000001  0.59349  0.9608599999999999  1.0000
  N   N27       1.0  0.46826  0.25709  0.89027  1.0000
  N   N28       1.0  0.33039  0.13595  0.90445  1.0000
  N   N29       1.0  0.42919  0.48714  0.85231  1.0000
  N   N30       1.0  0.56668  0.38942  0.99694  1.0000
  N   N31       1.0  0.6493699999999999  0.28505  0.7771399999999999  1.0000
  N   N32       1.0  0.72916  0.62718  0.79582  1.0000
  N   N33       1.0  0.05411999999999994  0.63613  0.7603399999999999  1.0000
  N   N34       1.0  0.35556999999999994  0.58999  0.6663399999999999  1.0000
  N   N35       1.0  0.23214000000000012  0.78018  0.88391  1.0000
  N   N36       1.0  0.6610599999999999  0.75446  0.9392499999999999  1.0000
  N   N37       1.0  0.24498  0.98874  0.58424  1.0000
  N   N38       1.0  0.040619999999999996  0.09318  0.53978  1.0000
  N   N39       1.0  0.5293399999999999  0.75792  0.6059099999999998  1.0000
  N   N40       1.0  0.6579899999999999  0.63465  0.5921999999999998  1.0000
  N   N41       1.0  0.56794  0.9881299999999998  0.64792  1.0000
  N   N42       1.0  0.43238  0.8913700000000001  0.50177  1.0000
  N   N43       1.0  0.35841  0.78477  0.72306  1.0000
  N   N44       1.0  0.2696  0.13016  0.7026  1.0000
  N   N45       1.0  0.9452200000000001  0.13357  0.73751  1.0000
  N   N46       1.0  0.64238  0.09308  0.83334  1.0000
  N   N47       1.0  0.77316  0.27993  0.61577  1.0000
  N   N48       1.0  0.34435  0.2565  0.55995  1.0000
  O   O1        1.0  0.03583  0.54202  0.20882  1.0000
  O   O2        1.0  0.2652  0.57516  0.21138  1.0000
  O   O3        1.0  0.8888699999999999  0.70422  0.22172999999999998  1.0000
  O   O4        1.0  0.67131  0.64967  0.20489  1.0000
  O   O5        1.0  0.19758999999999996  0.65979  0.06662999999999998  1.0000
  O   O6        1.0  0.96468  0.0408  0.28809  1.0000
  O   O7        1.0  0.74178  0.07771  0.29133  1.0000
  O   O8        1.0  0.11428000000000002  0.20559999999999998  0.27825  1.0000
  O   O9        1.0  0.32835  0.14831  0.29828  1.0000
  O   O10       1.0  0.8018  0.16134  0.4370299999999999  1.0000
  O   O11       1.0  0.96361  0.45796999999999993  0.7883599999999998  1.0000
  O   O12       1.0  0.73564  0.42426  0.78802  1.0000
  O   O13       1.0  0.1112599999999999  0.29581  0.7752599999999997  1.0000
  O   O14       1.0  0.3288299999999999  0.35027  0.79201  1.0000
  O   O15       1.0  0.8015699999999999  0.34012  0.9334999999999999  1.0000
  O   O16       1.0  0.03701999999999996  0.95662  0.71132  1.0000
  O   O17       1.0  0.26429  0.9232100000000001  0.71127  1.0000
  O   O18       1.0  0.8908500000000001  0.79428  0.71864  1.0000
  O   O19       1.0  0.67757  0.85169  0.70159  1.0000
  O   O20       1.0  0.19901  0.8389700000000001  0.56622  1.0000
