data_image0
_chemical_formula_structural       Cu8H32C112O40
_chemical_formula_sum              "Cu8 H32 C112 O40"
_cell_length_a       15.02132
_cell_length_b       15.0122
_cell_length_c       26.48407
_cell_angle_alpha    106.4955
_cell_angle_beta     106.494
_cell_angle_gamma    90.06198

_symmetry_space_group_name_H-M    'P 1'
_symmetry_Int_Tables_number       1

loop_
  _symmetry_equiv_pos_as_xyz
  'x,y,z'

loop_
  _atom_site_type_symbol
  _atom_site_label
  _atom_site_symmetry_multiplicity
  _atom_site_fract_x
  _atom_site_fract_y
  _atom_site_fract_z
  _atom_site_occupancy
  Cu  Cu1       1.0  0.42022  0.3039999999999999  0.7244999999999998  1.0000
  Cu  Cu2       1.0  0.30583  0.42021  0.72397  1.0000
  Cu  Cu3       1.0  0.05335000000000003  0.55426  0.22421  1.0000
  Cu  Cu4       1.0  0.17022000000000007  0.66866  0.22455999999999998  1.0000
  Cu  Cu5       1.0  0.3315899999999999  0.8296899999999999  0.7753299999999997  1.0000
  Cu  Cu6       1.0  0.44598000000000004  0.94656  0.77571  1.0000
  Cu  Cu7       1.0  0.69579  0.57972  0.27543  1.0000
  Cu  Cu8       1.0  0.57975  0.69429  0.27593  1.0000
  H   H1        1.0  0.26896000000000003  0.4244  0.88615  1.0000
  H   H2        1.0  0.2669500000000001  0.9698599999999999  0.9277899999999999  1.0000
  H   H3        1.0  0.33638  0.14814  0.81601  1.0000
  H   H4        1.0  0.24207999999999993  0.3779399999999999  0.9638699999999998  1.0000
  H   H5        1.0  0.6192699999999999  0.4625599999999999  0.8873299999999998  1.0000
  H   H6        1.0  0.6598700000000002  0.95904  0.9291  1.0000
  H   H7        1.0  0.48123  0.66759  0.81624  1.0000
  H   H8        1.0  0.7231200000000002  0.58746  0.9651  1.0000
  H   H9        1.0  0.17412999999999998  0.86742  0.3867499999999999  1.0000
  H   H10       1.0  0.7202100000000002  0.9097799999999999  0.42889999999999995  1.0000
  H   H11       1.0  0.8980600000000002  0.72881  0.3167  1.0000
  H   H12       1.0  0.12740999999999994  0.97283  0.4641699999999999  1.0000
  H   H13       1.0  0.21226  0.51669  0.38665  1.0000
  H   H14       1.0  0.7082400000000002  0.51781  0.42826  1.0000
  H   H15       1.0  0.41742  0.58448  0.31583  1.0000
  H   H16       1.0  0.33706000000000014  0.49126  0.46448  1.0000
  H   H17       1.0  0.48351  0.78757  0.61326  1.0000
  H   H18       1.0  0.4819  0.29119  0.57144  1.0000
  H   H19       1.0  0.4158299999999999  0.5823599999999999  0.6841099999999999  1.0000
  H   H20       1.0  0.50851  0.66271  0.53529  1.0000
  H   H21       1.0  0.13239  0.82569  0.61334  1.0000
  H   H22       1.0  0.09007000000000007  0.27981  0.57118  1.0000
  H   H23       1.0  0.27108999999999994  0.1018199999999999  0.6832299999999999  1.0000
  H   H24       1.0  0.026829999999999958  0.87239  0.53595  1.0000
  H   H25       1.0  0.57583  0.73112  0.11391  1.0000
  H   H26       1.0  0.029950000000000008  0.7328999999999999  0.07207  1.0000
  H   H27       1.0  0.8518700000000002  0.66354  0.18391999999999997  1.0000
  H   H28       1.0  0.6220900000000001  0.75809  0.03614  1.0000
  H   H29       1.0  0.53723  0.38049  0.11260999999999997  1.0000
  H   H30       1.0  0.04108000000000001  0.34009  0.0709  1.0000
  H   H31       1.0  0.3324700000000001  0.51878  0.18378  1.0000
  H   H32       1.0  0.41232000000000013  0.27667  0.03488  1.0000
  C   C1        1.0  0.27691000000000004  0.3534799999999999  0.8883399999999998  1.0000
  C   C2        1.0  0.3038400000000001  0.2876399999999999  0.8463399999999999  1.0000
  C   C3        1.0  0.29778  0.07157999999999991  0.8902999999999998  1.0000
  C   C4        1.0  0.24819999999999998  0.20422000000000004  0.97585  1.0000
  C   C5        1.0  0.29618999999999995  0.16708999999999988  0.8905899999999998  1.0000
  C   C6        1.0  0.26934  0.23373999999999998  0.9334  1.0000
  C   C7        1.0  0.24691  0.11004999999999987  0.9716199999999998  1.0000
  C   C8        1.0  0.26943  0.042889999999999914  0.9290199999999997  1.0000
  C   C9        1.0  0.33036  0.001029999999999912  0.8483199999999997  1.0000
  C   C10       1.0  0.31470000000000004  0.19697999999999993  0.8482299999999999  1.0000
  C   C11       1.0  0.26187999999999995  0.32731  0.9313399999999998  1.0000
  C   C12       1.0  0.32118  0.3135899999999999  0.79953  1.0000
  C   C13       1.0  0.17386000000000001  0.00858  0.00415  1.0000
  C   C14       1.0  0.1205  0.94535  0.00219  1.0000
  C   C15       1.0  0.61314  0.53561  0.88942  1.0000
  C   C16       1.0  0.5443099999999998  0.55904  0.8472299999999999  1.0000
  C   C17       1.0  0.59246  0.81959  0.8913499999999999  1.0000
  C   C18       1.0  0.7275900000000001  0.773  0.97713  1.0000
  C   C19       1.0  0.59489  0.7242399999999999  0.8914299999999997  1.0000
  C   C20       1.0  0.66442  0.70074  0.9344699999999998  1.0000
  C   C21       1.0  0.7243900000000001  0.8629399999999999  0.9729399999999999  1.0000
  C   C22       1.0  0.65918  0.88722  0.9302899999999997  1.0000
  C   C23       1.0  0.51791  0.8491699999999999  0.84987  1.0000
  C   C24       1.0  0.53486  0.65148  0.84882  1.0000
  C   C25       1.0  0.6705800000000002  0.6052000000000001  0.93251  1.0000
  C   C26       1.0  0.48058  0.4856299999999999  0.8004699999999998  1.0000
  C   C27       1.0  0.8306400000000003  0.99629  0.00524  1.0000
  C   C28       1.0  0.8825400000000002  0.05649  0.0026699999999999996  1.0000
  C   C29       1.0  0.10331  0.86152  0.38901  1.0000
  C   C30       1.0  0.0377  0.79184  0.3473  1.0000
  C   C31       1.0  0.8216199999999999  0.8418199999999999  0.3911799999999999  1.0000
  C   C32       1.0  0.9542800000000001  0.9773599999999999  0.47653999999999996  1.0000
  C   C33       1.0  0.91698  0.84396  0.39129  1.0000
  C   C34       1.0  0.9836600000000002  0.91392  0.434  1.0000
  C   C35       1.0  0.86025  0.97428  0.47239  1.0000
  C   C36       1.0  0.7930899999999997  0.90891  0.4299399999999999  1.0000
  C   C37       1.0  0.7505400000000002  0.76747  0.34936  1.0000
  C   C38       1.0  0.9469100000000003  0.78285  0.349  1.0000
  C   C39       1.0  0.07704999999999998  0.91992  0.4318199999999999  1.0000
  C   C40       1.0  0.06410999999999997  0.72706  0.30086  1.0000
  C   C41       1.0  0.7592500000000002  0.08033  0.50447  1.0000
  C   C42       1.0  0.69644  0.13205999999999996  0.50254  1.0000
  C   C43       1.0  0.2852200000000001  0.5252  0.38872  1.0000
  C   C44       1.0  0.30877  0.55212  0.34663  1.0000
  C   C45       1.0  0.56889  0.54752  0.39064  1.0000
  C   C46       1.0  0.5222700000000002  0.49814  0.47627  1.0000
  C   C47       1.0  0.47367000000000004  0.54522  0.39072  1.0000
  C   C48       1.0  0.4501400000000001  0.51879  0.43372  1.0000
  C   C49       1.0  0.6120600000000003  0.49663  0.47193  1.0000
  C   C50       1.0  0.63646  0.51952  0.42941  1.0000
  C   C51       1.0  0.59775  0.58066  0.349  1.0000
  C   C52       1.0  0.4011900000000001  0.56315  0.34828  1.0000
  C   C53       1.0  0.35468000000000005  0.51083  0.43177  1.0000
  C   C54       1.0  0.23583000000000004  0.56973  0.29996999999999996  1.0000
  C   C55       1.0  0.7456700000000003  0.4230499999999999  0.5041699999999999  1.0000
  C   C56       1.0  0.8068  0.36967  0.50224  1.0000
  C   C57       1.0  0.47511  0.71457  0.61121  1.0000
  C   C58       1.0  0.44852000000000003  0.6911  0.65341  1.0000
  C   C59       1.0  0.4524100000000001  0.43069  0.6092  1.0000
  C   C60       1.0  0.50145  0.47735  0.52344  1.0000
  C   C61       1.0  0.45483  0.5259899999999997  0.6091499999999999  1.0000
  C   C62       1.0  0.48109  0.54953  0.56608  1.0000
  C   C63       1.0  0.50298  0.38753  0.5278  1.0000
  C   C64       1.0  0.48012  0.36304  0.57031  1.0000
  C   C65       1.0  0.4195000000000001  0.40204  0.65096  1.0000
  C   C66       1.0  0.43719  0.59858  0.65167  1.0000
  C   C67       1.0  0.4891800000000001  0.64505  0.56806  1.0000
  C   C68       1.0  0.43144999999999994  0.76423  0.7002399999999999  1.0000
  C   C69       1.0  0.5764200000000003  0.2538  0.49555  1.0000
  C   C70       1.0  0.6303500000000002  0.19318000000000002  0.49755  1.0000
  C   C71       1.0  0.1382400000000001  0.89652  0.61105  1.0000
  C   C72       1.0  0.2079900000000001  0.96212  0.65268  1.0000
  C   C73       1.0  0.15801  0.17827999999999994  0.6088599999999998  1.0000
  C   C74       1.0  0.022429999999999926  0.04558999999999996  0.5235199999999999  1.0000
  C   C75       1.0  0.15588000000000007  0.08287000000000004  0.60874  1.0000
  C   C76       1.0  0.0858499999999999  0.016179999999999955  0.5660699999999999  1.0000
  C   C77       1.0  0.025659999999999947  0.13967999999999997  0.5276499999999998  1.0000
  C   C78       1.0  0.09098000000000006  0.20686  0.57012  1.0000
  C   C79       1.0  0.2324500000000001  0.24925000000000005  0.65059  1.0000
  C   C80       1.0  0.217  0.052959999999999924  0.6509899999999998  1.0000
  C   C81       1.0  0.0798  0.92276  0.56826  1.0000
  C   C82       1.0  0.27298999999999995  0.9354899999999999  0.6989599999999999  1.0000
  C   C83       1.0  0.91987  0.24096  0.49548  1.0000
  C   C84       1.0  0.8682900000000002  0.3039  0.49748  1.0000
  C   C85       1.0  0.64666  0.72316  0.11166  1.0000
  C   C86       1.0  0.71251  0.6961499999999999  0.15360999999999997  1.0000
  C   C87       1.0  0.9282700000000003  0.70223  0.10959  1.0000
  C   C88       1.0  0.79575  0.75183  0.024099999999999993  1.0000
  C   C89       1.0  0.8328700000000002  0.70389  0.10934999999999999  1.0000
  C   C90       1.0  0.76624  0.73075  0.06656  1.0000
  C   C91       1.0  0.8898500000000003  0.75312  0.028299999999999992  1.0000
  C   C92       1.0  0.9569800000000003  0.73059  0.07088  1.0000
  C   C93       1.0  0.9986400000000001  0.66939  0.15148999999999999  1.0000
  C   C94       1.0  0.8030900000000002  0.6853  0.15171  1.0000
  C   C95       1.0  0.67272  0.73823  0.06864  1.0000
  C   C96       1.0  0.6867  0.67876  0.20044999999999996  1.0000
  C   C97       1.0  0.9913000000000001  0.8260299999999999  0.9957099999999998  1.0000
  C   C98       1.0  0.05444000000000004  0.8793299999999998  0.99754  1.0000
  C   C99       1.0  0.4642400000000002  0.38667  0.11053  1.0000
  C   C100      1.0  0.4409000000000001  0.45558  0.15273  1.0000
  C   C101      1.0  0.18045000000000005  0.40746  0.10871  1.0000
  C   C102      1.0  0.22698  0.27233  0.02284  1.0000
  C   C103      1.0  0.2757600000000001  0.40506  0.10859999999999999  1.0000
  C   C104      1.0  0.29919  0.33549  0.06553  1.0000
  C   C105      1.0  0.13709  0.27553  0.027009999999999992  1.0000
  C   C106      1.0  0.11286000000000003  0.34075  0.0697  1.0000
  C   C107      1.0  0.15091000000000004  0.48207  0.15022  1.0000
  C   C108      1.0  0.34852000000000005  0.4651199999999999  0.15118  1.0000
  C   C109      1.0  0.3946400000000001  0.32925  0.06745999999999999  1.0000
  C   C110      1.0  0.51433  0.51934  0.19947  1.0000
  C   C111      1.0  0.0037399999999998797  0.1692999999999999  0.9947299999999998  1.0000
  C   C112      1.0  0.9435200000000002  0.11745999999999988  0.9972999999999997  1.0000
  O   O1        1.0  0.3700100000000001  0.25927  0.77325  1.0000
  O   O2        1.0  0.28695  0.38639  0.7887  1.0000
  O   O3        1.0  0.40456000000000003  0.024469999999999912  0.8389199999999999  1.0000
  O   O4        1.0  0.28124999999999994  0.92257  0.8256299999999999  1.0000
  O   O5        1.0  0.22749000000000005  0.08491  0.015069999999999998  1.0000
  O   O6        1.0  0.4056599999999999  0.5130899999999998  0.7735999999999997  1.0000
  O   O7        1.0  0.50394  0.4019699999999998  0.7903299999999998  1.0000
  O   O8        1.0  0.43411000000000005  0.81662  0.8402499999999999  1.0000
  O   O9        1.0  0.54474  0.9060499999999999  0.8280399999999998  1.0000
  O   O10       1.0  0.7866600000000002  0.93226  0.01656  1.0000
  O   O11       1.0  0.009629999999999939  0.65193  0.27454999999999996  1.0000
  O   O12       1.0  0.13754  0.7499800000000001  0.29044  1.0000
  O   O13       1.0  0.7729600000000001  0.6835299999999999  0.3398299999999999  1.0000
  O   O14       1.0  0.67241  0.7946  0.32699999999999996  1.0000
  O   O15       1.0  0.83506  0.03722  0.51577  1.0000
  O   O16       1.0  0.2636800000000001  0.6188  0.27373  1.0000
  O   O17       1.0  0.15211000000000005  0.53579  0.28924  1.0000
  O   O18       1.0  0.56645  0.65589  0.34051  1.0000
  O   O19       1.0  0.65232  0.53087  0.32573  1.0000
  O   O20       1.0  0.68057  0.47685  0.51527  1.0000
  O   O21       1.0  0.38219000000000003  0.7364399999999999  0.7263799999999999  1.0000
  O   O22       1.0  0.4660100000000002  0.84787  0.71129  1.0000
  O   O23       1.0  0.34427000000000013  0.43332  0.65939  1.0000
  O   O24       1.0  0.46934  0.3477199999999999  0.67442  1.0000
  O   O25       1.0  0.5229800000000002  0.31915999999999994  0.48446999999999996  1.0000
  O   O26       1.0  0.34823000000000004  0.9898199999999999  0.7251099999999999  1.0000
  O   O27       1.0  0.25014  0.8620299999999999  0.70942  1.0000
  O   O28       1.0  0.31628  0.22663  0.66007  1.0000
  O   O29       1.0  0.20550999999999994  0.3275199999999999  0.6729399999999999  1.0000
  O   O30       1.0  0.9630400000000002  0.16514000000000004  0.48426  1.0000
  O   O31       1.0  0.74086  0.62978  0.22667999999999994  1.0000
  O   O32       1.0  0.61412  0.7132199999999999  0.21139  1.0000
  O   O33       1.0  0.9751600000000002  0.59491  0.16064  1.0000
  O   O34       1.0  0.07695000000000006  0.71868  0.17436  1.0000
  O   O35       1.0  0.9149500000000003  0.77252  0.98485  1.0000
  O   O36       1.0  0.4868800000000001  0.59431  0.22633999999999999  1.0000
  O   O37       1.0  0.59798  0.49605  0.20961  1.0000
  O   O38       1.0  0.18336  0.56591  0.15971  1.0000
  O   O39       1.0  0.09419000000000002  0.45527  0.17215  1.0000
  O   O40       1.0  0.06779000000000002  0.21325  0.98341  1.0000
