data_image0
_chemical_formula_structural       K2Fe2Ni2H48C96N8O16
_chemical_formula_sum              "K2 Fe2 Ni2 H48 C96 N8 O16"
_cell_length_a       6.98879
_cell_length_b       13.240049999999998
_cell_length_c       31.004309999999997
_cell_angle_alpha    88.90478
_cell_angle_beta     86.02959
_cell_angle_gamma    74.69438

_symmetry_space_group_name_H-M    'P 1'
_symmetry_Int_Tables_number       1

loop_
  _symmetry_equiv_pos_as_xyz
  'x,y,z'

loop_
  _atom_site_type_symbol
  _atom_site_label
  _atom_site_symmetry_multiplicity
  _atom_site_fract_x
  _atom_site_fract_y
  _atom_site_fract_z
  _atom_site_occupancy
  K   K1        1.0  0.27366000000000007  0.45049  0.74971  1.0000
  K   K2        1.0  0.72633  0.54952  0.25029  1.0000
  Fe  Fe1       1.0  0.8340500000000001  0.33043  0.75015  1.0000
  Fe  Fe2       1.0  0.16594000000000003  0.6695800000000001  0.24984  1.0000
  Ni  Ni1       1.0  7.999999999988398e-05  0.9997700000000002  3.0000000000000008e-05  1.0000
  Ni  Ni2       1.0  0.003139999999999878  0.9986000000000002  0.4997600000000001  1.0000
  H   H1        1.0  0.6912299999999999  0.7683500000000002  0.043990000000000015  1.0000
  H   H2        1.0  0.64438  0.6955100000000002  0.96572  1.0000
  H   H3        1.0  0.10227999999999994  0.8029400000000002  0.85035  1.0000
  H   H4        1.0  0.7505800000000001  0.94857  0.8472700000000002  1.0000
  H   H5        1.0  0.62454  0.80977  0.8873000000000002  1.0000
  H   H6        1.0  0.8302900000000002  0.6782900000000001  0.8348  1.0000
  H   H7        1.0  0.41486000000000006  0.4905400000000001  0.8545200000000002  1.0000
  H   H8        1.0  0.2097499999999999  0.62167  0.9073200000000002  1.0000
  H   H9        1.0  0.3043700000000001  0.83288  0.14703000000000002  1.0000
  H   H10       1.0  0.5399099999999999  0.7725400000000002  0.20402  1.0000
  H   H11       1.0  0.9750299999999998  0.8990100000000002  0.13211  1.0000
  H   H12       1.0  0.7341  0.96369  0.07572  1.0000
  H   H13       1.0  0.5408199999999999  0.7683500000000002  0.45602  1.0000
  H   H14       1.0  0.6598299999999997  0.6955500000000001  0.53442  1.0000
  H   H15       1.0  0.09410999999999989  0.8028000000000001  0.6497500000000003  1.0000
  H   H16       1.0  0.29977999999999994  0.9486700000000002  0.6528700000000002  1.0000
  H   H17       1.0  0.5664000000000001  0.8095100000000001  0.61301  1.0000
  H   H18       1.0  0.49257000000000006  0.67767  0.6654300000000002  1.0000
  H   H19       1.0  0.09546999999999989  0.4899300000000001  0.6456000000000002  1.0000
  H   H20       1.0  0.16959999999999995  0.62151  0.59301  1.0000
  H   H21       1.0  0.86298  0.83286  0.3527500000000001  1.0000
  H   H22       1.0  0.68774  0.77247  0.29595  1.0000
  H   H23       1.0  0.12641000000000002  0.89889  0.36789  1.0000
  H   H24       1.0  0.3029399999999999  0.9636600000000002  0.42413000000000006  1.0000
  H   H25       1.0  0.30881  0.23165  0.95601  1.0000
  H   H26       1.0  0.35564  0.30449  0.03427  1.0000
  H   H27       1.0  0.89771  0.19707  0.14964000000000005  1.0000
  H   H28       1.0  0.24941999999999998  0.05145000000000001  0.15273  1.0000
  H   H29       1.0  0.37544999999999995  0.19024  0.1127  1.0000
  H   H30       1.0  0.16970000000000007  0.32172000000000006  0.1652  1.0000
  H   H31       1.0  0.58513  0.50947  0.14547  1.0000
  H   H32       1.0  0.7902400000000003  0.3783400000000001  0.09268  1.0000
  H   H33       1.0  0.6956199999999999  0.16713  0.8529700000000002  1.0000
  H   H34       1.0  0.46008000000000004  0.22748  0.7959700000000002  1.0000
  H   H35       1.0  0.024959999999999972  0.10100000000000003  0.86789  1.0000
  H   H36       1.0  0.26589  0.03633  0.92428  1.0000
  H   H37       1.0  0.45913  0.23172000000000004  0.54399  1.0000
  H   H38       1.0  0.3400400000000002  0.30448  0.4656000000000001  1.0000
  H   H39       1.0  0.90564  0.1973  0.3503  1.0000
  H   H40       1.0  0.69998  0.05143  0.34717  1.0000
  H   H41       1.0  0.43357999999999997  0.1905  0.3869800000000001  1.0000
  H   H42       1.0  0.50742  0.32233000000000006  0.33457  1.0000
  H   H43       1.0  0.90452  0.51007  0.3544000000000001  1.0000
  H   H44       1.0  0.8303800000000001  0.3785  0.40699000000000013  1.0000
  H   H45       1.0  0.13701999999999995  0.16715  0.6472500000000002  1.0000
  H   H46       1.0  0.31224999999999997  0.22755000000000006  0.70404  1.0000
  H   H47       1.0  0.8735999999999999  0.10113000000000003  0.63211  1.0000
  H   H48       1.0  0.69708  0.03638  0.57586  1.0000
  C   C1        1.0  0.39567999999999987  0.8809200000000001  0.03426  1.0000
  C   C2        1.0  0.5685  0.79652  0.02358  1.0000
  C   C3        1.0  0.5446399999999999  0.7595000000000001  0.98384  1.0000
  C   C4        1.0  0.35729999999999995  0.82109  0.9699900000000002  1.0000
  C   C5        1.0  0.2794999999999999  0.80596  0.9308800000000003  1.0000
  C   C6        1.0  0.09647000000000006  0.86592  0.91742  1.0000
  C   C7        1.0  0.024759999999999834  0.8573500000000002  0.8753800000000003  1.0000
  C   C8        1.0  0.8472099999999998  0.9311600000000002  0.8737900000000002  1.0000
  C   C9        1.0  0.8101  0.9850900000000002  0.9149400000000002  1.0000
  C   C10       1.0  0.36018000000000006  0.93484  0.07371  1.0000
  C   C11       1.0  0.40279999999999994  0.72493  0.9005200000000002  1.0000
  C   C12       1.0  0.5794500000000004  0.7395900000000001  0.88017  1.0000
  C   C13       1.0  0.69451  0.6663100000000001  0.85081  1.0000
  C   C14       1.0  0.63479  0.57653  0.84091  1.0000
  C   C15       1.0  0.4592099999999999  0.5610900000000001  0.86143  1.0000
  C   C16       1.0  0.34462000000000004  0.63438  0.89111  1.0000
  C   C17       1.0  0.76054  0.50012  0.80877  1.0000
  C   C18       1.0  0.50573  0.9004500000000002  0.10726  1.0000
  C   C19       1.0  0.45103999999999966  0.8472400000000001  0.14366000000000007  1.0000
  C   C20       1.0  0.58355  0.81229  0.17551  1.0000
  C   C21       1.0  0.7746599999999999  0.8288700000000002  0.17093000000000005  1.0000
  C   C22       1.0  0.8282399999999998  0.8844900000000001  0.1351  1.0000
  C   C23       1.0  0.69408  0.9203900000000002  0.10352000000000003  1.0000
  C   C24       1.0  0.9219100000000001  0.78182  0.20225000000000007  1.0000
  C   C25       1.0  0.72402  0.88077  0.46572000000000013  1.0000
  C   C26       1.0  0.6352700000000004  0.79648  0.4764500000000001  1.0000
  C   C27       1.0  0.6958  0.75948  0.51625  1.0000
  C   C28       1.0  0.82172  0.82096  0.53006  1.0000
  C   C29       1.0  0.9147400000000002  0.80575  0.56918  1.0000
  C   C30       1.0  0.037529999999999925  0.8657700000000003  0.58264  1.0000
  C   C31       1.0  0.11736999999999997  0.8572600000000001  0.62472  1.0000
  C   C32       1.0  0.22081999999999993  0.9311900000000001  0.62633  1.0000
  C   C33       1.0  0.2042999999999999  0.9851400000000002  0.5851600000000002  1.0000
  C   C34       1.0  0.7059099999999999  0.9345600000000002  0.4261700000000001  1.0000
  C   C35       1.0  0.87296  0.72463  0.59961  1.0000
  C   C36       1.0  0.6817900000000001  0.7392900000000001  0.62  1.0000
  C   C37       1.0  0.6400099999999999  0.6658400000000002  0.6492900000000003  1.0000
  C   C38       1.0  0.7893300000000001  0.57591  0.6590600000000002  1.0000
  C   C39       1.0  0.9805399999999999  0.56053  0.6386600000000002  1.0000
  C   C40       1.0  0.021819999999999888  0.6341  0.6090800000000002  1.0000
  C   C41       1.0  0.73896  0.49976  0.69121  1.0000
  C   C42       1.0  0.5943899999999998  0.9003600000000003  0.39262000000000014  1.0000
  C   C43       1.0  0.70197  0.84717  0.35622  1.0000
  C   C44       1.0  0.60421  0.8122200000000002  0.32442  1.0000
  C   C45       1.0  0.39644999999999997  0.8288  0.32901  1.0000
  C   C46       1.0  0.28767  0.8844100000000001  0.36483  1.0000
  C   C47       1.0  0.38609  0.9203100000000002  0.39636  1.0000
  C   C48       1.0  0.2952899999999999  0.7820300000000002  0.2977700000000001  1.0000
  C   C49       1.0  0.60439  0.11906  0.9657500000000002  1.0000
  C   C50       1.0  0.43155  0.20347000000000007  0.97642  1.0000
  C   C51       1.0  0.4554099999999999  0.24049000000000006  0.016160000000000008  1.0000
  C   C52       1.0  0.64276  0.17888  0.030000000000000006  1.0000
  C   C53       1.0  0.7205199999999999  0.19403  0.06911  1.0000
  C   C54       1.0  0.90354  0.13406000000000004  0.08257  1.0000
  C   C55       1.0  0.9752500000000002  0.14266  0.12462  1.0000
  C   C56       1.0  0.15279999999999996  0.06886000000000002  0.12621  1.0000
  C   C57       1.0  0.18991000000000002  0.014910000000000001  0.08507000000000003  1.0000
  C   C58       1.0  0.6398500000000001  0.06516  0.92629  1.0000
  C   C59       1.0  0.5972  0.27508  0.09947000000000003  1.0000
  C   C60       1.0  0.42055000000000003  0.26042  0.11983000000000003  1.0000
  C   C61       1.0  0.30548  0.33370000000000005  0.14918  1.0000
  C   C62       1.0  0.36520000000000014  0.42348  0.15908  1.0000
  C   C63       1.0  0.54078  0.43892  0.13857  1.0000
  C   C64       1.0  0.65537  0.36563  0.10889000000000003  1.0000
  C   C65       1.0  0.23944999999999994  0.4998900000000001  0.19122000000000006  1.0000
  C   C66       1.0  0.49428  0.09956  0.89274  1.0000
  C   C67       1.0  0.54896  0.15277000000000002  0.8563400000000002  1.0000
  C   C68       1.0  0.41644  0.18772000000000005  0.82449  1.0000
  C   C69       1.0  0.22533000000000003  0.17114  0.82907  1.0000
  C   C70       1.0  0.17175999999999986  0.11552  0.8649  1.0000
  C   C71       1.0  0.3059199999999999  0.07962000000000002  0.8964800000000003  1.0000
  C   C72       1.0  0.07807999999999997  0.21819  0.79775  1.0000
  C   C73       1.0  0.27636  0.11911  0.53427  1.0000
  C   C74       1.0  0.36468  0.20357  0.52357  1.0000
  C   C75       1.0  0.3041299999999998  0.24053000000000002  0.4837700000000001  1.0000
  C   C76       1.0  0.17856999999999998  0.17889  0.46992  1.0000
  C   C77       1.0  0.08553999999999999  0.19413  0.43082  1.0000
  C   C78       1.0  0.96309  0.13391  0.4173400000000001  1.0000
  C   C79       1.0  0.88265  0.14272  0.37531  1.0000
  C   C80       1.0  0.7792  0.0688  0.37369  1.0000
  C   C81       1.0  0.79636  0.014580000000000003  0.41481  1.0000
  C   C82       1.0  0.29438  0.06534  0.57381  1.0000
  C   C83       1.0  0.12703999999999993  0.27537  0.4004000000000001  1.0000
  C   C84       1.0  0.31819  0.26072  0.38  1.0000
  C   C85       1.0  0.35997  0.33417  0.35071000000000013  1.0000
  C   C86       1.0  0.21064  0.42410000000000003  0.34094  1.0000
  C   C87       1.0  0.019449999999999964  0.43947  0.36134  1.0000
  C   C88       1.0  0.9781800000000002  0.36589  0.39093  1.0000
  C   C89       1.0  0.2610199999999999  0.5002500000000001  0.30879  1.0000
  C   C90       1.0  0.40566  0.09965000000000003  0.60738  1.0000
  C   C91       1.0  0.29802999999999996  0.15284  0.6437700000000002  1.0000
  C   C92       1.0  0.3957899999999999  0.1878  0.67558  1.0000
  C   C93       1.0  0.60354  0.17121000000000006  0.6709900000000002  1.0000
  C   C94       1.0  0.7123400000000001  0.11560000000000002  0.63517  1.0000
  C   C95       1.0  0.6139600000000001  0.07970000000000001  0.60364  1.0000
  C   C96       1.0  0.7046999999999999  0.21798  0.7022300000000002  1.0000
  N   N1        1.0  0.26652999999999993  0.8961700000000001  0.00115  1.0000
  N   N2        1.0  0.9645200000000002  0.94486  0.9411  1.0000
  N   N3        1.0  0.83788  0.89593  0.4988400000000001  1.0000
  N   N4        1.0  0.09066999999999999  0.9447400000000001  0.55894  1.0000
  N   N5        1.0  0.73354  0.10377  0.9988500000000002  1.0000
  N   N6        1.0  0.035479999999999984  0.05509000000000001  0.05891000000000001  1.0000
  N   N7        1.0  0.16299999999999998  0.10364000000000001  0.5011  1.0000
  N   N8        1.0  0.91088  0.05461  0.44096000000000013  1.0000
  O   O1        1.0  0.67816  0.4293  0.79448  1.0000
  O   O2        1.0  0.9315300000000002  0.50569  0.7967100000000003  1.0000
  O   O3        1.0  0.8772599999999999  0.72168  0.23313  1.0000
  O   O4        1.0  0.09741999999999985  0.7927000000000002  0.19936  1.0000
  O   O5        1.0  0.89139  0.42888  0.70572  1.0000
  O   O6        1.0  0.5622299999999999  0.50566  0.7031800000000002  1.0000
  O   O7        1.0  0.4000599999999999  0.72175  0.2669200000000001  1.0000
  O   O8        1.0  0.10894  0.79303  0.3006200000000001  1.0000
  O   O9        1.0  0.3218299999999999  0.5707200000000001  0.20552000000000006  1.0000
  O   O10       1.0  0.06846000000000002  0.49432  0.20329  1.0000
  O   O11       1.0  0.12272000000000005  0.27834  0.76687  1.0000
  O   O12       1.0  0.90257  0.20731  0.80064  1.0000
  O   O13       1.0  0.10859999999999999  0.57113  0.29428  1.0000
  O   O14       1.0  0.43775  0.49435000000000007  0.29681  1.0000
  O   O15       1.0  0.59993  0.2782700000000001  0.7330800000000002  1.0000
  O   O16       1.0  0.89105  0.20699000000000006  0.6993800000000002  1.0000
