data_image0
_chemical_formula_structural       Zn12H24C80Cl20O44
_chemical_formula_sum              "Zn12 H24 C80 Cl20 O44"
_cell_length_a       11.88348
_cell_length_b       20.63475
_cell_length_c       23.6353
_cell_angle_alpha    112.52266000000002
_cell_angle_beta     104.62778999999999
_cell_angle_gamma    89.77236

_space_group_name_H-M_alt    "P 1"
_space_group_IT_number       1

loop_
  _space_group_symop_operation_xyz
  'x, y, z'

loop_
  _atom_site_type_symbol
  _atom_site_label
  _atom_site_symmetry_multiplicity
  _atom_site_fract_x
  _atom_site_fract_y
  _atom_site_fract_z
  _atom_site_occupancy
  Zn  Zn1       1.0  0.48353  0.19813999999999998  0.24866999999999997  1.0000
  Zn  Zn2       1.0  0.24732999999999997  0.12937  0.25203  1.0000
  Zn  Zn3       1.0  0.9757600000000001  0.79855  0.31962  1.0000
  Zn  Zn4       1.0  0.23371  0.30266000000000004  0.7514  1.0000
  Zn  Zn5       1.0  0.99202  0.3723  0.74799  1.0000
  Zn  Zn6       1.0  0.65569  0.7012499999999999  0.68006  1.0000
  Zn  Zn7       1.0  0.51648  0.8018599999999999  0.75132  1.0000
  Zn  Zn8       1.0  0.75267  0.8706299999999999  0.7479599999999998  1.0000
  Zn  Zn9       1.0  0.024249999999999886  0.2014499999999999  0.6803799999999998  1.0000
  Zn  Zn10      1.0  0.7662900000000001  0.69734  0.24859999999999996  1.0000
  Zn  Zn11      1.0  0.007989999999999999  0.6277  0.25201  1.0000
  Zn  Zn12      1.0  0.34431000000000006  0.29875  0.31994  1.0000
  H   H1        1.0  0.6742899999999998  0.048949999999999966  0.22421999999999997  1.0000
  H   H2        1.0  0.54078  0.84901  0.26522  1.0000
  H   H3        1.0  0.53869  0.33426  0.50025  1.0000
  H   H4        1.0  0.80841  0.15675  0.52039  1.0000
  H   H5        1.0  0.8792  0.03646999999999994  0.9178399999999998  1.0000
  H   H6        1.0  0.25716  0.20082999999999998  0.19631  1.0000
  H   H7        1.0  0.44619  0.45093999999999995  0.7747  1.0000
  H   H8        1.0  0.2725499999999999  0.6507  0.73178  1.0000
  H   H9        1.0  0.03833000000000001  0.16554999999999995  0.49934  1.0000
  H   H10       1.0  0.28651  0.34344  0.48044  1.0000
  H   H11       1.0  0.9644  0.46394  0.08284  1.0000
  H   H12       1.0  0.06061999999999991  0.29992999999999986  0.8027499999999997  1.0000
  H   H13       1.0  0.32570999999999994  0.95105  0.7757799999999999  1.0000
  H   H14       1.0  0.45923  0.15098999999999996  0.73477  1.0000
  H   H15       1.0  0.46131999999999995  0.6657399999999999  0.4997499999999999  1.0000
  H   H16       1.0  0.19159999999999994  0.84325  0.4796099999999999  1.0000
  H   H17       1.0  0.1208  0.9635299999999999  0.08215999999999997  1.0000
  H   H18       1.0  0.7428499999999999  0.79918  0.8036899999999999  1.0000
  H   H19       1.0  0.55381  0.54906  0.2253  1.0000
  H   H20       1.0  0.72745  0.34931  0.26822  1.0000
  H   H21       1.0  0.96167  0.83445  0.50066  1.0000
  H   H22       1.0  0.71349  0.6565599999999999  0.5195599999999999  1.0000
  H   H23       1.0  0.03561000000000003  0.5360699999999999  0.91716  1.0000
  H   H24       1.0  0.9393899999999998  0.7000699999999999  0.19725  1.0000
  C   C1        1.0  0.46093  0.0599  0.23622  1.0000
  C   C2        1.0  0.5317100000000001  0.0007599999999999908  0.23959  1.0000
  C   C3        1.0  0.64627  0.005579999999999995  0.23440999999999998  1.0000
  C   C4        1.0  0.72425  0.95734  0.24299  1.0000
  C   C5        1.0  0.68694  0.9004199999999999  0.25511999999999996  1.0000
  C   C6        1.0  0.57107  0.89385  0.25771  1.0000
  C   C7        1.0  0.49401999999999996  0.9432999999999999  0.25108  1.0000
  C   C8        1.0  0.76158  0.84466  0.26464  1.0000
  C   C9        1.0  0.83098  0.26179  0.63178  1.0000
  C   C10       1.0  0.7428299999999999  0.25267999999999996  0.5708599999999999  1.0000
  C   C11       1.0  0.66398  0.30249  0.56501  1.0000
  C   C12       1.0  0.59898  0.2958  0.50486  1.0000
  C   C13       1.0  0.61041  0.24134  0.44901  1.0000
  C   C14       1.0  0.68519  0.18961999999999993  0.4551499999999999  1.0000
  C   C15       1.0  0.74932  0.19582  0.5157  1.0000
  C   C16       1.0  0.5428700000000001  0.24437  0.38745  1.0000
  C   C17       1.0  0.12424  0.10233  0.12635  1.0000
  C   C18       1.0  0.05668999999999999  0.05158  0.061299999999999986  1.0000
  C   C19       1.0  0.93261  0.020509999999999983  0.95394  1.0000
  C   C20       1.0  0.98752  0.07175  0.01402  1.0000
  C   C21       1.0  0.22091999999999987  0.44144  0.7630899999999998  1.0000
  C   C22       1.0  0.28843000000000013  0.49981  0.75896  1.0000
  C   C23       1.0  0.40815  0.49427999999999994  0.7641  1.0000
  C   C24       1.0  0.47786  0.54175  0.75514  1.0000
  C   C25       1.0  0.42873  0.59871  0.74258  1.0000
  C   C26       1.0  0.3101799999999999  0.60584  0.7396999999999998  1.0000
  C   C27       1.0  0.23954999999999999  0.55722  0.7468099999999999  1.0000
  C   C28       1.0  0.49435  0.65466  0.73391  1.0000
  C   C29       1.0  0.20028999999999997  0.23828999999999995  0.3685899999999999  1.0000
  C   C30       1.0  0.17215999999999995  0.24717999999999996  0.42930999999999997  1.0000
  C   C31       1.0  0.09929000000000004  0.19745  0.43491  1.0000
  C   C32       1.0  0.09370999999999992  0.2040799999999999  0.4949399999999999  1.0000
  C   C33       1.0  0.15993  0.2585  0.55099  1.0000
  C   C34       1.0  0.22794999999999996  0.31034999999999985  0.5450799999999999  1.0000
  C   C35       1.0  0.23246  0.30414  0.48469  1.0000
  C   C36       1.0  0.15358000000000005  0.25536  0.61248  1.0000
  C   C37       1.0  0.99561  0.39770999999999995  0.87333  1.0000
  C   C38       1.0  0.9935799999999999  0.44840999999999986  0.9385099999999997  1.0000
  C   C39       1.0  0.98033  0.47965  0.0464  1.0000
  C   C40       1.0  0.9732  0.42837  0.9860199999999999  1.0000
  C   C41       1.0  0.53907  0.94011  0.7637799999999999  1.0000
  C   C42       1.0  0.4683  0.99924  0.76041  1.0000
  C   C43       1.0  0.35374000000000005  0.9944299999999999  0.7655799999999999  1.0000
  C   C44       1.0  0.27575  0.04265999999999998  0.75701  1.0000
  C   C45       1.0  0.3130599999999999  0.09958999999999996  0.7448699999999999  1.0000
  C   C46       1.0  0.4289299999999999  0.10614999999999994  0.7422899999999998  1.0000
  C   C47       1.0  0.5059899999999999  0.05669999999999996  0.7489199999999999  1.0000
  C   C48       1.0  0.23842000000000008  0.15533999999999995  0.73536  1.0000
  C   C49       1.0  0.16901999999999998  0.7382099999999999  0.36821999999999994  1.0000
  C   C50       1.0  0.25716999999999995  0.74732  0.42913999999999997  1.0000
  C   C51       1.0  0.33603  0.69751  0.43499  1.0000
  C   C52       1.0  0.40102  0.7042  0.49512999999999996  1.0000
  C   C53       1.0  0.38959  0.75866  0.55099  1.0000
  C   C54       1.0  0.31482  0.8103799999999999  0.54485  1.0000
  C   C55       1.0  0.25069  0.80418  0.4843  1.0000
  C   C56       1.0  0.45714  0.7556299999999998  0.61255  1.0000
  C   C57       1.0  0.8757599999999999  0.8976699999999999  0.8736399999999999  1.0000
  C   C58       1.0  0.9433099999999998  0.9484199999999999  0.9386899999999999  1.0000
  C   C59       1.0  0.06739  0.9794899999999999  0.04605999999999998  1.0000
  C   C60       1.0  0.012479999999999917  0.92825  0.9859799999999997  1.0000
  C   C61       1.0  0.7790900000000001  0.5585599999999998  0.2369  1.0000
  C   C62       1.0  0.71157  0.5001899999999999  0.24103999999999998  1.0000
  C   C63       1.0  0.59185  0.50572  0.23589  1.0000
  C   C64       1.0  0.52215  0.45824999999999994  0.24484999999999996  1.0000
  C   C65       1.0  0.57127  0.4012899999999999  0.25742  1.0000
  C   C66       1.0  0.68982  0.39416  0.2603  1.0000
  C   C67       1.0  0.76046  0.44279  0.25318  1.0000
  C   C68       1.0  0.50566  0.34534  0.26608  1.0000
  C   C69       1.0  0.7997100000000001  0.7617099999999999  0.6314099999999999  1.0000
  C   C70       1.0  0.82784  0.7528199999999999  0.5706899999999999  1.0000
  C   C71       1.0  0.90071  0.80255  0.56508  1.0000
  C   C72       1.0  0.9062900000000002  0.79593  0.5050499999999999  1.0000
  C   C73       1.0  0.84008  0.7415  0.44901  1.0000
  C   C74       1.0  0.7720600000000001  0.68966  0.45492  1.0000
  C   C75       1.0  0.76754  0.69586  0.51531  1.0000
  C   C76       1.0  0.84642  0.74464  0.38751999999999986  1.0000
  C   C77       1.0  0.004389999999999993  0.60229  0.12666  1.0000
  C   C78       1.0  0.006419999999999996  0.5516  0.061489999999999996  1.0000
  C   C79       1.0  0.019680000000000003  0.52035  0.95359  1.0000
  C   C80       1.0  0.026810000000000004  0.57163  0.01397  1.0000
  Cl  Cl1       1.0  0.86299  0.9682699999999999  0.2347  1.0000
  Cl  Cl2       1.0  0.35341  0.92794  0.25481  1.0000
  Cl  Cl3       1.0  0.64134  0.37168  0.63022  1.0000
  Cl  Cl4       1.0  0.7016799999999999  0.11625999999999999  0.3913199999999999  1.0000
  Cl  Cl5       1.0  0.96286  0.15879999999999997  0.027909999999999997  1.0000
  Cl  Cl6       1.0  0.6248699999999999  0.5299999999999998  0.7636699999999997  1.0000
  Cl  Cl7       1.0  0.09528000000000006  0.57361  0.74281  1.0000
  Cl  Cl8       1.0  0.01232000000000002  0.12842999999999993  0.36943  1.0000
  Cl  Cl9       1.0  0.3063499999999999  0.3839199999999998  0.6091299999999998  1.0000
  Cl  Cl10      1.0  0.93409  0.34146999999999983  0.9718699999999998  1.0000
  Cl  Cl11      1.0  0.13701000000000005  0.03172999999999997  0.7653  1.0000
  Cl  Cl12      1.0  0.6465899999999999  0.07206999999999993  0.7451899999999999  1.0000
  Cl  Cl13      1.0  0.35867  0.62832  0.36978  1.0000
  Cl  Cl14      1.0  0.29833  0.88374  0.60868  1.0000
  Cl  Cl15      1.0  0.037139999999999986  0.84121  0.97209  1.0000
  Cl  Cl16      1.0  0.37513000000000013  0.4699999999999999  0.23632999999999998  1.0000
  Cl  Cl17      1.0  0.90472  0.42639  0.2571899999999999  1.0000
  Cl  Cl18      1.0  0.98768  0.87157  0.63057  1.0000
  Cl  Cl19      1.0  0.6936499999999999  0.6160799999999998  0.3908699999999999  1.0000
  Cl  Cl20      1.0  0.06591  0.65853  0.028119999999999992  1.0000
  O   O1        1.0  0.4932  0.09690999999999998  0.20873999999999998  1.0000
  O   O2        1.0  0.37808  0.07127999999999995  0.26277999999999996  1.0000
  O   O3        1.0  0.70723  0.78269  0.24022  1.0000
  O   O4        1.0  0.86848  0.86354  0.2968199999999999  1.0000
  O   O5        1.0  0.87544  0.32507  0.66605  1.0000
  O   O6        1.0  0.85794  0.20631  0.64214  1.0000
  O   O7        1.0  0.57069  0.20790999999999998  0.33678  1.0000
  O   O8        1.0  0.4619399999999999  0.2857799999999999  0.39116999999999996  1.0000
  O   O9        1.0  0.16671  0.16169  0.13359  1.0000
  O   O10       1.0  0.13632  0.07798999999999998  0.17065999999999995  1.0000
  O   O11       1.0  0.3148  0.2116  0.24093  1.0000
  O   O12       1.0  0.2810400000000001  0.4039499999999999  0.79006  1.0000
  O   O13       1.0  0.11107  0.43134999999999996  0.73784  1.0000
  O   O14       1.0  0.4626700000000001  0.71645  0.75813  1.0000
  O   O15       1.0  0.57107  0.63641  0.70293  1.0000
  O   O16       1.0  0.21150000000000002  0.17516  0.33399  1.0000
  O   O17       1.0  0.21717  0.29406999999999994  0.35885  1.0000
  O   O18       1.0  0.23249999999999996  0.29129999999999995  0.6630999999999999  1.0000
  O   O19       1.0  0.06867000000000002  0.21459  0.60875  1.0000
  O   O20       1.0  0.034499999999999906  0.3390999999999999  0.8661199999999998  1.0000
  O   O21       1.0  0.9595600000000001  0.42175  0.82901  1.0000
  O   O22       1.0  0.07269999999999989  0.2895599999999999  0.7580999999999998  1.0000
  O   O23       1.0  0.5068  0.90309  0.79126  1.0000
  O   O24       1.0  0.6219199999999998  0.92872  0.73722  1.0000
  O   O25       1.0  0.29277000000000003  0.21730999999999998  0.7597799999999999  1.0000
  O   O26       1.0  0.13152  0.13645999999999994  0.70317  1.0000
  O   O27       1.0  0.12456  0.67493  0.33395  1.0000
  O   O28       1.0  0.14205999999999996  0.7936899999999999  0.35784999999999995  1.0000
  O   O29       1.0  0.42931  0.79209  0.66321  1.0000
  O   O30       1.0  0.53807  0.7142200000000001  0.60883  1.0000
  O   O31       1.0  0.8332899999999999  0.83831  0.86641  1.0000
  O   O32       1.0  0.8636899999999997  0.9220099999999998  0.8293399999999997  1.0000
  O   O33       1.0  0.68521  0.7883999999999999  0.7590699999999998  1.0000
  O   O34       1.0  0.71896  0.59605  0.20994  1.0000
  O   O35       1.0  0.88893  0.56865  0.26215  1.0000
  O   O36       1.0  0.53734  0.28355  0.24186  1.0000
  O   O37       1.0  0.42894  0.36359  0.29707  1.0000
  O   O38       1.0  0.7885  0.8248399999999999  0.6660099999999999  1.0000
  O   O39       1.0  0.78283  0.70593  0.64115  1.0000
  O   O40       1.0  0.7674999999999998  0.7087  0.3368999999999999  1.0000
  O   O41       1.0  0.9313399999999998  0.7854099999999999  0.39124999999999993  1.0000
  O   O42       1.0  0.96551  0.6609  0.13387999999999997  1.0000
  O   O43       1.0  0.04043999999999997  0.5782499999999999  0.17099  1.0000
  O   O44       1.0  0.92731  0.71044  0.24189999999999995  1.0000
