data_image0
_chemical_formula_structural       Zn4H48C80N8O16F16
_chemical_formula_sum              "Zn4 H48 C80 N8 O16 F16"
_cell_length_a       11.90858
_cell_length_b       12.554380000000002
_cell_length_c       16.69968
_cell_angle_alpha    89.82847
_cell_angle_beta     90.55499000000002
_cell_angle_gamma    89.71244000000002

_symmetry_space_group_name_H-M    'P 1'
_symmetry_Int_Tables_number       1

loop_
  _symmetry_equiv_pos_as_xyz
  'x,y,z'

loop_
  _atom_site_type_symbol
  _atom_site_label
  _atom_site_symmetry_multiplicity
  _atom_site_fract_x
  _atom_site_fract_y
  _atom_site_fract_z
  _atom_site_occupancy
  Zn  Zn1       1.0  0.6496300000000002  0.75325  0.74858  1.0000
  Zn  Zn2       1.0  0.35037  0.24675  0.25143  1.0000
  Zn  Zn3       1.0  0.8484000000000002  0.25171  0.7498  1.0000
  Zn  Zn4       1.0  0.1516  0.74829  0.25021  1.0000
  H   H1        1.0  0.72868  0.72919  0.57593  1.0000
  H   H2        1.0  0.8133200000000002  0.927  0.76567  1.0000
  H   H3        1.0  0.88295  0.80281  0.49154  1.0000
  H   H4        1.0  0.9651400000000002  0.012500000000000002  0.68813  1.0000
  H   H5        1.0  0.08465  0.00906  0.5699  1.0000
  H   H6        1.0  0.07448  0.8998100000000001  0.50236  1.0000
  H   H7        1.0  0.08092  0.47967  0.9301199999999998  1.0000
  H   H8        1.0  0.08196000000000002  0.5934  0.9935599999999999  1.0000
  H   H9        1.0  0.9683600000000002  0.48955  0.8074  1.0000
  H   H10       1.0  0.88787  0.69606  0.00564  1.0000
  H   H11       1.0  0.818  0.57968  0.72896  1.0000
  H   H12       1.0  0.73567  0.775  0.92028  1.0000
  H   H13       1.0  0.27132  0.27081  0.42408  1.0000
  H   H14       1.0  0.18668000000000004  0.073  0.23434  1.0000
  H   H15       1.0  0.11705000000000002  0.19719  0.50847  1.0000
  H   H16       1.0  0.03486  0.98751  0.31187  1.0000
  H   H17       1.0  0.9153500000000001  0.99094  0.43011  1.0000
  H   H18       1.0  0.9255200000000001  0.10019  0.49763999999999997  1.0000
  H   H19       1.0  0.9190800000000002  0.52034  0.06988  1.0000
  H   H20       1.0  0.91803  0.4066  0.00644  1.0000
  H   H21       1.0  0.03164000000000001  0.51045  0.19261  1.0000
  H   H22       1.0  0.11212000000000001  0.30394  0.9943700000000001  1.0000
  H   H23       1.0  0.18200000000000002  0.42032  0.27105  1.0000
  H   H24       1.0  0.26433  0.225  0.07973  1.0000
  H   H25       1.0  0.7718400000000002  0.22770000000000004  0.92422  1.0000
  H   H26       1.0  0.68638  0.42722  0.73427  1.0000
  H   H27       1.0  0.61784  0.30222  0.00875  1.0000
  H   H28       1.0  0.53464  0.51341  0.81184  1.0000
  H   H29       1.0  0.4151700000000001  0.50976  0.93014  1.0000
  H   H30       1.0  0.42606  0.40014  0.99789  1.0000
  H   H31       1.0  0.4191300000000001  0.9797900000000002  0.56986  1.0000
  H   H32       1.0  0.41753  0.09372000000000001  0.50611  1.0000
  H   H33       1.0  0.53079  0.98927  0.6928099999999999  1.0000
  H   H34       1.0  0.61174  0.19532  0.49396  1.0000
  H   H35       1.0  0.6804400000000002  0.07833  0.77128  1.0000
  H   H36       1.0  0.7632500000000002  0.2732  0.57945  1.0000
  H   H37       1.0  0.22816000000000006  0.77231  0.07578  1.0000
  H   H38       1.0  0.31362  0.57278  0.26572999999999997  1.0000
  H   H39       1.0  0.38216  0.6977900000000001  0.9912599999999999  1.0000
  H   H40       1.0  0.4653500000000001  0.48659  0.18817  1.0000
  H   H41       1.0  0.58483  0.49025  0.06986  1.0000
  H   H42       1.0  0.57393  0.59986  0.00212  1.0000
  H   H43       1.0  0.58087  0.020210000000000002  0.43014  1.0000
  H   H44       1.0  0.58247  0.9062900000000002  0.49388999999999994  1.0000
  H   H45       1.0  0.46920000000000006  0.010730000000000002  0.30719  1.0000
  H   H46       1.0  0.3882500000000001  0.80468  0.50604  1.0000
  H   H47       1.0  0.31955  0.9216700000000001  0.22873  1.0000
  H   H48       1.0  0.23674  0.7268000000000002  0.42056  1.0000
  C   C1        1.0  0.5330500000000001  0.66176  0.62606  1.0000
  C   C2        1.0  0.51327  0.57611  0.56385  1.0000
  C   C3        1.0  0.41183000000000003  0.56521  0.52166  1.0000
  C   C4        1.0  0.39951  0.49184  0.45985  1.0000
  C   C5        1.0  0.52386  0.97501  0.07886  1.0000
  C   C6        1.0  0.5421700000000002  0.90003  0.01883  1.0000
  C   C7        1.0  0.51762  0.9227500000000001  0.93838  1.0000
  C   C8        1.0  0.53706  0.83936  0.87462  1.0000
  C   C9        1.0  0.78318  0.7917900000000002  0.59834  1.0000
  C   C10       1.0  0.8303100000000001  0.9023100000000001  0.7045  1.0000
  C   C11       1.0  0.8681000000000001  0.8334800000000001  0.55159  1.0000
  C   C12       1.0  0.9159800000000001  0.94903  0.6609  1.0000
  C   C13       1.0  0.9367800000000001  0.91418  0.58285  1.0000
  C   C14       1.0  0.026589999999999996  0.9629700000000002  0.53233  1.0000
  C   C15       1.0  0.027970000000000002  0.5325  0.9660899999999999  1.0000
  C   C16       1.0  0.94034  0.58516  0.91397  1.0000
  C   C17       1.0  0.91991  0.55314  0.83496  1.0000
  C   C18       1.0  0.8732400000000001  0.66712  0.94497  1.0000
  C   C19       1.0  0.8350400000000002  0.60281  0.79065  1.0000
  C   C20       1.0  0.78914  0.71186  0.89751  1.0000
  C   C21       1.0  0.46695  0.33824000000000004  0.37395  1.0000
  C   C22       1.0  0.48673  0.42389  0.43615  1.0000
  C   C23       1.0  0.5881700000000001  0.43479000000000007  0.47834  1.0000
  C   C24       1.0  0.60049  0.50816  0.54016  1.0000
  C   C25       1.0  0.47614000000000006  0.02499  0.92114  1.0000
  C   C26       1.0  0.45783  0.09997  0.98118  1.0000
  C   C27       1.0  0.48237000000000013  0.07725  0.06162  1.0000
  C   C28       1.0  0.46293000000000006  0.16064  0.12538  1.0000
  C   C29       1.0  0.21681000000000003  0.20821  0.40167  1.0000
  C   C30       1.0  0.16968  0.09769  0.2955  1.0000
  C   C31       1.0  0.1319  0.16652000000000003  0.44841  1.0000
  C   C32       1.0  0.08402000000000001  0.05098  0.33911  1.0000
  C   C33       1.0  0.06322000000000001  0.08583  0.41716  1.0000
  C   C34       1.0  0.9734100000000001  0.03703  0.46768  1.0000
  C   C35       1.0  0.9720300000000002  0.4675  0.03392  1.0000
  C   C36       1.0  0.05966000000000001  0.41484000000000004  0.08604  1.0000
  C   C37       1.0  0.08008000000000001  0.44687  0.16505  1.0000
  C   C38       1.0  0.12675000000000003  0.33288  0.05503  1.0000
  C   C39       1.0  0.16496  0.39719  0.20935  1.0000
  C   C40       1.0  0.21085000000000007  0.28815  0.10249  1.0000
  C   C41       1.0  0.96788  0.16238000000000002  0.87391  1.0000
  C   C42       1.0  0.9856500000000001  0.07583  0.93617  1.0000
  C   C43       1.0  0.08786  0.06338  0.97735  1.0000
  C   C44       1.0  0.10205000000000002  0.99053  0.03979  1.0000
  C   C45       1.0  0.97564  0.4762  0.42097  1.0000
  C   C46       1.0  0.9582300000000001  0.40119  0.48117000000000004  1.0000
  C   C47       1.0  0.9822200000000001  0.42267  0.5617  1.0000
  C   C48       1.0  0.9610500000000001  0.33940000000000003  0.62529  1.0000
  C   C49       1.0  0.7172200000000002  0.29083  0.90172  1.0000
  C   C50       1.0  0.6695400000000001  0.40228  0.79547  1.0000
  C   C51       1.0  0.6324600000000001  0.333  0.94858  1.0000
  C   C52       1.0  0.5839700000000001  0.44945  0.83915  1.0000
  C   C53       1.0  0.56344  0.41428  0.91726  1.0000
  C   C54       1.0  0.47353000000000006  0.46326  0.96778  1.0000
  C   C55       1.0  0.47184  0.03252  0.53381  1.0000
  C   C56       1.0  0.5591000000000002  0.08464  0.58589  1.0000
  C   C57       1.0  0.57921  0.052520000000000004  0.6651  1.0000
  C   C58       1.0  0.6261100000000002  0.16618000000000002  0.55475  1.0000
  C   C59       1.0  0.66368  0.10161000000000002  0.70944  1.0000
  C   C60       1.0  0.70981  0.21037  0.60222  1.0000
  C   C61       1.0  0.03211  0.83762  0.12609  1.0000
  C   C62       1.0  0.01435  0.92417  0.06384  1.0000
  C   C63       1.0  0.9121300000000001  0.9366200000000002  0.02265  1.0000
  C   C64       1.0  0.89794  0.00947  0.9602199999999999  1.0000
  C   C65       1.0  0.02436  0.5238  0.57903  1.0000
  C   C66       1.0  0.04177000000000001  0.59881  0.51883  1.0000
  C   C67       1.0  0.01777  0.57733  0.4383  1.0000
  C   C68       1.0  0.03894  0.6606  0.37471  1.0000
  C   C69       1.0  0.28278  0.7091700000000001  0.09828  1.0000
  C   C70       1.0  0.33046000000000003  0.59772  0.20453  1.0000
  C   C71       1.0  0.36754  0.66701  0.05142  1.0000
  C   C72       1.0  0.41603  0.55055  0.16085  1.0000
  C   C73       1.0  0.4365600000000001  0.58572  0.08275  1.0000
  C   C74       1.0  0.5264600000000002  0.53675  0.03222  1.0000
  C   C75       1.0  0.5281500000000001  0.9674800000000002  0.46619  1.0000
  C   C76       1.0  0.4409  0.91536  0.41412  1.0000
  C   C77       1.0  0.42079  0.94748  0.3349  1.0000
  C   C78       1.0  0.37388000000000005  0.83382  0.44526  1.0000
  C   C79       1.0  0.33631  0.8983900000000001  0.29056  1.0000
  C   C80       1.0  0.29019000000000006  0.78963  0.39778  1.0000
  N   N1        1.0  0.76391  0.82527  0.67388  1.0000
  N   N2        1.0  0.76935  0.6803000000000001  0.82135  1.0000
  N   N3        1.0  0.23609000000000002  0.17473  0.32612  1.0000
  N   N4        1.0  0.23065000000000002  0.3197  0.17865  1.0000
  N   N5        1.0  0.73605  0.3244  0.82602  1.0000
  N   N6        1.0  0.7292900000000001  0.17869  0.67856  1.0000
  N   N7        1.0  0.26395  0.6756  0.17398  1.0000
  N   N8        1.0  0.27071  0.82132  0.32143999999999995  1.0000
  O   O1        1.0  0.58784  0.63007  0.6895  1.0000
  O   O2        1.0  0.50273  0.7548  0.61123  1.0000
  O   O3        1.0  0.5942200000000001  0.87307  0.81364  1.0000
  O   O4        1.0  0.5028600000000001  0.74691  0.88479  1.0000
  O   O5        1.0  0.41216  0.36993  0.31051  1.0000
  O   O6        1.0  0.49727000000000005  0.2452  0.38878  1.0000
  O   O7        1.0  0.40578000000000003  0.12693  0.18637  1.0000
  O   O8        1.0  0.49714  0.25309  0.11521  1.0000
  O   O9        1.0  0.91406  0.1317  0.8100999999999999  1.0000
  O   O10       1.0  0.99973  0.25438  0.88874  1.0000
  O   O11       1.0  0.9029800000000002  0.3732  0.68583  1.0000
  O   O12       1.0  0.99466  0.24656  0.61525  1.0000
  O   O13       1.0  0.08594  0.8683000000000002  0.1899  1.0000
  O   O14       1.0  0.0002700000000000009  0.74562  0.11126  1.0000
  O   O15       1.0  0.09701  0.6268  0.31417  1.0000
  O   O16       1.0  0.005340000000000001  0.75344  0.38476  1.0000
  F   F1        1.0  0.32041  0.62453  0.54011  1.0000
  F   F2        1.0  0.29679  0.48655  0.4244  1.0000
  F   F3        1.0  0.5488900000000001  0.94702  0.15521  1.0000
  F   F4        1.0  0.58825  0.8046700000000002  0.03967  1.0000
  F   F5        1.0  0.6795900000000001  0.37548000000000004  0.4599  1.0000
  F   F6        1.0  0.70321  0.51345  0.5756  1.0000
  F   F7        1.0  0.45111000000000007  0.05299000000000001  0.84479  1.0000
  F   F8        1.0  0.41175000000000006  0.19533  0.96033  1.0000
  F   F9        1.0  0.17765000000000003  0.12201000000000001  0.95613  1.0000
  F   F10       1.0  0.20525  0.9841400000000001  0.07528  1.0000
  F   F11       1.0  0.9484  0.4495800000000001  0.34487  1.0000
  F   F12       1.0  0.91402  0.30626  0.46011  1.0000
  F   F13       1.0  0.8223500000000001  0.8779900000000002  0.04388  1.0000
  F   F14       1.0  0.7947400000000002  0.01586  0.92472  1.0000
  F   F15       1.0  0.05159  0.55042  0.65513  1.0000
  F   F16       1.0  0.08598000000000003  0.69374  0.53989  1.0000
