data_image0
_chemical_formula_structural       Zn6H66C84N6O18
_chemical_formula_sum              "Zn6 H66 C84 N6 O18"
_cell_length_a       12.97996
_cell_length_b       18.96663
_cell_length_c       18.86822
_cell_angle_alpha    115.22755999999998
_cell_angle_beta     102.98535
_cell_angle_gamma    103.07621

_space_group_name_H-M_alt    "P 1"
_space_group_IT_number       1

loop_
  _space_group_symop_operation_xyz
  'x, y, z'

loop_
  _atom_site_type_symbol
  _atom_site_label
  _atom_site_symmetry_multiplicity
  _atom_site_fract_x
  _atom_site_fract_y
  _atom_site_fract_z
  _atom_site_occupancy
  Zn  Zn1       1.0  0.8175299999999998  0.69982  0.3207  1.0000
  Zn  Zn2       1.0  0.49682999999999994  0.6793799999999999  0.3787899999999999  1.0000
  Zn  Zn3       1.0  0.12071000000000005  0.62468  0.3039  1.0000
  Zn  Zn4       1.0  0.18248  0.30018  0.6793  1.0000
  Zn  Zn5       1.0  0.50317  0.32062  0.62121  1.0000
  Zn  Zn6       1.0  0.8792999999999997  0.3753199999999998  0.6960999999999998  1.0000
  H   H1        1.0  0.008309999999999939  0.8582699999999999  0.34519  1.0000
  H   H2        1.0  0.21903000000000003  0.84053  0.3014  1.0000
  H   H3        1.0  0.17064999999999997  0.14910999999999996  0.4154  1.0000
  H   H4        1.0  0.34251999999999994  0.18880999999999995  0.3842399999999999  1.0000
  H   H5        1.0  0.4353  0.08477999999999997  0.33019  1.0000
  H   H6        1.0  0.34920999999999996  0.9413199999999999  0.3047799999999999  1.0000
  H   H7        1.0  0.81715  0.58068  0.16350999999999993  1.0000
  H   H8        1.0  0.68238  0.48639  0.020149999999999994  1.0000
  H   H9        1.0  0.43333  0.58931  0.09876  1.0000
  H   H10       1.0  0.57759  0.6784300000000001  0.23927  1.0000
  H   H11       1.0  0.046739999999999934  0.04991999999999995  0.41965999999999987  1.0000
  H   H12       1.0  0.6633599999999996  0.6537299999999998  0.5114399999999998  1.0000
  H   H13       1.0  0.9179999999999999  0.69956  0.53931  1.0000
  H   H14       1.0  0.7562  0.58506  0.73406  1.0000
  H   H15       1.0  0.9585699999999999  0.61598  0.80518  1.0000
  H   H16       1.0  0.10476999999999992  0.6697799999999999  0.7549999999999998  1.0000
  H   H17       1.0  0.04419999999999989  0.6953  0.6365899999999998  1.0000
  H   H18       1.0  0.6530199999999997  0.8349999999999999  0.4165199999999999  1.0000
  H   H19       1.0  0.66185  0.9780799999999998  0.46563  1.0000
  H   H20       1.0  0.33474  0.90285  0.4905799999999999  1.0000
  H   H21       1.0  0.33846999999999994  0.7625199999999999  0.43921  1.0000
  H   H22       1.0  0.62829  0.58091  0.63026  1.0000
  H   H23       1.0  0.15237  0.4888100000000001  0.14328  1.0000
  H   H24       1.0  0.37886999999999993  0.46053999999999995  0.15981  1.0000
  H   H25       1.0  0.022250000000000002  0.2659  0.85086  1.0000
  H   H26       1.0  0.153  0.19382  0.80958  1.0000
  H   H27       1.0  0.34935999999999995  0.2435599999999999  0.9129199999999997  1.0000
  H   H28       1.0  0.40736  0.36228  0.05745999999999998  1.0000
  H   H29       1.0  0.23679  0.58437  0.41978  1.0000
  H   H30       1.0  0.19591999999999998  0.5339  0.51283  1.0000
  H   H31       1.0  0.8446399999999998  0.50969  0.41162  1.0000
  H   H32       1.0  0.90066  0.5627099999999999  0.3239499999999999  1.0000
  H   H33       1.0  0.9982899999999998  0.37011999999999995  0.9512799999999998  1.0000
  H   H34       1.0  0.9917  0.14173  0.65481  1.0000
  H   H35       1.0  0.78098  0.15947  0.6986  1.0000
  H   H36       1.0  0.8293599999999999  0.8508999999999999  0.5846  1.0000
  H   H37       1.0  0.65748  0.8112  0.61576  1.0000
  H   H38       1.0  0.5647  0.91522  0.66981  1.0000
  H   H39       1.0  0.6507899999999999  0.058679999999999906  0.6952299999999998  1.0000
  H   H40       1.0  0.18285999999999983  0.4193199999999999  0.8364899999999997  1.0000
  H   H41       1.0  0.3176199999999999  0.5136099999999999  0.9798499999999998  1.0000
  H   H42       1.0  0.56667  0.41069  0.90124  1.0000
  H   H43       1.0  0.4224199999999999  0.32156999999999986  0.7607299999999998  1.0000
  H   H44       1.0  0.95326  0.9500799999999999  0.58034  1.0000
  H   H45       1.0  0.33664999999999995  0.3462699999999999  0.4885599999999999  1.0000
  H   H46       1.0  0.08199999999999992  0.3004399999999999  0.4606899999999999  1.0000
  H   H47       1.0  0.24380999999999994  0.4149399999999999  0.26594  1.0000
  H   H48       1.0  0.04143  0.38402  0.19482  1.0000
  H   H49       1.0  0.8952399999999996  0.33022  0.245  1.0000
  H   H50       1.0  0.9558  0.3047  0.36341  1.0000
  H   H51       1.0  0.34697999999999984  0.16499999999999992  0.5834799999999998  1.0000
  H   H52       1.0  0.33816  0.021920000000000016  0.53437  1.0000
  H   H53       1.0  0.6652599999999999  0.09715000000000003  0.50942  1.0000
  H   H54       1.0  0.66154  0.23748  0.56079  1.0000
  H   H55       1.0  0.37171999999999983  0.41908999999999996  0.3697399999999999  1.0000
  H   H56       1.0  0.8476399999999998  0.5111899999999999  0.8567199999999998  1.0000
  H   H57       1.0  0.62114  0.5394599999999998  0.8401899999999998  1.0000
  H   H58       1.0  0.97775  0.7340999999999999  0.14913999999999994  1.0000
  H   H59       1.0  0.8469999999999999  0.80618  0.19041999999999995  1.0000
  H   H60       1.0  0.6506400000000001  0.7564400000000001  0.08708  1.0000
  H   H61       1.0  0.59265  0.6377199999999998  0.9425399999999998  1.0000
  H   H62       1.0  0.76322  0.41563  0.58022  1.0000
  H   H63       1.0  0.8040799999999999  0.4661  0.48717  1.0000
  H   H64       1.0  0.15535999999999994  0.49031  0.5883799999999998  1.0000
  H   H65       1.0  0.09933999999999993  0.43729  0.6760499999999998  1.0000
  H   H66       1.0  0.0017199999999999935  0.62988  0.048719999999999986  1.0000
  C   C1        1.0  0.04724999999999999  0.74521  0.30377  1.0000
  C   C2        1.0  0.06804  0.8305  0.32447  1.0000
  C   C3        1.0  0.16526  0.87552  0.32208  1.0000
  C   C4        1.0  0.20868999999999993  0.96105  0.34209  1.0000
  C   C5        1.0  0.16067999999999993  0.02243999999999993  0.3756299999999999  1.0000
  C   C6        1.0  0.20881999999999998  0.10303999999999995  0.38979999999999987  1.0000
  C   C7        1.0  0.3066899999999999  0.1255599999999999  0.3727899999999999  1.0000
  C   C8        1.0  0.35808  0.06739  0.34216  1.0000
  C   C9        1.0  0.30963999999999986  0.9870599999999999  0.3276499999999999  1.0000
  C   C10       1.0  0.7307999999999999  0.5796  0.14617999999999995  1.0000
  C   C11       1.0  0.6540699999999999  0.52708  0.06595999999999998  1.0000
  C   C12       1.0  0.5403  0.52626  0.04153999999999999  1.0000
  C   C13       1.0  0.51651  0.58428  0.10925999999999997  1.0000
  C   C14       1.0  0.59659  0.63485  0.18867  1.0000
  C   C15       1.0  0.74335  0.69698  0.44085  1.0000
  C   C16       1.0  0.7438499999999998  0.67553  0.50522  1.0000
  C   C17       1.0  0.84344  0.6782  0.55301  1.0000
  C   C18       1.0  0.86673  0.6577899999999999  0.6185399999999998  1.0000
  C   C19       1.0  0.7855099999999999  0.6243599999999999  0.6464799999999998  1.0000
  C   C20       1.0  0.81955  0.61037  0.71331  1.0000
  C   C21       1.0  0.93411  0.6272399999999999  0.7530399999999998  1.0000
  C   C22       1.0  0.015769999999999867  0.6577099999999998  0.7253799999999998  1.0000
  C   C23       1.0  0.98184  0.6722  0.6592599999999997  1.0000
  C   C24       1.0  0.58425  0.85306  0.43302  1.0000
  C   C25       1.0  0.5877999999999998  0.93313  0.46072999999999986  1.0000
  C   C26       1.0  0.49874999999999986  0.9584999999999999  0.4846399999999999  1.0000
  C   C27       1.0  0.40734999999999993  0.8916999999999999  0.475  1.0000
  C   C28       1.0  0.4080099999999998  0.81238  0.4461299999999999  1.0000
  C   C29       1.0  0.30338  0.55957  0.25678  1.0000
  C   C30       1.0  0.23911  0.49497  0.17087  1.0000
  C   C31       1.0  0.2906099999999999  0.44679  0.12506999999999993  1.0000
  C   C32       1.0  0.24827  0.38102  0.03886999999999999  1.0000
  C   C33       1.0  0.1392199999999999  0.3533999999999998  0.9777799999999998  1.0000
  C   C34       1.0  0.10631999999999985  0.28637999999999986  0.8966399999999998  1.0000
  C   C35       1.0  0.18083999999999997  0.24611999999999998  0.87319  1.0000
  C   C36       1.0  0.29012999999999983  0.27349999999999997  0.9310099999999998  1.0000
  C   C37       1.0  0.32237999999999994  0.33977999999999997  0.011919999999999997  1.0000
  C   C38       1.0  0.15166999999999997  0.56788  0.4211699999999999  1.0000
  C   C39       1.0  0.12714000000000003  0.53946  0.47302  1.0000
  C   C40       1.0  0.014239999999999942  0.5155599999999999  0.4740099999999999  1.0000
  C   C41       1.0  0.9329  0.52568  0.41678  1.0000
  C   C42       1.0  0.9628499999999998  0.55537  0.3669299999999999  1.0000
  C   C43       1.0  0.95275  0.25479  0.69623  1.0000
  C   C44       1.0  0.93196  0.1695  0.67553  1.0000
  C   C45       1.0  0.8347399999999998  0.12448  0.67792  1.0000
  C   C46       1.0  0.7913199999999999  0.03895000000000003  0.65791  1.0000
  C   C47       1.0  0.83932  0.97756  0.62438  1.0000
  C   C48       1.0  0.79119  0.8969600000000001  0.6102  1.0000
  C   C49       1.0  0.69331  0.8744399999999999  0.62721  1.0000
  C   C50       1.0  0.64192  0.93261  0.65784  1.0000
  C   C51       1.0  0.6903599999999999  0.012939999999999858  0.6723499999999998  1.0000
  C   C52       1.0  0.2691999999999999  0.4204  0.85383  1.0000
  C   C53       1.0  0.34593999999999986  0.47291999999999984  0.9340399999999998  1.0000
  C   C54       1.0  0.45971  0.47374  0.95846  1.0000
  C   C55       1.0  0.48348999999999986  0.41572  0.89075  1.0000
  C   C56       1.0  0.40341  0.36515  0.81133  1.0000
  C   C57       1.0  0.25665  0.30302  0.55915  1.0000
  C   C58       1.0  0.2561499999999999  0.32446999999999987  0.49478  1.0000
  C   C59       1.0  0.15655999999999995  0.3218  0.44699  1.0000
  C   C60       1.0  0.13326999999999992  0.34220999999999996  0.3814599999999999  1.0000
  C   C61       1.0  0.2144899999999999  0.3756399999999999  0.3535199999999999  1.0000
  C   C62       1.0  0.18044999999999994  0.3896299999999999  0.2866899999999999  1.0000
  C   C63       1.0  0.06588999999999998  0.37276  0.24695999999999996  1.0000
  C   C64       1.0  0.98423  0.3422899999999999  0.2746299999999999  1.0000
  C   C65       1.0  0.018159999999999992  0.3278  0.34074  1.0000
  C   C66       1.0  0.4157499999999998  0.14693999999999988  0.5669899999999998  1.0000
  C   C67       1.0  0.41219999999999996  0.06686999999999985  0.5392699999999998  1.0000
  C   C68       1.0  0.5012499999999999  0.04149999999999994  0.5153599999999998  1.0000
  C   C69       1.0  0.59266  0.10829999999999994  0.525  1.0000
  C   C70       1.0  0.5919999999999997  0.1876199999999999  0.5538699999999998  1.0000
  C   C71       1.0  0.69662  0.4404299999999999  0.7432199999999998  1.0000
  C   C72       1.0  0.7609000000000002  0.50503  0.82913  1.0000
  C   C73       1.0  0.7093999999999999  0.5532099999999999  0.8749299999999998  1.0000
  C   C74       1.0  0.75174  0.6189799999999999  0.9611299999999998  1.0000
  C   C75       1.0  0.86079  0.6465999999999998  0.022219999999999993  1.0000
  C   C76       1.0  0.8936899999999998  0.7136199999999999  0.10336  1.0000
  C   C77       1.0  0.8191699999999997  0.75388  0.12681  1.0000
  C   C78       1.0  0.70987  0.7265  0.06899  1.0000
  C   C79       1.0  0.6776199999999997  0.6602199999999998  0.9880799999999997  1.0000
  C   C80       1.0  0.84833  0.4321199999999999  0.5788299999999997  1.0000
  C   C81       1.0  0.8728599999999997  0.46053999999999984  0.5269899999999997  1.0000
  C   C82       1.0  0.9857700000000001  0.48444000000000004  0.526  1.0000
  C   C83       1.0  0.06710999999999984  0.4743199999999998  0.5832299999999998  1.0000
  C   C84       1.0  0.037149999999999905  0.44462999999999997  0.6330699999999998  1.0000
  N   N1        1.0  0.70548  0.63468  0.21041999999999994  1.0000
  N   N2        1.0  0.4949  0.78971  0.42406  1.0000
  N   N3        1.0  0.07183999999999996  0.57761  0.3669999999999999  1.0000
  N   N4        1.0  0.2945199999999999  0.3653199999999998  0.7895799999999997  1.0000
  N   N5        1.0  0.5051  0.21028999999999998  0.57594  1.0000
  N   N6        1.0  0.92816  0.4223899999999999  0.6329999999999998  1.0000
  O   O1        1.0  0.11640999999999993  0.70936  0.27622  1.0000
  O   O2        1.0  0.9663199999999997  0.70199  0.31511  1.0000
  O   O3        1.0  0.0666  0.0006099999999999988  0.39533  1.0000
  O   O4        1.0  0.8396799999999999  0.72556  0.4330999999999999  1.0000
  O   O5        1.0  0.65118  0.68537  0.3859799999999999  1.0000
  O   O6        1.0  0.6719799999999998  0.60466  0.60476  1.0000
  O   O7        1.0  0.4073199999999999  0.56696  0.29271999999999987  1.0000
  O   O8        1.0  0.2662599999999999  0.6149599999999997  0.3002599999999999  1.0000
  O   O9        1.0  0.06755999999999997  0.3955  0.00039  1.0000
  O   O10       1.0  0.8835899999999999  0.29064  0.72378  1.0000
  O   O11       1.0  0.03368000000000001  0.29801  0.68489  1.0000
  O   O12       1.0  0.9333999999999998  0.9993899999999999  0.60467  1.0000
  O   O13       1.0  0.16032000000000002  0.27444  0.5669  1.0000
  O   O14       1.0  0.34882  0.31463  0.61402  1.0000
  O   O15       1.0  0.32802  0.39534  0.39524  1.0000
  O   O16       1.0  0.59268  0.43304  0.70728  1.0000
  O   O17       1.0  0.7337399999999997  0.3850399999999998  0.6997399999999998  1.0000
  O   O18       1.0  0.9324399999999999  0.6045  0.99962  1.0000
