data_image0
_chemical_formula_structural       Tb4Cu12H48C72Br12N12O24
_chemical_formula_sum              "Tb4 Cu12 H48 C72 Br12 N12 O24"
_cell_length_a       9.77307
_cell_length_b       14.46979
_cell_length_c       19.71276
_cell_angle_alpha    73.83325
_cell_angle_beta     81.71067
_cell_angle_gamma    76.72768

_symmetry_space_group_name_H-M    'P 1'
_symmetry_Int_Tables_number       1

loop_
  _symmetry_equiv_pos_as_xyz
  'x,y,z'

loop_
  _atom_site_type_symbol
  _atom_site_label
  _atom_site_symmetry_multiplicity
  _atom_site_fract_x
  _atom_site_fract_y
  _atom_site_fract_z
  _atom_site_occupancy
  Tb  Tb1       1.0  0.33127  0.04753999999999998  0.80287  1.0000
  Tb  Tb2       1.0  0.87916  0.06220999999999995  0.79987  1.0000
  Tb  Tb3       1.0  0.6661400000000001  0.9515399999999999  0.19682  1.0000
  Tb  Tb4       1.0  0.11527000000000008  0.9361099999999998  0.19998  1.0000
  Cu  Cu1       1.0  0.25408  0.57565  0.66702  1.0000
  Cu  Cu2       1.0  0.22513000000000002  0.7359999999999999  0.56551  1.0000
  Cu  Cu3       1.0  0.11559  0.59341  0.56145  1.0000
  Cu  Cu4       1.0  0.012619999999999998  0.67604  0.66324  1.0000
  Cu  Cu5       1.0  0.6612099999999999  0.50962  0.8993099999999999  1.0000
  Cu  Cu6       1.0  0.40846000000000005  0.49577  0.9597799999999999  1.0000
  Cu  Cu7       1.0  0.7453399999999998  0.42565  0.33311  1.0000
  Cu  Cu8       1.0  0.7751  0.26436  0.43455  1.0000
  Cu  Cu9       1.0  0.8836899999999999  0.40693  0.4393099999999999  1.0000
  Cu  Cu10      1.0  0.9872000000000003  0.3245899999999998  0.33713  1.0000
  Cu  Cu11      1.0  0.33786999999999995  0.49001  0.10030000000000001  1.0000
  Cu  Cu12      1.0  0.59082  0.50377  0.04035  1.0000
  H   H1        1.0  0.32771999999999996  0.36182  0.72375  1.0000
  H   H2        1.0  0.54803  0.58102  0.61881  1.0000
  H   H3        1.0  0.7814100000000003  0.4662299999999999  0.64489  1.0000
  H   H4        1.0  0.7822199999999999  0.29330000000000006  0.71372  1.0000
  H   H5        1.0  0.7943999999999998  0.3106599999999999  0.8851400000000001  1.0000
  H   H6        1.0  0.9486200000000001  0.56536  0.85256  1.0000
  H   H7        1.0  0.19722999999999996  0.47591999999999995  0.84372  1.0000
  H   H8        1.0  0.24546999999999994  0.29185000000000005  0.8597599999999999  1.0000
  H   H9        1.0  0.9115899999999999  0.8145199999999996  0.91425  1.0000
  H   H10       1.0  0.8926499999999999  0.63866  0.96497  1.0000
  H   H11       1.0  0.11643999999999999  0.5110599999999998  0.9842700000000001  1.0000
  H   H12       1.0  0.36429000000000006  0.7214699999999997  0.91801  1.0000
  H   H13       1.0  0.24587000000000003  0.86452  0.65296  1.0000
  H   H14       1.0  0.5108300000000002  0.76745  0.49235  1.0000
  H   H15       1.0  0.6891799999999999  0.8633799999999999  0.49946000000000007  1.0000
  H   H16       1.0  0.6370599999999998  0.9670100000000001  0.5879  1.0000
  H   H17       1.0  0.45808  0.8052099999999998  0.80437  1.0000
  H   H18       1.0  0.4978599999999999  0.65555  0.7573  1.0000
  H   H19       1.0  0.7409000000000001  0.59417  0.70565  1.0000
  H   H20       1.0  0.89853  0.81387  0.74532  1.0000
  H   H21       1.0  0.08866  0.73672  0.42435000000000006  1.0000
  H   H22       1.0  0.84184  0.54138  0.54388  1.0000
  H   H23       1.0  0.6487299999999998  0.61135  0.46304  1.0000
  H   H24       1.0  0.6808499999999998  0.75356  0.35674  1.0000
  H   H25       1.0  0.66886  0.6402499999999999  0.27543  1.0000
  H   H26       1.0  0.45248999999999967  0.4192899999999999  0.38176  1.0000
  H   H27       1.0  0.21806999999999996  0.5324900000000001  0.356  1.0000
  H   H28       1.0  0.21424000000000004  0.70523  0.28621  1.0000
  H   H29       1.0  0.20364999999999997  0.68797  0.11520000000000001  1.0000
  H   H30       1.0  0.05087000000000004  0.4327899999999999  0.14776  1.0000
  H   H31       1.0  0.8019399999999999  0.52177  0.15615  1.0000
  H   H32       1.0  0.75263  0.70589  0.13956  1.0000
  H   H33       1.0  0.08584000000000003  0.18317999999999995  0.08528  1.0000
  H   H34       1.0  0.10643999999999997  0.35893  0.03573  1.0000
  H   H35       1.0  0.88351  0.48727  0.0163  1.0000
  H   H36       1.0  0.63334  0.27828999999999987  0.0821  1.0000
  H   H37       1.0  0.75735  0.13608999999999993  0.34696  1.0000
  H   H38       1.0  0.48832999999999993  0.23230000000000003  0.50686  1.0000
  H   H39       1.0  0.31165  0.13573999999999997  0.49854  1.0000
  H   H40       1.0  0.36746999999999996  0.031830000000000004  0.41022  1.0000
  H   H41       1.0  0.5401900000000001  0.19173999999999994  0.19669  1.0000
  H   H42       1.0  0.50236  0.34325  0.24126000000000003  1.0000
  H   H43       1.0  0.2603599999999999  0.40719  0.29239000000000004  1.0000
  H   H44       1.0  0.09961  0.18548  0.25742  1.0000
  H   H45       1.0  0.90882  0.26473  0.57605  1.0000
  H   H46       1.0  0.15933  0.45779000000000003  0.45676  1.0000
  H   H47       1.0  0.3509300000000001  0.38707  0.53846  1.0000
  H   H48       1.0  0.31681  0.24496  0.64451  1.0000
  C   C1        1.0  0.5498899999999999  0.21198999999999998  0.76649  1.0000
  C   C2        1.0  0.5549600000000001  0.31396999999999997  0.72338  1.0000
  C   C3        1.0  0.43007999999999985  0.38227  0.70685  1.0000
  C   C4        1.0  0.55431  0.5046999999999998  0.64849  1.0000
  C   C5        1.0  0.6826499999999999  0.441  0.66252  1.0000
  C   C6        1.0  0.68355  0.34456000000000003  0.70113  1.0000
  C   C7        1.0  0.04486000000000002  0.18232999999999996  0.87273  1.0000
  C   C8        1.0  0.023099999999999978  0.28815  0.8724300000000001  1.0000
  C   C9        1.0  0.88641  0.34424000000000005  0.8772399999999999  1.0000
  C   C10       1.0  0.9727499999999999  0.48617999999999983  0.8595000000000002  1.0000
  C   C11       1.0  0.11192999999999996  0.43558999999999976  0.8546800000000001  1.0000
  C   C12       1.0  0.13834  0.3345299999999999  0.8626900000000001  1.0000
  C   C13       1.0  0.15668999999999997  0.8842399999999998  0.8810500000000001  1.0000
  C   C14       1.0  0.1391  0.78114  0.91278  1.0000
  C   C15       1.0  0.005260000000000046  0.7573199999999999  0.9258700000000001  1.0000
  C   C16       1.0  0.9953199999999999  0.65933  0.9533700000000002  1.0000
  C   C17       1.0  0.11827000000000001  0.5888  0.9641000000000001  1.0000
  C   C18       1.0  0.25835999999999987  0.7059299999999998  0.92664  1.0000
  C   C19       1.0  0.3987400000000001  0.9769399999999996  0.68315  1.0000
  C   C20       1.0  0.4368900000000001  0.92314  0.62651  1.0000
  C   C21       1.0  0.3439099999999999  0.86679  0.61917  1.0000
  C   C22       1.0  0.4933000000000002  0.8126899999999998  0.5298  1.0000
  C   C23       1.0  0.5916900000000002  0.8665699999999998  0.53394  1.0000
  C   C24       1.0  0.56334  0.92358  0.5829  1.0000
  C   C25       1.0  0.6625199999999998  0.9075900000000001  0.80773  1.0000
  C   C26       1.0  0.6755599999999996  0.82107  0.77847  1.0000
  C   C27       1.0  0.5612899999999998  0.77625  0.78125  1.0000
  C   C28       1.0  0.5831700000000001  0.69354  0.75488  1.0000
  C   C29       1.0  0.7173699999999998  0.6593500000000001  0.72581  1.0000
  C   C30       1.0  0.80677  0.7818499999999999  0.74829  1.0000
  C   C31       1.0  0.92129  0.82765  0.31636  1.0000
  C   C32       1.0  0.88856  0.7536799999999998  0.38234  1.0000
  C   C33       1.0  0.9897100000000002  0.71139  0.43137  1.0000
  C   C34       1.0  0.8507099999999999  0.6028999999999999  0.49804000000000004  1.0000
  C   C35       1.0  0.7430899999999999  0.6426  0.45269000000000004  1.0000
  C   C36       1.0  0.76142  0.71986  0.39389  1.0000
  C   C37       1.0  0.44513  0.7879199999999997  0.23145  1.0000
  C   C38       1.0  0.4414499999999999  0.6863100000000001  0.27585  1.0000
  C   C39       1.0  0.5671300000000001  0.61892  0.29264  1.0000
  C   C40       1.0  0.44511  0.49563000000000007  0.35188  1.0000
  C   C41       1.0  0.3161299999999999  0.5585  0.33797  1.0000
  C   C42       1.0  0.31363999999999986  0.6548599999999999  0.29877  1.0000
  C   C43       1.0  0.9520799999999999  0.81617  0.1269  1.0000
  C   C44       1.0  0.9748  0.71017  0.12739  1.0000
  C   C45       1.0  0.11177999999999993  0.6543  0.12289  1.0000
  C   C46       1.0  0.026330000000000024  0.51199  0.14072  1.0000
  C   C47       1.0  0.88697  0.5623199999999998  0.14528  1.0000
  C   C48       1.0  0.8599799999999997  0.66343  0.13702  1.0000
  C   C49       1.0  0.8398999999999998  0.11459000000000001  0.11771  1.0000
  C   C50       1.0  0.85841  0.21761999999999998  0.08681  1.0000
  C   C51       1.0  0.9925999999999999  0.24086  0.07397  1.0000
  C   C52       1.0  0.003430000000000031  0.3387399999999999  0.04696  1.0000
  C   C53       1.0  0.8808299999999999  0.40968  0.0363  1.0000
  C   C54       1.0  0.7395699999999997  0.29331  0.07342  1.0000
  C   C55       1.0  0.60705  0.022360000000000012  0.31635  1.0000
  C   C56       1.0  0.56738  0.07624999999999998  0.37285  1.0000
  C   C57       1.0  0.65904  0.13329  0.38048  1.0000
  C   C58       1.0  0.50735  0.18708  0.46932999999999997  1.0000
  C   C59       1.0  0.40996000000000005  0.13273000000000004  0.46468999999999994  1.0000
  C   C60       1.0  0.4402299999999999  0.07554000000000001  0.41584  1.0000
  C   C61       1.0  0.33278  0.08955999999999996  0.1961  1.0000
  C   C62       1.0  0.32217  0.17711999999999997  0.22366  1.0000
  C   C63       1.0  0.43725999999999987  0.22168999999999997  0.21959000000000004  1.0000
  C   C64       1.0  0.41642999999999997  0.30549  0.24457  1.0000
  C   C65       1.0  0.28264999999999996  0.3410499999999999  0.27342  1.0000
  C   C66       1.0  0.19162000000000004  0.21759  0.25356  1.0000
  C   C67       1.0  0.07632000000000004  0.1707199999999999  0.68358  1.0000
  C   C68       1.0  0.10934999999999997  0.24561000000000002  0.61818  1.0000
  C   C69       1.0  0.00847000000000002  0.28908  0.56917  1.0000
  C   C70       1.0  0.1492400000000001  0.39659999999999995  0.50273  1.0000
  C   C71       1.0  0.2561399999999999  0.35631999999999997  0.54849  1.0000
  C   C72       1.0  0.23674999999999988  0.2790199999999999  0.60712  1.0000
  Br  Br1       1.0  0.34208  0.6196299999999999  0.4953600000000001  1.0000
  Br  Br2       1.0  0.03189000000000003  0.4890499999999999  0.67102  1.0000
  Br  Br3       1.0  0.9885499999999999  0.83286  0.5691  1.0000
  Br  Br4       1.0  0.19414999999999988  0.6779500000000002  0.74889  1.0000
  Br  Br5       1.0  0.51124  0.42896  0.85884  1.0000
  Br  Br6       1.0  0.6371799999999997  0.64987  0.94472  1.0000
  Br  Br7       1.0  0.6568700000000002  0.3808299999999999  0.50464  1.0000
  Br  Br8       1.0  0.96708  0.5114599999999998  0.3292  1.0000
  Br  Br9       1.0  0.0116  0.16785  0.43157  1.0000
  Br  Br10      1.0  0.8052200000000002  0.32212  0.25184  1.0000
  Br  Br11      1.0  0.48704  0.57082  0.14106  1.0000
  Br  Br12      1.0  0.36161  0.34933  0.05536  1.0000
  N   N1        1.0  0.42909000000000014  0.47645999999999983  0.67087  1.0000
  N   N2        1.0  0.8607599999999995  0.4414600000000001  0.8726  1.0000
  N   N3        1.0  0.24860999999999997  0.6106899999999997  0.9506700000000001  1.0000
  N   N4        1.0  0.3706099999999999  0.81226  0.57165  1.0000
  N   N5        1.0  0.8275100000000001  0.70328  0.72149  1.0000
  N   N6        1.0  0.9716000000000002  0.63696  0.4886  1.0000
  N   N7        1.0  0.56968  0.5247  0.32907  1.0000
  N   N8        1.0  0.13800000000000004  0.5570299999999999  0.12763  1.0000
  N   N9        1.0  0.75011  0.38842  0.04962  1.0000
  N   N10       1.0  0.63056  0.18796999999999994  0.42794000000000004  1.0000
  N   N11       1.0  0.1718699999999999  0.29729  0.27894  1.0000
  N   N12       1.0  0.02760000000000001  0.36348  0.51206  1.0000
  O   O1        1.0  0.4319200000000001  0.18542000000000003  0.78063  1.0000
  O   O2        1.0  0.6663999999999998  0.15700999999999998  0.78791  1.0000
  O   O3        1.0  0.93511  0.15229  0.8646799999999999  1.0000
  O   O4        1.0  0.16763000000000003  0.12959  0.87848  1.0000
  O   O5        1.0  0.27172000000000013  0.9070999999999997  0.8854500000000001  1.0000
  O   O6        1.0  0.05459000000000003  0.94534  0.84829  1.0000
  O   O7        1.0  0.46494  0.04175999999999999  0.68623  1.0000
  O   O8        1.0  0.29828999999999994  0.95327  0.73032  1.0000
  O   O9        1.0  0.7778399999999999  0.9358900000000001  0.80835  1.0000
  O   O10       1.0  0.5434599999999998  0.94804  0.83162  1.0000
  O   O11       1.0  0.03523000000000001  0.8611800000000001  0.31011  1.0000
  O   O12       1.0  0.84117  0.85173  0.26644  1.0000
  O   O13       1.0  0.5626200000000001  0.8151299999999998  0.21732000000000004  1.0000
  O   O14       1.0  0.32852000000000003  0.84155  0.20906  1.0000
  O   O15       1.0  0.06166  0.84672  0.13464  1.0000
  O   O16       1.0  0.8287300000000001  0.8683999999999997  0.12159  1.0000
  O   O17       1.0  0.7228299999999998  0.09318999999999997  0.11487999999999998  1.0000
  O   O18       1.0  0.9434899999999999  0.05178000000000001  0.14808  1.0000
  O   O19       1.0  0.54139  0.95695  0.31352  1.0000
  O   O20       1.0  0.7070299999999998  0.04624  0.26913  1.0000
  O   O21       1.0  0.21688999999999997  0.06026  0.19843  1.0000
  O   O22       1.0  0.45066  0.04941  0.17079  1.0000
  O   O23       1.0  0.9618899999999999  0.1379  0.6897  1.0000
  O   O24       1.0  0.15723999999999994  0.14526999999999998  0.73328  1.0000
