data_image0
_chemical_formula_structural       Cu6H64C70S12N12O8
_chemical_formula_sum              "Cu6 H64 C70 S12 N12 O8"
_cell_length_a       10.08686
_cell_length_b       13.39911
_cell_length_c       22.39699
_cell_angle_alpha    105.74253
_cell_angle_beta     91.37470000000002
_cell_angle_gamma    103.6482

_space_group_name_H-M_alt    "P 1"
_space_group_IT_number       1

loop_
  _space_group_symop_operation_xyz
  'x, y, z'

loop_
  _atom_site_type_symbol
  _atom_site_label
  _atom_site_symmetry_multiplicity
  _atom_site_fract_x
  _atom_site_fract_y
  _atom_site_fract_z
  _atom_site_occupancy
  Cu  Cu1       1.0  0.06753000000000002  0.53384  0.27979  1.0000
  Cu  Cu2       1.0  0.40470000000000006  0.015359999999999995  0.04128999999999999  1.0000
  Cu  Cu3       1.0  0.9441500000000002  0.45848999999999984  0.7207  1.0000
  Cu  Cu4       1.0  0.59264  0.9745499999999999  0.9558599999999999  1.0000
  Cu  Cu5       1.0  0.43155  0.023780000000000003  0.51271  1.0000
  Cu  Cu6       1.0  0.9647200000000002  0.9929199999999999  0.49413999999999997  1.0000
  H   H1        1.0  0.3130799999999999  0.8938799999999998  0.12378  1.0000
  H   H2        1.0  0.4060999999999999  0.8479999999999999  0.21296  1.0000
  H   H3        1.0  0.79464  0.06157999999999998  0.20169  1.0000
  H   H4        1.0  0.68152  0.09973999999999997  0.11286  1.0000
  H   H5        1.0  0.60289  0.82707  0.34575  1.0000
  H   H6        1.0  0.4652899999999999  0.8507999999999998  0.30622  1.0000
  H   H7        1.0  0.70887  0.71403  0.35856  1.0000
  H   H8        1.0  0.9084400000000001  0.64639  0.36461  1.0000
  H   H9        1.0  0.8670599999999999  0.4975099999999998  0.17263999999999996  1.0000
  H   H10       1.0  0.66234  0.56196  0.1583  1.0000
  H   H11       1.0  0.23046999999999998  0.5533999999999999  0.3914099999999999  1.0000
  H   H12       1.0  0.44032000000000004  0.50335  0.41664  1.0000
  H   H13       1.0  0.4761000000000001  0.39552  0.21799999999999997  1.0000
  H   H14       1.0  0.26385000000000003  0.44590999999999986  0.20018  1.0000
  H   H15       1.0  0.63171  0.30301  0.23201999999999998  1.0000
  H   H16       1.0  0.7123  0.25999  0.2879  1.0000
  H   H17       1.0  0.67072  0.23464999999999997  0.38029999999999997  1.0000
  H   H18       1.0  0.65392  0.14869999999999994  0.4655799999999999  1.0000
  H   H19       1.0  0.28176999999999996  0.9384199999999999  0.38577  1.0000
  H   H20       1.0  0.29052  0.006630000000000004  0.29331  1.0000
  H   H21       1.0  0.13254999999999992  0.9872999999999997  0.9918899999999999  1.0000
  H   H22       1.0  0.01531999999999995  0.04750999999999986  0.9153599999999997  1.0000
  H   H23       1.0  0.40396000000000004  0.2664599999999999  0.90943  1.0000
  H   H24       1.0  0.50235  0.2000799999999999  0.9899999999999998  1.0000
  H   H25       1.0  0.91477  0.17149999999999993  0.7999599999999998  1.0000
  H   H26       1.0  0.9141400000000001  0.12927  0.86879  1.0000
  H   H27       1.0  0.04542  0.16719999999999996  0.7202799999999999  1.0000
  H   H28       1.0  0.07161  0.15215  0.60911  1.0000
  H   H29       1.0  0.91956  0.8224999999999999  0.5577  1.0000
  H   H30       1.0  0.89493  0.8210699999999999  0.66767  1.0000
  H   H31       1.0  0.58728  0.8714199999999999  0.45675  1.0000
  H   H32       1.0  0.8400900000000002  0.26578  0.024729999999999995  1.0000
  H   H33       1.0  0.6928699999999999  0.0970099999999999  0.8762699999999999  1.0000
  H   H34       1.0  0.6083799999999999  0.1471299999999999  0.7868499999999998  1.0000
  H   H35       1.0  0.21423  0.9339299999999998  0.79124  1.0000
  H   H36       1.0  0.3198  0.89098  0.8802999999999999  1.0000
  H   H37       1.0  0.4237900000000001  0.17924  0.65514  1.0000
  H   H38       1.0  0.5569399999999998  0.1543999999999999  0.6973299999999999  1.0000
  H   H39       1.0  0.30438000000000004  0.27734  0.64548  1.0000
  H   H40       1.0  0.10386999999999999  0.3418399999999999  0.6366299999999999  1.0000
  H   H41       1.0  0.1461  0.50306  0.8273199999999999  1.0000
  H   H42       1.0  0.35276  0.44207  0.84396  1.0000
  H   H43       1.0  0.7591900000000001  0.4242899999999999  0.61145  1.0000
  H   H44       1.0  0.5472300000000001  0.47677  0.59165  1.0000
  H   H45       1.0  0.55618  0.6136099999999999  0.7914199999999999  1.0000
  H   H46       1.0  0.76766  0.5590499999999999  0.80353  1.0000
  H   H47       1.0  0.41025000000000006  0.7057399999999999  0.7809799999999999  1.0000
  H   H48       1.0  0.30929000000000006  0.74138  0.7287499999999999  1.0000
  H   H49       1.0  0.30532000000000004  0.7546799999999998  0.63527  1.0000
  H   H50       1.0  0.26841  0.8406  0.55423  1.0000
  H   H51       1.0  0.66185  0.039539999999999915  0.5924899999999999  1.0000
  H   H52       1.0  0.7098  0.9727099999999997  0.68154  1.0000
  H   H53       1.0  0.8650700000000002  0.003479999999999999  0.00252  1.0000
  H   H54       1.0  0.9869100000000001  0.94468  0.07816  1.0000
  H   H55       1.0  0.60184  0.72395  0.08709  1.0000
  H   H56       1.0  0.49847  0.78928  0.0072499999999999995  1.0000
  H   H57       1.0  0.09785999999999992  0.8221399999999998  0.19038  1.0000
  H   H58       1.0  0.09107999999999992  0.8639799999999999  0.12173999999999997  1.0000
  H   H59       1.0  0.99693  0.8212799999999999  0.27163  1.0000
  H   H60       1.0  0.97257  0.8337799999999997  0.38173  1.0000
  H   H61       1.0  0.05256999999999997  0.16482999999999995  0.4323699999999999  1.0000
  H   H62       1.0  0.07594999999999999  0.16801999999999997  0.32230999999999993  1.0000
  H   H63       1.0  0.27479999999999993  0.14942999999999992  0.47215999999999997  1.0000
  H   H64       1.0  0.15505  0.72683  0.9766899999999997  1.0000
  C   C1        1.0  0.41852000000000006  0.93034  0.14347999999999997  1.0000
  C   C2        1.0  0.47212  0.9051199999999999  0.19339  1.0000
  C   C3        1.0  0.60966  0.95285  0.21693  1.0000
  C   C4        1.0  0.68645  0.024279999999999982  0.18693  1.0000
  C   C5        1.0  0.62506  0.04568999999999999  0.13733  1.0000
  C   C6        1.0  0.56264  0.8279399999999998  0.30002  1.0000
  C   C7        1.0  0.66527  0.64634  0.25625  1.0000
  C   C8        1.0  0.7379500000000001  0.6673699999999999  0.31528  1.0000
  C   C9        1.0  0.85252  0.62965  0.3194  1.0000
  C   C10       1.0  0.8287600000000002  0.5458599999999998  0.21226999999999993  1.0000
  C   C11       1.0  0.7138  0.58232  0.20485  1.0000
  C   C12       1.0  0.28724  0.51764  0.35445  1.0000
  C   C13       1.0  0.40499000000000007  0.4895099999999999  0.3680899999999999  1.0000
  C   C14       1.0  0.47799  0.44239  0.31977  1.0000
  C   C15       1.0  0.4248700000000001  0.4287  0.25798  1.0000
  C   C16       1.0  0.30547  0.4571699999999998  0.24743999999999994  1.0000
  C   C17       1.0  0.62161  0.28646  0.2773  1.0000
  C   C18       1.0  0.47848000000000007  0.13001999999999994  0.32929  1.0000
  C   C19       1.0  0.58282  0.16884  0.37874  1.0000
  C   C20       1.0  0.57317  0.12266999999999999  0.42753  1.0000
  C   C21       1.0  0.3669  0.003269999999999975  0.38256999999999997  1.0000
  C   C22       1.0  0.37121  0.04236999999999996  0.33131999999999995  1.0000
  C   C23       1.0  0.18786999999999998  0.05005999999999991  0.9728899999999999  1.0000
  C   C24       1.0  0.12378  0.08295  0.9289299999999999  1.0000
  C   C25       1.0  0.20051  0.16166999999999992  0.9041299999999998  1.0000
  C   C26       1.0  0.33913999999999994  0.20602999999999982  0.9274099999999997  1.0000
  C   C27       1.0  0.39496000000000003  0.1696799999999999  0.9720399999999999  1.0000
  C   C28       1.0  0.9646700000000001  0.12927999999999995  0.8257299999999999  1.0000
  C   C29       1.0  0.9650500000000001  0.9947699999999997  0.7045499999999999  1.0000
  C   C30       1.0  0.014169999999999966  0.08848999999999989  0.6867199999999999  1.0000
  C   C31       1.0  0.029140000000000006  0.08145000000000001  0.62433  1.0000
  C   C32       1.0  0.94902  0.8965599999999998  0.59555  1.0000
  C   C33       1.0  0.9345700000000002  0.8966099999999999  0.65703  1.0000
  C   C34       1.0  0.7007100000000002  0.89533  0.4655  1.0000
  C   C35       1.0  0.78692  0.1822199999999998  0.9984799999999999  1.0000
  C   C36       1.0  0.58847  0.06156000000000005  0.85476  1.0000
  C   C37       1.0  0.53933  0.08945999999999994  0.8049999999999999  1.0000
  C   C38       1.0  0.4027100000000001  0.04338999999999997  0.77967  1.0000
  C   C39       1.0  0.32206  0.97008  0.8074299999999999  1.0000
  C   C40       1.0  0.37913999999999987  0.9459299999999998  0.85707  1.0000
  C   C41       1.0  0.4585299999999999  0.17594  0.70135  1.0000
  C   C42       1.0  0.34776999999999997  0.3510499999999999  0.7469499999999999  1.0000
  C   C43       1.0  0.2746600000000001  0.32595  0.68784  1.0000
  C   C44       1.0  0.15922000000000003  0.36222999999999994  0.6823499999999999  1.0000
  C   C45       1.0  0.18438  0.45257  0.78861  1.0000
  C   C46       1.0  0.30052  0.4182999999999999  0.7973199999999999  1.0000
  C   C47       1.0  0.71147  0.46694  0.64981  1.0000
  C   C48       1.0  0.59289  0.49656  0.63925  1.0000
  C   C49       1.0  0.53207  0.55251  0.68942  1.0000
  C   C50       1.0  0.59763  0.5734  0.7499499999999999  1.0000
  C   C51       1.0  0.71666  0.5427499999999998  0.75732  1.0000
  C   C52       1.0  0.40262  0.71453  0.73383  1.0000
  C   C53       1.0  0.5111500000000001  0.8581799999999997  0.6675199999999999  1.0000
  C   C54       1.0  0.38667  0.8195199999999999  0.62932  1.0000
  C   C55       1.0  0.3658699999999999  0.8662899999999998  0.58275  1.0000
  C   C56       1.0  0.5840999999999997  0.9797899999999996  0.6054999999999999  1.0000
  C   C57       1.0  0.6110499999999999  0.9401999999999997  0.6541199999999999  1.0000
  C   C58       1.0  0.8116900000000001  0.9405499999999999  0.021899999999999996  1.0000
  C   C59       1.0  0.8783700000000001  0.90848  0.06542  1.0000
  C   C60       1.0  0.8041100000000001  0.8294399999999997  0.09068999999999999  1.0000
  C   C61       1.0  0.6648899999999999  0.7845199999999998  0.06866  1.0000
  C   C62       1.0  0.6062900000000001  0.8201599999999999  0.024459999999999996  1.0000
  C   C63       1.0  0.043859999999999906  0.8633099999999998  0.16559999999999997  1.0000
  C   C64       1.0  0.04106000000000002  0.99481  0.2863899999999999  1.0000
  C   C65       1.0  0.01202999999999999  0.9001  0.30456  1.0000
  C   C66       1.0  0.9987300000000001  0.9060699999999998  0.36683  1.0000
  C   C67       1.0  0.03977999999999999  0.09102999999999996  0.3947399999999999  1.0000
  C   C68       1.0  0.05299999999999999  0.09182999999999995  0.33333  1.0000
  C   C69       1.0  0.26136  0.17184999999999997  0.52271  1.0000
  C   C70       1.0  0.21485999999999997  0.8111099999999998  0.9974599999999999  1.0000
  S   S1        1.0  0.69007  0.9323099999999999  0.28081  1.0000
  S   S2        1.0  0.51891  0.69164  0.24657  1.0000
  S   S3        1.0  0.62854  0.40945  0.33898  1.0000
  S   S4        1.0  0.46745000000000003  0.17841  0.26489  1.0000
  S   S5        1.0  0.93534  0.9894499999999997  0.7808099999999999  1.0000
  S   S6        1.0  0.14015  0.20892  0.84594  1.0000
  S   S7        1.0  0.32787  0.06897  0.71617  1.0000
  S   S8        1.0  0.49464000000000014  0.30762  0.75862  1.0000
  S   S9        1.0  0.37849000000000005  0.5853199999999998  0.6752399999999998  1.0000
  S   S10       1.0  0.5537199999999999  0.8176799999999997  0.73168  1.0000
  S   S11       1.0  0.07021  0.0025699999999999968  0.21063  1.0000
  S   S12       1.0  0.8688799999999999  0.7823899999999998  0.14795  1.0000
  N   N1        1.0  0.49174999999999996  0.9993899999999999  0.1148  1.0000
  N   N2        1.0  0.90298  0.5699899999999998  0.26942  1.0000
  N   N3        1.0  0.23289000000000004  0.50124  0.29419  1.0000
  N   N4        1.0  0.46486999999999995  0.043139999999999935  0.4314999999999999  1.0000
  N   N5        1.0  0.3221300000000001  0.0906399999999999  0.99431  1.0000
  N   N6        1.0  0.9952300000000001  0.98749  0.57827  1.0000
  N   N7        1.0  0.51135  0.9909299999999999  0.8813899999999999  1.0000
  N   N8        1.0  0.10943999999999998  0.42391999999999996  0.73154  1.0000
  N   N9        1.0  0.77758  0.4902099999999999  0.70862  1.0000
  N   N10       1.0  0.46164  0.9456299999999997  0.57013  1.0000
  N   N11       1.0  0.6770500000000002  0.89891  0.00146  1.0000
  N   N12       1.0  0.013440000000000011  0.9994  0.41242999999999996  1.0000
  O   O1        1.0  0.7533  0.9953399999999999  0.49103  1.0000
  O   O2        1.0  0.7660700000000001  0.8239799999999999  0.4499099999999999  1.0000
  O   O3        1.0  0.67521  0.14166999999999993  0.018369999999999997  1.0000
  O   O4        1.0  0.8417600000000002  0.13624000000000003  0.95236  1.0000
  O   O5        1.0  0.33975  0.14164999999999991  0.5571599999999999  1.0000
  O   O6        1.0  0.17363000000000003  0.22278000000000003  0.54104  1.0000
  O   O7        1.0  0.32345000000000007  0.8424499999999999  0.9728999999999998  1.0000
  O   O8        1.0  0.16898000000000002  0.86762  0.04334  1.0000
