data_image0
_chemical_formula_structural       Ca6Eu4H36C84N12O48
_chemical_formula_sum              "Ca6 Eu4 H36 C84 N12 O48"
_cell_length_a       8.13115
_cell_length_b       14.03489
_cell_length_c       23.74473
_cell_angle_alpha    111.60083
_cell_angle_beta     87.3493
_cell_angle_gamma    86.28961

_symmetry_space_group_name_H-M    'P 1'
_symmetry_Int_Tables_number       1

loop_
  _symmetry_equiv_pos_as_xyz
  'x,y,z'

loop_
  _atom_site_type_symbol
  _atom_site_label
  _atom_site_symmetry_multiplicity
  _atom_site_fract_x
  _atom_site_fract_y
  _atom_site_fract_z
  _atom_site_occupancy
  Ca  Ca1       1.0  0.84826  0.4924699999999999  0.74187  1.0000
  Ca  Ca2       1.0  0.06491  0.47998999999999997  0.24133000000000004  1.0000
  Ca  Ca3       1.0  0.013059999999999993  0.5484  0.99209  1.0000
  Ca  Ca4       1.0  0.9907100000000001  0.49622999999999995  0.5305200000000001  1.0000
  Ca  Ca5       1.0  0.012559999999999991  0.0046400000000000104  0.99504  1.0000
  Ca  Ca6       1.0  0.96111  0.9301199999999997  0.45636  1.0000
  Eu  Eu1       1.0  0.4216700000000001  0.6954699999999998  0.89401  1.0000
  Eu  Eu2       1.0  0.38748000000000005  0.3244  0.61845  1.0000
  Eu  Eu3       1.0  0.62127  0.3123799999999999  0.09208  1.0000
  Eu  Eu4       1.0  0.5966100000000001  0.6632699999999998  0.3949  1.0000
  H   H1        1.0  0.15734999999999996  0.95319  0.78208  1.0000
  H   H2        1.0  0.38228  0.9077599999999998  0.69651  1.0000
  H   H3        1.0  0.62361  0.7826699999999998  0.6934800000000001  1.0000
  H   H4        1.0  0.5714  0.3441699999999999  0.9419500000000001  1.0000
  H   H5        1.0  0.29755999999999994  0.27018000000000003  0.9146900000000001  1.0000
  H   H6        1.0  0.10776999999999998  0.3471000000000001  0.85934  1.0000
  H   H7        1.0  0.13017000000000004  0.89513  0.13200000000000003  1.0000
  H   H8        1.0  0.33322  0.03137000000000003  0.16755000000000003  1.0000
  H   H9        1.0  0.58107  0.019900000000000008  0.09713000000000001  1.0000
  H   H10       1.0  0.20130999999999996  0.08284999999999988  0.74835  1.0000
  H   H11       1.0  0.45407999999999993  0.09554999999999995  0.8089100000000001  1.0000
  H   H12       1.0  0.66892  0.21273  0.79895  1.0000
  H   H13       1.0  0.5398200000000002  0.6583799999999997  0.55809  1.0000
  H   H14       1.0  0.273  0.77033  0.59819  1.0000
  H   H15       1.0  0.05243999999999998  0.7056899999999998  0.6504900000000001  1.0000
  H   H16       1.0  0.12337  0.12811  0.39222  1.0000
  H   H17       1.0  0.33470999999999995  0.97223  0.3504300000000001  1.0000
  H   H18       1.0  0.57543  0.9655399999999997  0.41169  1.0000
  H   H19       1.0  0.8386  0.037739999999999996  0.20214  1.0000
  H   H20       1.0  0.61615  0.09567000000000002  0.28948  1.0000
  H   H21       1.0  0.40719  0.24315  0.29824  1.0000
  H   H22       1.0  0.41237  0.6474799999999998  0.03619  1.0000
  H   H23       1.0  0.65861  0.7485299999999999  0.07101  1.0000
  H   H24       1.0  0.85686  0.6899299999999998  0.13341  1.0000
  H   H25       1.0  0.87341  0.09504999999999995  0.85296  1.0000
  H   H26       1.0  0.6729200000000001  0.9566899999999998  0.82615  1.0000
  H   H27       1.0  0.4360200000000001  0.97345  0.90233  1.0000
  H   H28       1.0  0.75413  0.9170399999999997  0.26319  1.0000
  H   H29       1.0  0.51569  0.8765999999999998  0.19531000000000004  1.0000
  H   H30       1.0  0.32499  0.74589  0.20459  1.0000
  H   H31       1.0  0.39458000000000004  0.35137000000000007  0.4622300000000001  1.0000
  H   H32       1.0  0.6510800000000004  0.22909999999999994  0.42092  1.0000
  H   H33       1.0  0.85942  0.26903  0.35146  1.0000
  H   H34       1.0  0.81229  0.87723  0.6264  1.0000
  H   H35       1.0  0.59393  0.027490000000000053  0.66031  1.0000
  H   H36       1.0  0.3557  0.02076999999999998  0.59418  1.0000
  C   C1        1.0  0.16031  0.88745  0.87751  1.0000
  C   C2        1.0  0.27553000000000005  0.8530299999999997  0.82054  1.0000
  C   C3        1.0  0.26280999999999993  0.8983100000000002  0.7772600000000001  1.0000
  C   C4        1.0  0.38799000000000017  0.8732099999999998  0.7306500000000001  1.0000
  C   C5        1.0  0.52189  0.8040699999999997  0.72843  1.0000
  C   C6        1.0  0.52221  0.7596  0.7722800000000001  1.0000
  C   C7        1.0  0.6573099999999998  0.68093  0.7724700000000001  1.0000
  C   C8        1.0  0.66618  0.5227099999999998  0.92945  1.0000
  C   C9        1.0  0.52052  0.46151999999999993  0.9057700000000001  1.0000
  C   C10       1.0  0.48543000000000014  0.37439999999999996  0.91777  1.0000
  C   C11       1.0  0.33464999999999995  0.33325999999999995  0.9021300000000001  1.0000
  C   C12       1.0  0.22686999999999993  0.37665  0.8720300000000002  1.0000
  C   C13       1.0  0.27308  0.46236  0.8605400000000002  1.0000
  C   C14       1.0  0.1613  0.5227599999999999  0.8340700000000001  1.0000
  C   C15       1.0  0.15542000000000003  0.73365  0.021440000000000004  1.0000
  C   C16       1.0  0.2668700000000001  0.8191099999999998  0.04573000000000001  1.0000
  C   C17       1.0  0.23985000000000004  0.8947499999999998  0.10401  1.0000
  C   C18       1.0  0.35295999999999994  0.9690299999999997  0.12327  1.0000
  C   C19       1.0  0.49036  0.9637999999999999  0.08448  1.0000
  C   C20       1.0  0.5077000000000003  0.88617  0.02667  1.0000
  C   C21       1.0  0.6471699999999999  0.8774599999999999  0.9799600000000003  1.0000
  C   C22       1.0  0.15089999999999995  0.17401000000000005  0.6650900000000001  1.0000
  C   C23       1.0  0.28618999999999994  0.18581999999999996  0.7080000000000001  1.0000
  C   C24       1.0  0.29944  0.13082000000000002  0.74625  1.0000
  C   C25       1.0  0.4387299999999998  0.13859  0.77932  1.0000
  C   C26       1.0  0.5578  0.20300000000000007  0.7743200000000001  1.0000
  C   C27       1.0  0.5311699999999999  0.2588900000000001  0.7370400000000003  1.0000
  C   C28       1.0  0.64696  0.33499999999999996  0.73192  1.0000
  C   C29       1.0  0.61132  0.46783999999999987  0.56371  1.0000
  C   C30       1.0  0.46991999999999995  0.54709  0.59455  1.0000
  C   C31       1.0  0.44573  0.63907  0.58489  1.0000
  C   C32       1.0  0.29679000000000005  0.6997799999999998  0.6066800000000001  1.0000
  C   C33       1.0  0.17499000000000003  0.6653099999999998  0.6361000000000001  1.0000
  C   C34       1.0  0.21074  0.57189  0.64345  1.0000
  C   C35       1.0  0.08214000000000006  0.5138099999999999  0.66041  1.0000
  C   C36       1.0  0.14055999999999996  0.29398  0.49846  1.0000
  C   C37       1.0  0.24946000000000002  0.1943899999999999  0.47344  1.0000
  C   C38       1.0  0.22860000000000003  0.11825000000000004  0.41689000000000004  1.0000
  C   C39       1.0  0.3463800000000001  0.033829999999999937  0.39395  1.0000
  C   C40       1.0  0.48078  0.02941000000000006  0.42778000000000005  1.0000
  C   C41       1.0  0.4900300000000001  0.10711000000000008  0.4845800000000001  1.0000
  C   C42       1.0  0.62659  0.10670000000000003  0.5261400000000002  1.0000
  C   C43       1.0  0.86429  0.11444  0.11159  1.0000
  C   C44       1.0  0.74992  0.15278999999999998  0.16871000000000003  1.0000
  C   C45       1.0  0.74669  0.10181999999999998  0.20951  1.0000
  C   C46       1.0  0.62303  0.13369  0.25698  1.0000
  C   C47       1.0  0.50699  0.21504999999999994  0.26245  1.0000
  C   C48       1.0  0.52102  0.26268  0.22034000000000006  1.0000
  C   C49       1.0  0.3977800000000001  0.34833999999999987  0.22103000000000006  1.0000
  C   C50       1.0  0.3479100000000001  0.46643999999999997  0.05217  1.0000
  C   C51       1.0  0.48468000000000006  0.53672  0.07484000000000002  1.0000
  C   C52       1.0  0.50145  0.62585  0.06279  1.0000
  C   C53       1.0  0.63831  0.6813500000000001  0.08213000000000001  1.0000
  C   C54       1.0  0.75007  0.64888  0.11566000000000003  1.0000
  C   C55       1.0  0.7244100000000003  0.5586599999999998  0.12572  1.0000
  C   C56       1.0  0.8410500000000001  0.5179999999999999  0.16065  1.0000
  C   C57       1.0  0.8625299999999999  0.2615800000000001  0.9630700000000001  1.0000
  C   C58       1.0  0.74637  0.17746000000000006  0.9406700000000001  1.0000
  C   C59       1.0  0.76778  0.09808999999999997  0.88354  1.0000
  C   C60       1.0  0.65632  0.02236000000000013  0.8690900000000003  1.0000
  C   C61       1.0  0.52473  0.030640000000000143  0.911  1.0000
  C   C62       1.0  0.51144  0.11233000000000005  0.9672000000000002  1.0000
  C   C63       1.0  0.3817  0.12317999999999997  0.01778  1.0000
  C   C64       1.0  0.81444  0.83891  0.35187  1.0000
  C   C65       1.0  0.69016  0.8103199999999998  0.30469  1.0000
  C   C66       1.0  0.66903  0.8608299999999998  0.26418  1.0000
  C   C67       1.0  0.53667  0.8384499999999998  0.22721000000000005  1.0000
  C   C68       1.0  0.43063  0.7667399999999998  0.23182  1.0000
  C   C69       1.0  0.46263000000000015  0.71887  0.27294  1.0000
  C   C70       1.0  0.35386  0.64218  0.28258  1.0000
  C   C71       1.0  0.33501  0.5387199999999999  0.45142  1.0000
  C   C72       1.0  0.47418999999999994  0.45549999999999996  0.4219200000000001  1.0000
  C   C73       1.0  0.48940000000000006  0.3643599999999999  0.43289  1.0000
  C   C74       1.0  0.6315  0.2972399999999999  0.40964  1.0000
  C   C75       1.0  0.74803  0.31925999999999993  0.3722000000000001  1.0000
  C   C76       1.0  0.72058  0.41025999999999996  0.36153  1.0000
  C   C77       1.0  0.8348700000000002  0.4378399999999999  0.31943000000000005  1.0000
  C   C78       1.0  0.8140100000000003  0.7028399999999998  0.51917  1.0000
  C   C79       1.0  0.7017900000000005  0.80173  0.5422200000000001  1.0000
  C   C80       1.0  0.71096  0.8808699999999998  0.59865  1.0000
  C   C81       1.0  0.5883600000000002  0.9630299999999998  0.61754  1.0000
  C   C82       1.0  0.45796  0.9612599999999999  0.5809400000000001  1.0000
  C   C83       1.0  0.46197000000000005  0.8815099999999998  0.52414  1.0000
  C   C84       1.0  0.3336100000000001  0.8757099999999998  0.47923000000000004  1.0000
  N   N1        1.0  0.40126000000000006  0.7837199999999999  0.8169500000000002  1.0000
  N   N2        1.0  0.4157100000000001  0.5040399999999998  0.87787  1.0000
  N   N3        1.0  0.39739  0.81595  0.00793  1.0000
  N   N4        1.0  0.39908000000000005  0.24901000000000006  0.7040800000000002  1.0000
  N   N5        1.0  0.35714  0.51631  0.62546  1.0000
  N   N6        1.0  0.37528999999999996  0.18768999999999994  0.5068300000000001  1.0000
  N   N7        1.0  0.6401000000000001  0.23194999999999993  0.1747  1.0000
  N   N8        1.0  0.59725  0.5031  0.10450000000000002  1.0000
  N   N9        1.0  0.6218000000000002  0.18303999999999998  0.98129  1.0000
  N   N10       1.0  0.58984  0.7402299999999998  0.3083600000000001  1.0000
  N   N11       1.0  0.58978  0.47823000000000004  0.38779000000000013  1.0000
  N   N12       1.0  0.58341  0.8048  0.50503  1.0000
  O   O1        1.0  0.19088000000000005  0.84708  0.91686  1.0000
  O   O2        1.0  0.04966000000000001  0.9598399999999999  0.8857800000000002  1.0000
  O   O3        1.0  0.62386  0.6237900000000001  0.8027900000000001  1.0000
  O   O4        1.0  0.79205  0.6716599999999998  0.74228  1.0000
  O   O5        1.0  0.6579599999999999  0.6142700000000001  0.9312800000000002  1.0000
  O   O6        1.0  0.78291  0.4803500000000001  0.9484200000000003  1.0000
  O   O7        1.0  0.21543  0.60454  0.83129  1.0000
  O   O8        1.0  0.021790000000000007  0.4924699999999999  0.81866  1.0000
  O   O9        1.0  0.1975  0.6651799999999999  0.9682400000000002  1.0000
  O   O10       1.0  0.032120000000000024  0.7283099999999998  0.05435000000000001  1.0000
  O   O11       1.0  0.6327399999999999  0.8154500000000002  0.9259800000000002  1.0000
  O   O12       1.0  0.76539  0.9329799999999998  0.99689  1.0000
  O   O13       1.0  0.16626999999999997  0.22136999999999996  0.628  1.0000
  O   O14       1.0  0.0383  0.11764  0.66519  1.0000
  O   O15       1.0  0.60888  0.38531  0.69799  1.0000
  O   O16       1.0  0.77236  0.3480200000000001  0.7626000000000002  1.0000
  O   O17       1.0  0.60896  0.38104  0.56901  1.0000
  O   O18       1.0  0.71726  0.49095  0.5314100000000002  1.0000
  O   O19       1.0  0.12434000000000002  0.4585899999999999  0.69061  1.0000
  O   O20       1.0  0.9406200000000003  0.51874  0.64048  1.0000
  O   O21       1.0  0.18192999999999998  0.36158999999999997  0.5480700000000001  1.0000
  O   O22       1.0  0.02519  0.30955  0.46843  1.0000
  O   O23       1.0  0.60799  0.17082999999999998  0.5796700000000001  1.0000
  O   O24       1.0  0.74927  0.03865  0.50284  1.0000
  O   O25       1.0  0.84246  0.15697999999999998  0.07259000000000002  1.0000
  O   O26       1.0  0.9671100000000005  0.03793  0.10289  1.0000
  O   O27       1.0  0.41476  0.3813  0.17778  1.0000
  O   O28       1.0  0.28302  0.38072  0.26289  1.0000
  O   O29       1.0  0.37522  0.37536  0.048830000000000005  1.0000
  O   O30       1.0  0.21794  0.50489  0.037270000000000005  1.0000
  O   O31       1.0  0.82653  0.42784999999999995  0.16089000000000003  1.0000
  O   O32       1.0  0.94679  0.5769099999999998  0.18855000000000002  1.0000
  O   O33       1.0  0.82571  0.3278999999999999  0.01735  1.0000
  O   O34       1.0  0.98386  0.26345000000000013  0.9291800000000002  1.0000
  O   O35       1.0  0.4096200000000001  0.18071  0.07081000000000001  1.0000
  O   O36       1.0  0.25818  0.07043999999999999  0.00262  1.0000
  O   O37       1.0  0.80975  0.7961099999999998  0.3915800000000001  1.0000
  O   O38       1.0  0.90862  0.9089499999999998  0.35443  1.0000
  O   O39       1.0  0.39233  0.60666  0.32295000000000007  1.0000
  O   O40       1.0  0.23194999999999996  0.6179999999999999  0.25099000000000005  1.0000
  O   O41       1.0  0.35638000000000014  0.6274499999999997  0.45152000000000003  1.0000
  O   O42       1.0  0.21035  0.5144  0.4756800000000001  1.0000
  O   O43       1.0  0.8242  0.53219  0.32249000000000005  1.0000
  O   O44       1.0  0.9340200000000004  0.3675300000000001  0.28250000000000003  1.0000
  O   O45       1.0  0.80422  0.6445699999999998  0.4636  1.0000
  O   O46       1.0  0.90163  0.68136  0.55607  1.0000
  O   O47       1.0  0.36758  0.8163999999999999  0.42479  1.0000
  O   O48       1.0  0.19900000000000004  0.9335599999999997  0.50032  1.0000
