data_image0
_chemical_formula_structural       Zn4H60C108O24
_chemical_formula_sum              "Zn4 H60 C108 O24"
_cell_length_a       7.89391
_cell_length_b       14.65516
_cell_length_c       28.16266
_cell_angle_alpha    90.5842
_cell_angle_beta     89.98869999999998
_cell_angle_gamma    89.93833

_symmetry_space_group_name_H-M    'P 1'
_symmetry_Int_Tables_number       1

loop_
  _symmetry_equiv_pos_as_xyz
  'x,y,z'

loop_
  _atom_site_type_symbol
  _atom_site_label
  _atom_site_symmetry_multiplicity
  _atom_site_fract_x
  _atom_site_fract_y
  _atom_site_fract_z
  _atom_site_occupancy
  Zn  Zn1       1.0  0.31328999999999996  0.54367  0.8441099999999999  1.0000
  Zn  Zn2       1.0  0.18811999999999998  0.03881  0.34376999999999996  1.0000
  Zn  Zn3       1.0  0.81132  0.95653  0.6561899999999999  1.0000
  Zn  Zn4       1.0  0.69541  0.45669  0.15604  1.0000
  H   H1        1.0  0.55995  0.67139  0.56131  1.0000
  H   H2        1.0  0.7821999999999998  0.56191  0.4338  1.0000
  H   H3        1.0  0.73621  0.39445  0.55819  1.0000
  H   H4        1.0  0.27962  0.60358  0.6909599999999998  1.0000
  H   H5        1.0  0.37151  0.61286  0.60694  1.0000
  H   H6        1.0  0.7855499999999999  0.42928  0.63648  1.0000
  H   H7        1.0  0.69162  0.42159  0.7207999999999999  1.0000
  H   H8        1.0  0.53331  0.93501  0.4947299999999999  1.0000
  H   H9        1.0  0.64524  0.7993700000000001  0.53274  1.0000
  H   H10       1.0  0.5812999999999998  0.64654  0.40149  1.0000
  H   H11       1.0  0.46688  0.78559  0.36343  1.0000
  H   H12       1.0  0.11294999999999997  0.35037  0.3724  1.0000
  H   H13       1.0  0.98028  0.47925  0.41634  1.0000
  H   H14       1.0  0.7425099999999998  0.28713  0.51107  1.0000
  H   H15       1.0  0.8707099999999998  0.15955  0.46539  1.0000
  H   H16       1.0  0.94687  0.17476000000000003  0.06050999999999999  1.0000
  H   H17       1.0  0.71956  0.06551  0.9337999999999999  1.0000
  H   H18       1.0  0.7685599999999998  0.89852  0.05834999999999999  1.0000
  H   H19       1.0  0.22403999999999993  0.10655  0.19113  1.0000
  H   H20       1.0  0.13300999999999993  0.11755  0.10698  1.0000
  H   H21       1.0  0.71958  0.9332900000000001  0.13525  1.0000
  H   H22       1.0  0.81363  0.92308  0.21954  1.0000
  H   H23       1.0  0.9670799999999998  0.43816  0.99388  1.0000
  H   H24       1.0  0.85794  0.30226  0.03223  1.0000
  H   H25       1.0  0.9240999999999998  0.14887  0.90127  1.0000
  H   H26       1.0  0.03786999999999999  0.28785  0.86296  1.0000
  H   H27       1.0  0.38565  0.85475  0.8735699999999997  1.0000
  H   H28       1.0  0.52109  0.98327  0.91695  1.0000
  H   H29       1.0  0.7594599999999998  0.79106  0.01146  1.0000
  H   H30       1.0  0.62938  0.66367  0.96636  1.0000
  H   H31       1.0  0.05409  0.82662  0.93972  1.0000
  H   H32       1.0  0.28168  0.93573  0.06634  1.0000
  H   H33       1.0  0.23156  0.10314  0.94194  1.0000
  H   H34       1.0  0.77442  0.89221  0.81001  1.0000
  H   H35       1.0  0.8675799999999998  0.8831900000000001  0.89391  1.0000
  H   H36       1.0  0.2782  0.06833  0.864  1.0000
  H   H37       1.0  0.18178999999999995  0.07648  0.77986  1.0000
  H   H38       1.0  0.03644  0.56277  0.00679  1.0000
  H   H39       1.0  0.14422999999999994  0.69874  0.9681599999999998  1.0000
  H   H40       1.0  0.07810999999999997  0.85251  0.0991  1.0000
  H   H41       1.0  0.9674999999999998  0.71299  0.13771  1.0000
  H   H42       1.0  0.61818  0.1447  0.12652  1.0000
  H   H43       1.0  0.48023  0.01714  0.08313999999999998  1.0000
  H   H44       1.0  0.24383999999999995  0.21084  0.9890599999999998  1.0000
  H   H45       1.0  0.3767799999999999  0.33741  0.03412  1.0000
  H   H46       1.0  0.4461299999999999  0.32537999999999995  0.43875999999999993  1.0000
  H   H47       1.0  0.22294999999999995  0.43506  0.56608  1.0000
  H   H48       1.0  0.26715  0.6018  0.4414099999999999  1.0000
  H   H49       1.0  0.7218  0.39595  0.30796  1.0000
  H   H50       1.0  0.63147  0.38391  0.39214  1.0000
  H   H51       1.0  0.21501  0.56702  0.3645099999999999  1.0000
  H   H52       1.0  0.30773  0.57768  0.2801  1.0000
  H   H53       1.0  0.4666599999999999  0.0613  0.50667  1.0000
  H   H54       1.0  0.35925  0.1972  0.46772999999999987  1.0000
  H   H55       1.0  0.4245199999999999  0.35168  0.59838  1.0000
  H   H56       1.0  0.53418  0.21241  0.63738  1.0000
  H   H57       1.0  0.8884799999999998  0.64611  0.62657  1.0000
  H   H58       1.0  0.02314  0.51733  0.58296  1.0000
  H   H59       1.0  0.26178  0.7093400000000001  0.48852999999999996  1.0000
  H   H60       1.0  0.13235999999999995  0.83708  0.53381  1.0000
  C   C1        1.0  0.64126  0.53126  0.56563  1.0000
  C   C2        1.0  0.6181499999999998  0.61467  0.5422  1.0000
  C   C3        1.0  0.66643  0.62651  0.49439  1.0000
  C   C4        1.0  0.74538  0.55387  0.47069  1.0000
  C   C5        1.0  0.77255  0.46974  0.49318  1.0000
  C   C6        1.0  0.7178899999999998  0.45948  0.54068  1.0000
  C   C7        1.0  0.42844  0.51171  0.7617  1.0000
  C   C8        1.0  0.47988999999999987  0.51186  0.71083  1.0000
  C   C9        1.0  0.38967  0.56553  0.67852  1.0000
  C   C10       1.0  0.4429  0.5710500000000001  0.63157  1.0000
  C   C11       1.0  0.58598  0.52235  0.6155  1.0000
  C   C12       1.0  0.67384  0.46712  0.64797  1.0000
  C   C13       1.0  0.6219299999999998  0.46228  0.69523  1.0000
  C   C14       1.0  0.4047399999999999  0.9505700000000001  0.40508  1.0000
  C   C15       1.0  0.4889  0.86907  0.42656999999999995  1.0000
  C   C16       1.0  0.54349  0.8724000000000001  0.47397  1.0000
  C   C17       1.0  0.60683  0.79474  0.49566  1.0000
  C   C18       1.0  0.61976  0.71157  0.4701999999999999  1.0000
  C   C19       1.0  0.57345  0.71  0.42178  1.0000
  C   C20       1.0  0.50803  0.78748  0.40028  1.0000
  C   C21       1.0  0.07993999999999997  0.17155  0.3891399999999999  1.0000
  C   C22       1.0  0.00072  0.24756  0.4164999999999999  1.0000
  C   C23       1.0  0.031209999999999998  0.33812  0.4028  1.0000
  C   C24       1.0  0.9564699999999998  0.40977  0.42757999999999996  1.0000
  C   C25       1.0  0.85374  0.39364  0.46764  1.0000
  C   C26       1.0  0.82567  0.30202  0.48132999999999987  1.0000
  C   C27       1.0  0.8962199999999998  0.22995  0.45578  1.0000
  C   C28       1.0  0.86465  0.03492  0.0652  1.0000
  C   C29       1.0  0.88775  0.11809  0.041639999999999996  1.0000
  C   C30       1.0  0.83767  0.12976  0.994  1.0000
  C   C31       1.0  0.7573899999999998  0.057370000000000004  0.9706  1.0000
  C   C32       1.0  0.73038  0.97344  0.99327  1.0000
  C   C33       1.0  0.7867399999999998  0.96326  0.04058  1.0000
  C   C34       1.0  0.07816  0.01076  0.26076  1.0000
  C   C35       1.0  0.02503  0.01363  0.21011  1.0000
  C   C36       1.0  0.11463999999999998  0.06859  0.17829  1.0000
  C   C37       1.0  0.06208  0.07496  0.13133  1.0000
  C   C38       1.0  0.91989  0.02604  0.11495  1.0000
  C   C39       1.0  0.8315099999999997  0.97041  0.14707  1.0000
  C   C40       1.0  0.88309  0.96445  0.19427  1.0000
  C   C41       1.0  0.09597999999999997  0.45404  0.90476  1.0000
  C   C42       1.0  0.013269999999999997  0.37197  0.92595  1.0000
  C   C43       1.0  0.95831  0.37533  0.97329  1.0000
  C   C44       1.0  0.89618  0.29769  0.9951199999999998  1.0000
  C   C45       1.0  0.88416  0.21455  0.9696899999999999  1.0000
  C   C46       1.0  0.93114  0.21265  0.92134  1.0000
  C   C47       1.0  0.9960799999999999  0.29012  0.89976  1.0000
  C   C48       1.0  0.41931  0.67584  0.8902399999999999  1.0000
  C   C49       1.0  0.49776  0.75185  0.91771  1.0000
  C   C50       1.0  0.4678  0.84237  0.90387  1.0000
  C   C51       1.0  0.54407  0.91383  0.92831  1.0000
  C   C52       1.0  0.6477  0.89757  0.96815  1.0000
  C   C53       1.0  0.67539  0.80603  0.98196  1.0000
  C   C54       1.0  0.60346  0.73406  0.9567599999999998  1.0000
  C   C55       1.0  0.13613999999999996  0.96651  0.93497  1.0000
  C   C56       1.0  0.11313  0.88332  0.95857  1.0000
  C   C57       1.0  0.16324  0.8716200000000001  0.006189999999999999  1.0000
  C   C58       1.0  0.24365999999999993  0.94398  0.02956  1.0000
  C   C59       1.0  0.27064  0.02797  0.00692  1.0000
  C   C60       1.0  0.21408  0.03821  0.95961  1.0000
  C   C61       1.0  0.9198599999999998  0.9859  0.7393199999999999  1.0000
  C   C62       1.0  0.9723499999999998  0.98502  0.79007  1.0000
  C   C63       1.0  0.88378  0.93074  0.8223999999999998  1.0000
  C   C64       1.0  0.93761  0.92557  0.8692899999999998  1.0000
  C   C65       1.0  0.07982999999999997  0.97503  0.8852299999999997  1.0000
  C   C66       1.0  0.16644  0.03051  0.85265  1.0000
  C   C67       1.0  0.11362  0.03529  0.8055  1.0000
  C   C68       1.0  0.90826  0.54785  0.09609999999999999  1.0000
  C   C69       1.0  0.99116  0.62934  0.07468  1.0000
  C   C70       1.0  0.045229999999999985  0.62575  0.02727  1.0000
  C   C71       1.0  0.10637  0.70347  0.005299999999999999  1.0000
  C   C72       1.0  0.11759  0.78678  0.03060999999999999  1.0000
  C   C73       1.0  0.07167999999999997  0.78874  0.07903  1.0000
  C   C74       1.0  0.00833  0.71113  0.10082  1.0000
  C   C75       1.0  0.5891499999999997  0.32403  0.10999  1.0000
  C   C76       1.0  0.50763  0.24861  0.08265  1.0000
  C   C77       1.0  0.53585  0.1578  0.09635  1.0000
  C   C78       1.0  0.4578599999999999  0.08678000000000001  0.07194  1.0000
  C   C79       1.0  0.3540099999999999  0.10358  0.03219  1.0000
  C   C80       1.0  0.32771  0.19538000000000003  0.01856  1.0000
  C   C81       1.0  0.4014299999999999  0.2669  0.04376  1.0000
  C   C82       1.0  0.36268  0.46519  0.4342899999999999  1.0000
  C   C83       1.0  0.38719  0.382  0.45779  1.0000
  C   C84       1.0  0.33903  0.37046  0.5056  1.0000
  C   C85       1.0  0.25954  0.44304  0.52918  1.0000
  C   C86       1.0  0.23174  0.527  0.50659  1.0000
  C   C87       1.0  0.28588  0.537  0.45911  1.0000
  C   C88       1.0  0.5717299999999997  0.48993  0.23836  1.0000
  C   C89       1.0  0.5204099999999998  0.48765  0.28921  1.0000
  C   C90       1.0  0.61169  0.43324  0.32093  1.0000
  C   C91       1.0  0.5595599999999997  0.42632000000000003  0.3679  1.0000
  C   C92       1.0  0.41657  0.47447  0.38444  1.0000
  C   C93       1.0  0.32718  0.53014  0.3525199999999999  1.0000
  C   C94       1.0  0.37809  0.53643  0.30527  1.0000
  C   C95       1.0  0.59259  0.04587  0.5961199999999998  1.0000
  C   C96       1.0  0.51082  0.12795  0.57455  1.0000
  C   C97       1.0  0.45757  0.12439  0.52706  1.0000
  C   C98       1.0  0.3968799999999999  0.20213  0.50488  1.0000
  C   C99       1.0  0.38523  0.28564  0.53003  1.0000
  C   C100      1.0  0.4311099999999999  0.28773  0.5784599999999999  1.0000
  C   C101      1.0  0.49384  0.21009999999999998  0.6004599999999998  1.0000
  C   C102      1.0  0.92016  0.8245  0.6098499999999998  1.0000
  C   C103      1.0  0.00121  0.74897  0.58257  1.0000
  C   C104      1.0  0.9709199999999998  0.65839  0.5963299999999999  1.0000
  C   C105      1.0  0.04677  0.58683  0.5717899999999998  1.0000
  C   C106      1.0  0.15017999999999995  0.60304  0.53193  1.0000
  C   C107      1.0  0.17814  0.69461  0.51816  1.0000
  C   C108      1.0  0.10674999999999997  0.76671  0.54351  1.0000
  O   O1        1.0  0.2981  0.56074  0.7738399999999998  1.0000
  O   O2        1.0  0.50903  0.46786  0.79281  1.0000
  O   O3        1.0  0.41731  0.02778  0.424  1.0000
  O   O4        1.0  0.31703  0.93478  0.3667  1.0000
  O   O5        1.0  0.21735  0.18504  0.36682  1.0000
  O   O6        1.0  0.0079  0.09294  0.38824  1.0000
  O   O7        1.0  0.2004  0.06447  0.27399  1.0000
  O   O8        1.0  0.006719999999999999  0.95963  0.2905399999999999  1.0000
  O   O9        1.0  0.08246  0.53099  0.92399  1.0000
  O   O10       1.0  0.18377999999999994  0.43906  0.86632  1.0000
  O   O11       1.0  0.2840299999999999  0.68932  0.86678  1.0000
  O   O12       1.0  0.49074  0.59707  0.89027  1.0000
  O   O13       1.0  0.79948  0.93098  0.7261  1.0000
  O   O14       1.0  0.9914899999999998  0.03664  0.70937  1.0000
  O   O15       1.0  0.91692  0.47146  0.07604  1.0000
  O   O16       1.0  0.82511  0.5624399999999999  0.13545  1.0000
  O   O17       1.0  0.72813  0.31021  0.1314  1.0000
  O   O18       1.0  0.51631  0.4025  0.11175  1.0000
  O   O19       1.0  0.7004599999999997  0.43959  0.22588  1.0000
  O   O20       1.0  0.49295  0.5366  0.20818  1.0000
  O   O21       1.0  0.58305  0.96945  0.57614  1.0000
  O   O22       1.0  0.6754299999999998  0.06026  0.63552  1.0000
  O   O23       1.0  0.7810199999999998  0.8105  0.63114  1.0000
  O   O24       1.0  0.9923099999999998  0.90303  0.6118  1.0000
