data_image0
_chemical_formula_structural       K6Zn4H62C116N2O30
_chemical_formula_sum              "K6 Zn4 H62 C116 N2 O30"
_cell_length_a       15.99686
_cell_length_b       17.59553
_cell_length_c       18.9193
_cell_angle_alpha    68.62977
_cell_angle_beta     68.27236
_cell_angle_gamma    74.36948

_space_group_name_H-M_alt    "P 1"
_space_group_IT_number       1

loop_
  _space_group_symop_operation_xyz
  'x, y, z'

loop_
  _atom_site_type_symbol
  _atom_site_label
  _atom_site_symmetry_multiplicity
  _atom_site_fract_x
  _atom_site_fract_y
  _atom_site_fract_z
  _atom_site_occupancy
  K   K1        1.0  0.20557999999999996  0.9821099999999998  0.9708200000000001  1.0000
  K   K2        1.0  0.39321000000000006  0.82868  0.8345400000000002  1.0000
  K   K3        1.0  0.6365599999999999  0.90656  0.9867200000000002  1.0000
  K   K4        1.0  0.7952500000000005  0.01853  0.02844  1.0000
  K   K5        1.0  0.6068900000000003  0.17168  0.1652  1.0000
  K   K6        1.0  0.36438  0.09344  0.01388  1.0000
  Zn  Zn1       1.0  0.40407000000000004  0.84006  0.02841  1.0000
  Zn  Zn2       1.0  0.35858000000000007  0.06372  0.75654  1.0000
  Zn  Zn3       1.0  0.5960300000000001  0.16021  0.97147  1.0000
  Zn  Zn4       1.0  0.6414200000000001  0.9359200000000001  0.24313  1.0000
  H   H1        1.0  0.94682  0.51689  0.85679  1.0000
  H   H2        1.0  0.19700000000000006  0.51228  0.89547  1.0000
  H   H3        1.0  0.9679700000000002  0.6999799999999999  0.94745  1.0000
  H   H4        1.0  0.8472499999999998  0.6507199999999999  0.7979100000000002  1.0000
  H   H5        1.0  0.68321  0.71322  0.82049  1.0000
  H   H6        1.0  0.6648099999999999  0.7116  0.05340000000000002  1.0000
  H   H7        1.0  0.8282200000000003  0.65371  0.02979  1.0000
  H   H8        1.0  0.25026000000000004  0.46952  0.7789  1.0000
  H   H9        1.0  0.32986000000000015  0.33061000000000007  0.76603  1.0000
  H   H10       1.0  0.08270999999999998  0.23060999999999998  0.91289  1.0000
  H   H11       1.0  0.0005200000000000285  0.37055  0.91558  1.0000
  H   H12       1.0  0.08724  0.7716800000000001  0.90374  1.0000
  H   H13       1.0  0.1752599999999999  0.8302  0.9479600000000002  1.0000
  H   H14       1.0  0.29714  0.58538  0.055570000000000015  1.0000
  H   H15       1.0  0.2100800000000001  0.526  0.00854  1.0000
  H   H16       1.0  0.9226400000000002  0.90705  0.67806  1.0000
  H   H17       1.0  0.17603000000000002  0.8534799999999999  0.5038  1.0000
  H   H18       1.0  0.9207000000000002  0.8889599999999999  0.4588000000000001  1.0000
  H   H19       1.0  0.81405  0.017110000000000014  0.63896  1.0000
  H   H20       1.0  0.6463800000000003  0.05791999999999993  0.6816900000000002  1.0000
  H   H21       1.0  0.61466  0.8645299999999998  0.6104900000000002  1.0000
  H   H22       1.0  0.7839500000000001  0.8266099999999998  0.56189  1.0000
  H   H23       1.0  0.00945  0.8480300000000001  0.75951  1.0000
  H   H24       1.0  0.0782500000000001  0.8977699999999996  0.83017  1.0000
  H   H25       1.0  0.27875  0.99289  0.61028  1.0000
  H   H26       1.0  0.2099  0.9466599999999998  0.53804  1.0000
  H   H27       1.0  0.21848000000000004  0.77409  0.41856  1.0000
  H   H28       1.0  0.31314000000000014  0.79259  0.27683  1.0000
  H   H29       1.0  0.11583  0.9972099999999999  0.20062  1.0000
  H   H30       1.0  0.02177000000000001  0.97406  0.34454  1.0000
  H   H31       1.0  0.48393  0.04039999999999997  0.842  1.0000
  H   H32       1.0  0.05290999999999999  0.48311  0.14359000000000005  1.0000
  H   H33       1.0  0.8029900000000002  0.48759  0.10451  1.0000
  H   H34       1.0  0.03225  0.30014  0.05252  1.0000
  H   H35       1.0  0.15278999999999993  0.34933  0.20214000000000004  1.0000
  H   H36       1.0  0.3168900000000001  0.28673  0.17949  1.0000
  H   H37       1.0  0.33515999999999996  0.28862000000000004  0.94653  1.0000
  H   H38       1.0  0.17176000000000002  0.34662  0.97016  1.0000
  H   H39       1.0  0.74924  0.53051  0.22107  1.0000
  H   H40       1.0  0.67002  0.66947  0.23435  1.0000
  H   H41       1.0  0.9170200000000001  0.76941  0.0873  1.0000
  H   H42       1.0  0.99927  0.62939  0.08448  1.0000
  H   H43       1.0  0.9125100000000005  0.22828999999999997  0.09686000000000003  1.0000
  H   H44       1.0  0.8248000000000002  0.16969000000000004  0.05243  1.0000
  H   H45       1.0  0.7041999999999999  0.4144899999999999  0.9434300000000002  1.0000
  H   H46       1.0  0.79077  0.47392999999999996  0.9909300000000001  1.0000
  H   H47       1.0  0.07739000000000004  0.09285  0.32205  1.0000
  H   H48       1.0  0.8238599999999997  0.14649  0.49616  1.0000
  H   H49       1.0  0.07907000000000002  0.11100999999999997  0.54136  1.0000
  H   H50       1.0  0.18572000000000008  0.9829299999999999  0.36111  1.0000
  H   H51       1.0  0.35341999999999996  0.9422400000000001  0.31778  1.0000
  H   H52       1.0  0.38572000000000006  0.13546000000000002  0.38873  1.0000
  H   H53       1.0  0.21641000000000019  0.17331999999999997  0.43795  1.0000
  H   H54       1.0  0.9902200000000003  0.15209  0.24053000000000002  1.0000
  H   H55       1.0  0.92158  0.10219  0.16992  1.0000
  H   H56       1.0  0.7210200000000001  0.00709999999999996  0.3898300000000001  1.0000
  H   H57       1.0  0.78985  0.05342000000000001  0.462  1.0000
  H   H58       1.0  0.7809500000000001  0.22583  0.58152  1.0000
  H   H59       1.0  0.6865900000000001  0.20739  0.7233  1.0000
  H   H60       1.0  0.8842500000000004  0.0031300000000000004  0.79933  1.0000
  H   H61       1.0  0.9778699999999999  0.026020000000000015  0.65536  1.0000
  H   H62       1.0  0.51552  0.9601299999999999  0.15802  1.0000
  C   C1        1.0  0.9473800000000003  0.6134899999999998  0.9014000000000002  1.0000
  C   C2        1.0  0.9873100000000004  0.54405  0.8738  1.0000
  C   C3        1.0  0.07772999999999997  0.50769  0.8708  1.0000
  C   C4        1.0  0.12781000000000006  0.5418299999999999  0.89579  1.0000
  C   C5        1.0  0.08970000000000003  0.61135  0.9232000000000001  1.0000
  C   C6        1.0  0.9995000000000002  0.64698  0.92494  1.0000
  C   C7        1.0  0.8498400000000003  0.64861  0.9119800000000002  1.0000
  C   C8        1.0  0.8073199999999999  0.66401  0.85389  1.0000
  C   C9        1.0  0.71559  0.69897  0.86623  1.0000
  C   C10       1.0  0.66378  0.7180800000000002  0.93753  1.0000
  C   C11       1.0  0.7052999999999997  0.7001300000000001  0.99668  1.0000
  C   C12       1.0  0.79705  0.6669599999999999  0.98363  1.0000
  C   C13       1.0  0.12036000000000004  0.4296599999999998  0.85022  1.0000
  C   C14       1.0  0.21319  0.41731  0.80691  1.0000
  C   C15       1.0  0.25828  0.33929999999999993  0.80038  1.0000
  C   C16       1.0  0.21245999999999998  0.27076  0.84096  1.0000
  C   C17       1.0  0.11897000000000003  0.28322  0.88124  1.0000
  C   C18       1.0  0.07275000000000002  0.36218999999999996  0.8831800000000001  1.0000
  C   C19       1.0  0.14198999999999998  0.6447700000000001  0.95233  1.0000
  C   C20       1.0  0.1320599999999999  0.7304500000000002  0.9379600000000001  1.0000
  C   C21       1.0  0.18155000000000007  0.7634599999999998  0.96367  1.0000
  C   C22       1.0  0.24188999999999997  0.71152  0.00606  1.0000
  C   C23       1.0  0.25084000000000006  0.6255699999999997  0.022250000000000006  1.0000
  C   C24       1.0  0.20223999999999998  0.59274  0.9953200000000001  1.0000
  C   C25       1.0  0.26343999999999995  0.18494  0.84339  1.0000
  C   C26       1.0  0.56674  0.7597799999999999  0.95011  1.0000
  C   C27       1.0  0.30039999999999994  0.74569  0.02981  1.0000
  C   C28       1.0  0.9110000000000004  0.8963799999999998  0.57267  1.0000
  C   C29       1.0  0.9600799999999999  0.89408  0.62159  1.0000
  C   C30       1.0  0.05576999999999991  0.87952  0.5973900000000002  1.0000
  C   C31       1.0  0.10199000000000007  0.8630199999999999  0.52434  1.0000
  C   C32       1.0  0.05467000000000007  0.86624  0.47312  1.0000
  C   C33       1.0  0.9585600000000001  0.88352  0.49826  1.0000
  C   C34       1.0  0.8107500000000002  0.9183899999999999  0.59831  1.0000
  C   C35       1.0  0.7707399999999998  0.9832  0.63285  1.0000
  C   C36       1.0  0.67668  0.0064699999999999775  0.65673  1.0000
  C   C37       1.0  0.62006  0.9632000000000001  0.64924  1.0000
  C   C38       1.0  0.6594200000000003  0.89805  0.61529  1.0000
  C   C39       1.0  0.7538100000000004  0.8768399999999998  0.58863  1.0000
  C   C40       1.0  0.10417000000000004  0.89437  0.64326  1.0000
  C   C41       1.0  0.06837000000000015  0.8798300000000001  0.72645  1.0000
  C   C42       1.0  0.10695999999999999  0.90675  0.76637  1.0000
  C   C43       1.0  0.18237999999999985  0.94843  0.7247300000000002  1.0000
  C   C44       1.0  0.2203600000000001  0.9604499999999999  0.64243  1.0000
  C   C45       1.0  0.18200999999999995  0.9335000000000001  0.60241  1.0000
  C   C46       1.0  0.10516  0.8634400000000001  0.39225  1.0000
  C   C47       1.0  0.19209000000000018  0.8189899999999999  0.3713300000000001  1.0000
  C   C48       1.0  0.24751  0.83114  0.29218  1.0000
  C   C49       1.0  0.22079  0.89826  0.23043  1.0000
  C   C50       1.0  0.13664999999999994  0.9456899999999999  0.24721999999999997  1.0000
  C   C51       1.0  0.06460000000000003  0.9196  0.32634  1.0000
  C   C52       1.0  0.5187599999999999  0.98271  0.6815900000000003  1.0000
  C   C53       1.0  0.22108000000000008  0.9807899999999999  0.76711  1.0000
  C   C54       1.0  0.2817  0.91518  0.14589  1.0000
  C   C55       1.0  0.44212  0.99176  0.88328  1.0000
  C   C56       1.0  0.94363  0.88315  0.1439  1.0000
  C   C57       1.0  0.006999999999999973  0.88412  0.30452  1.0000
  C   C58       1.0  0.9751899999999999  0.87098  0.26146000000000014  1.0000
  C   C59       1.0  0.05263999999999997  0.38661  0.09872000000000003  1.0000
  C   C60       1.0  0.012549999999999976  0.45596  0.12644000000000005  1.0000
  C   C61       1.0  0.9221200000000004  0.49230000000000007  0.12935000000000005  1.0000
  C   C62       1.0  0.8721700000000003  0.4580999999999999  0.10429  1.0000
  C   C63       1.0  0.9104100000000002  0.38861  0.07686  1.0000
  C   C64       1.0  0.0006300000000000176  0.35309999999999997  0.07508  1.0000
  C   C65       1.0  0.15019999999999997  0.35152  0.08808  1.0000
  C   C66       1.0  0.19275  0.336  0.14617  1.0000
  C   C67       1.0  0.2845  0.30105  0.13375  1.0000
  C   C68       1.0  0.33635  0.28215  0.06232000000000001  1.0000
  C   C69       1.0  0.29470000000000013  0.3001  0.00325  1.0000
  C   C70       1.0  0.20293000000000003  0.33325  0.016380000000000006  1.0000
  C   C71       1.0  0.8793800000000002  0.5703  0.14997  1.0000
  C   C72       1.0  0.7865300000000004  0.58259  0.19335  1.0000
  C   C73       1.0  0.7416  0.66057  0.20009000000000005  1.0000
  C   C74       1.0  0.78748  0.72906  0.15951  1.0000
  C   C75       1.0  0.88093  0.71669  0.11908000000000003  1.0000
  C   C76       1.0  0.92709  0.63773  0.11706  1.0000
  C   C77       1.0  0.8583300000000003  0.35516  0.04759  1.0000
  C   C78       1.0  0.86805  0.26946  0.06225  1.0000
  C   C79       1.0  0.8187100000000003  0.23643999999999998  0.03641  1.0000
  C   C80       1.0  0.7588200000000004  0.28840999999999994  0.9935500000000002  1.0000
  C   C81       1.0  0.75014  0.37435  0.9771  1.0000
  C   C82       1.0  0.7985100000000003  0.4071999999999999  0.00421  1.0000
  C   C83       1.0  0.73662  0.8148499999999997  0.15675  1.0000
  C   C84       1.0  0.43351000000000023  0.24071  0.04955  1.0000
  C   C85       1.0  0.7000699999999999  0.2543500000000001  0.96989  1.0000
  C   C86       1.0  0.08894000000000002  0.10358  0.42744  1.0000
  C   C87       1.0  0.03987999999999999  0.10588000000000002  0.37848  1.0000
  C   C88       1.0  0.9441800000000004  0.12039999999999998  0.4026200000000001  1.0000
  C   C89       1.0  0.8979  0.13695  0.47563  1.0000
  C   C90       1.0  0.9451500000000004  0.13380000000000003  0.52687  1.0000
  C   C91       1.0  0.04129000000000001  0.11646999999999999  0.50183  1.0000
  C   C92       1.0  0.18923  0.08155999999999997  0.4017400000000001  1.0000
  C   C93       1.0  0.22912000000000007  0.016800000000000002  0.36711  1.0000
  C   C94       1.0  0.3231600000000002  0.9936399999999999  0.34282  1.0000
  C   C95       1.0  0.37988  0.03705999999999999  0.34998  1.0000
  C   C96       1.0  0.3407299999999999  0.10200999999999999  0.38416000000000006  1.0000
  C   C97       1.0  0.24636000000000002  0.12309999999999999  0.41121  1.0000
  C   C98       1.0  0.89573  0.10554  0.35681  1.0000
  C   C99       1.0  0.9314300000000003  0.12011  0.27363  1.0000
  C   C100      1.0  0.89287  0.09313000000000002  0.23372  1.0000
  C   C101      1.0  0.81746  0.05141  0.27534  1.0000
  C   C102      1.0  0.7794800000000001  0.03944999999999999  0.35764  1.0000
  C   C103      1.0  0.8178600000000005  0.06644  0.39764  1.0000
  C   C104      1.0  0.89454  0.13665999999999998  0.60771  1.0000
  C   C105      1.0  0.8075100000000001  0.18098999999999998  0.62869  1.0000
  C   C106      1.0  0.7521899999999999  0.16885000000000003  0.70787  1.0000
  C   C107      1.0  0.7791300000000001  0.10182000000000002  0.76957  1.0000
  C   C108      1.0  0.8633100000000001  0.054509999999999975  0.75272  1.0000
  C   C109      1.0  0.9352300000000003  0.08053999999999997  0.67356  1.0000
  C   C110      1.0  0.48111  0.01759999999999998  0.31753000000000003  1.0000
  C   C111      1.0  0.7787700000000002  0.0191  0.23285  1.0000
  C   C112      1.0  0.7184300000000001  0.08475999999999992  0.85414  1.0000
  C   C113      1.0  0.5575300000000002  0.008600000000000002  0.11672  1.0000
  C   C114      1.0  0.056400000000000006  0.11772000000000003  0.85622  1.0000
  C   C115      1.0  0.9930300000000004  0.11583  0.69537  1.0000
  C   C116      1.0  0.024720000000000002  0.12852999999999992  0.7388000000000001  1.0000
  N   N1        1.0  0.9430900000000003  0.8576699999999999  0.21277000000000004  1.0000
  N   N2        1.0  0.056790000000000077  0.14174  0.78749  1.0000
  O   O1        1.0  0.5245200000000004  0.76877  0.9029  1.0000
  O   O2        1.0  0.5327400000000002  0.7876999999999997  0.0121  1.0000
  O   O3        1.0  0.26242999999999994  0.13238999999999992  0.9103400000000003  1.0000
  O   O4        1.0  0.30510999999999994  0.17248  0.7749  1.0000
  O   O5        1.0  0.30424000000000007  0.8258000000000001  0.99626  1.0000
  O   O6        1.0  0.34594  0.70094  0.07502  1.0000
  O   O7        1.0  0.4871099999999998  0.055790000000000006  0.69154  1.0000
  O   O8        1.0  0.47075000000000017  0.9283999999999999  0.70007  1.0000
  O   O9        1.0  0.20087000000000016  0.9550399999999999  0.84225  1.0000
  O   O10       1.0  0.2749300000000001  0.03423999999999999  0.72123  1.0000
  O   O11       1.0  0.25816000000000006  0.9772199999999999  0.09263  1.0000
  O   O12       1.0  0.35508000000000023  0.86234  0.13264  1.0000
  O   O13       1.0  0.3832099999999999  0.97786  0.8610100000000003  1.0000
  O   O14       1.0  0.45602  0.95457  0.95042  1.0000
  O   O15       1.0  0.94131  0.90182  0.07751  1.0000
  O   O16       1.0  0.47546000000000005  0.23133  0.09709  1.0000
  O   O17       1.0  0.4678500000000002  0.21340999999999996  0.98715  1.0000
  O   O18       1.0  0.7416600000000004  0.8681799999999998  0.08956  1.0000
  O   O19       1.0  0.6905000000000003  0.8264899999999998  0.22506000000000007  1.0000
  O   O20       1.0  0.6959100000000003  0.17431999999999997  0.003690000000000001  1.0000
  O   O21       1.0  0.6545300000000004  0.29905  0.92465  1.0000
  O   O22       1.0  0.5125299999999999  0.9446200000000002  0.30736  1.0000
  O   O23       1.0  0.5292300000000002  0.07166999999999996  0.29960000000000003  1.0000
  O   O24       1.0  0.7990100000000002  0.044989999999999995  0.15772  1.0000
  O   O25       1.0  0.7249500000000002  0.96555  0.27861000000000014  1.0000
  O   O26       1.0  0.7420799999999999  0.022750000000000013  0.90736  1.0000
  O   O27       1.0  0.64499  0.13746999999999995  0.8675000000000003  1.0000
  O   O28       1.0  0.6165500000000003  0.022459999999999997  0.13885  1.0000
  O   O29       1.0  0.5438000000000002  0.04564000000000001  0.04948  1.0000
  O   O30       1.0  0.05880999999999994  0.10033999999999994  0.9224800000000002  1.0000
