data_image0
_chemical_formula_structural       Cr3Ga9P12H78C24N18O48
_chemical_formula_sum              "Cr3 Ga9 P12 H78 C24 N18 O48"
_cell_length_a       13.48545
_cell_length_b       14.265249999999998
_cell_length_c       14.26605
_cell_angle_alpha    110.55603
_cell_angle_beta     108.40333
_cell_angle_gamma    108.38312

_symmetry_space_group_name_H-M    'P 1'
_symmetry_Int_Tables_number       1

loop_
  _symmetry_equiv_pos_as_xyz
  'x,y,z'

loop_
  _atom_site_type_symbol
  _atom_site_label
  _atom_site_symmetry_multiplicity
  _atom_site_fract_x
  _atom_site_fract_y
  _atom_site_fract_z
  _atom_site_occupancy
  Cr  Cr1       1.0  0.26745  0.45655  0.58719  1.0000
  Cr  Cr2       1.0  0.6800299999999999  0.41284999999999994  0.8692699999999999  1.0000
  Cr  Cr3       1.0  0.81017  0.13077  0.54289  1.0000
  Ga  Ga1       1.0  0.4792799999999999  0.62112  0.45370999999999995  1.0000
  Ga  Ga2       1.0  0.31927  0.58703  0.12953  1.0000
  Ga  Ga3       1.0  0.02464  0.5461  0.16714  1.0000
  Ga  Ga4       1.0  0.18942  0.87015  0.4574799999999999  1.0000
  Ga  Ga5       1.0  0.8585099999999996  0.83264  0.37873999999999997  1.0000
  Ga  Ga6       1.0  0.7309399999999998  0.54273  0.41301999999999994  1.0000
  Ga  Ga7       1.0  0.51996  0.37439000000000006  0.54544  1.0000
  Ga  Ga8       1.0  0.97552  0.45481  0.82876  1.0000
  Ga  Ga9       1.0  0.14567  0.17131  0.62563  1.0000
  P   P1        1.0  0.54045  0.6050700000000002  0.66139  1.0000
  P   P2        1.0  0.60281  0.66691  0.31179  1.0000
  P   P3        1.0  0.87908  0.33898  0.94354  1.0000
  P   P4        1.0  0.29022  0.68779  0.35465  1.0000
  P   P5        1.0  0.93477  0.05615  0.39461  1.0000
  P   P6        1.0  0.93583  0.64498  0.33341  1.0000
  P   P7        1.0  0.45671999999999996  0.39166000000000006  0.339  1.0000
  P   P8        1.0  0.3998799999999999  0.33224999999999993  0.68894  1.0000
  P   P9        1.0  0.11905999999999999  0.66118  0.05233  1.0000
  P   P10       1.0  0.7107  0.31112000000000006  0.64325  1.0000
  P   P11       1.0  0.06613000000000002  0.94769  0.60848  1.0000
  P   P12       1.0  0.06703999999999993  0.35659  0.66667  1.0000
  H   H1        1.0  0.41833999999999993  0.65786  0.76377  1.0000
  H   H2        1.0  0.28862  0.60881  0.76882  1.0000
  H   H3        1.0  0.2425  0.54673  0.45917  1.0000
  H   H4        1.0  0.13759999999999997  0.24110000000000004  0.4324299999999999  1.0000
  H   H5        1.0  0.25690999999999997  0.29418  0.41666  1.0000
  H   H6        1.0  0.35378999999999994  0.7219000000000002  0.64582  1.0000
  H   H7        1.0  0.27745999999999993  0.7504  0.7252999999999998  1.0000
  H   H8        1.0  0.1353  0.64167  0.51185  1.0000
  H   H9        1.0  0.09937999999999998  0.55788  0.57628  1.0000
  H   H10       1.0  0.03488000000000004  0.4259600000000001  0.31843  1.0000
  H   H11       1.0  0.01649000000000002  0.36971  0.41006  1.0000
  H   H12       1.0  0.04519999999999999  0.23972  0.26472  1.0000
  H   H13       1.0  0.18056  0.35647  0.30429  1.0000
  H   H14       1.0  0.6543899999999998  0.23654000000000003  0.89414  1.0000
  H   H15       1.0  0.51943  0.23105000000000006  0.83994  1.0000
  H   H16       1.0  0.7831399999999997  0.54082  0.08752  1.0000
  H   H17       1.0  0.70612  0.56832  0.80918  1.0000
  H   H18       1.0  0.8409699999999998  0.5837499999999999  0.8784199999999999  1.0000
  H   H19       1.0  0.7077399999999998  0.35437  0.07617  1.0000
  H   H20       1.0  0.55182  0.27487  0.025  1.0000
  H   H21       1.0  0.62319  0.4882  0.12969  1.0000
  H   H22       1.0  0.5227899999999998  0.42364999999999997  0.9813699999999999  1.0000
  H   H23       1.0  0.7162599999999999  0.68159  0.10755  1.0000
  H   H24       1.0  0.60663  0.59007  0.95941  1.0000
  H   H25       1.0  0.78108  0.73559  0.97572  1.0000
  H   H26       1.0  0.8767699999999998  0.6961800000000002  0.05302999999999999  1.0000
  H   H27       1.0  0.7595799999999998  0.10571999999999997  0.34164999999999995  1.0000
  H   H28       1.0  0.67868  0.15974999999999998  0.39015999999999995  1.0000
  H   H29       1.0  0.69547  0.9126700000000002  0.4528399999999999  1.0000
  H   H30       1.0  0.89622  0.19131  0.75841  1.0000
  H   H31       1.0  0.9623999999999999  0.12256  0.70515  1.0000
  H   H32       1.0  0.63133  0.9238  0.27772  1.0000
  H   H33       1.0  0.52612  0.97434  0.24882  1.0000
  H   H34       1.0  0.4928599999999999  0.86986  0.35757  1.0000
  H   H35       1.0  0.54067  0.018149999999999996  0.44143  1.0000
  H   H36       1.0  0.6084399999999998  0.89246  0.57347  1.0000
  H   H37       1.0  0.6466899999999998  0.040530000000000004  0.62994  1.0000
  H   H38       1.0  0.8054099999999997  0.024820000000000043  0.75951  1.0000
  H   H39       1.0  0.8238299999999998  0.9477300000000001  0.64267  1.0000
  H   H40       1.0  0.58179  0.3432800000000001  0.23766  1.0000
  H   H41       1.0  0.7107500000000001  0.39332  0.23104  1.0000
  H   H42       1.0  0.7614599999999998  0.45281  0.54385  1.0000
  H   H43       1.0  0.86055  0.7593400000000001  0.5652  1.0000
  H   H44       1.0  0.74128  0.70367  0.58032  1.0000
  H   H45       1.0  0.6476799999999998  0.27721  0.35223  1.0000
  H   H46       1.0  0.72573  0.25241  0.27377  1.0000
  H   H47       1.0  0.86451  0.35645999999999994  0.48617999999999995  1.0000
  H   H48       1.0  0.9029999999999998  0.44338  0.42527  1.0000
  H   H49       1.0  0.96758  0.5782  0.68385  1.0000
  H   H50       1.0  0.98431  0.63002  0.58882  1.0000
  H   H51       1.0  0.9561399999999998  0.76223  0.73194  1.0000
  H   H52       1.0  0.8218599999999998  0.64668  0.6962  1.0000
  H   H53       1.0  0.3448499999999999  0.76185  0.10492  1.0000
  H   H54       1.0  0.48078000000000004  0.7692300000000002  0.16141  1.0000
  H   H55       1.0  0.21811999999999993  0.45608000000000004  0.9084  1.0000
  H   H56       1.0  0.29458  0.43431  0.19332  1.0000
  H   H57       1.0  0.16079000000000002  0.4201900000000001  0.12195  1.0000
  H   H58       1.0  0.2961  0.6475  0.92428  1.0000
  H   H59       1.0  0.4527199999999999  0.7259299999999999  0.9780099999999999  1.0000
  H   H60       1.0  0.3792399999999999  0.51373  0.8696699999999999  1.0000
  H   H61       1.0  0.47839  0.57475  0.01766  1.0000
  H   H62       1.0  0.28418  0.31559999999999994  0.89394  1.0000
  H   H63       1.0  0.39566  0.41105  0.04108  1.0000
  H   H64       1.0  0.22394999999999995  0.2681  0.029599999999999998  1.0000
  H   H65       1.0  0.12543  0.30347  0.94942  1.0000
  H   H66       1.0  0.23921999999999993  0.89497  0.65694  1.0000
  H   H67       1.0  0.31878999999999996  0.8384600000000002  0.60802  1.0000
  H   H68       1.0  0.3092099999999999  0.09122000000000002  0.54805  1.0000
  H   H69       1.0  0.10200000000000008  0.8063600000000001  0.24095  1.0000
  H   H70       1.0  0.038410000000000034  0.8766600000000001  0.2971  1.0000
  H   H71       1.0  0.37160999999999983  0.07568999999999995  0.7238  1.0000
  H   H72       1.0  0.47432  0.02184  0.74842  1.0000
  H   H73       1.0  0.5093599999999999  0.13040000000000004  0.64466  1.0000
  H   H74       1.0  0.46061  0.9824000000000002  0.55768  1.0000
  H   H75       1.0  0.39034999999999986  0.10597999999999996  0.42252999999999996  1.0000
  H   H76       1.0  0.3545899999999999  0.95888  0.37068  1.0000
  H   H77       1.0  0.1946300000000001  0.97033  0.23885  1.0000
  H   H78       1.0  0.17561  0.04983  0.3542  1.0000
  C   C1        1.0  0.2852299999999999  0.68261  0.66603  1.0000
  C   C2        1.0  0.16667  0.59934  0.55639  1.0000
  C   C3        1.0  0.07825000000000004  0.4057800000000001  0.38221  1.0000
  C   C4        1.0  0.12109999999999999  0.3223  0.33519  1.0000
  C   C5        1.0  0.6189599999999998  0.33415  0.01656  1.0000
  C   C6        1.0  0.61002  0.44366  0.04283  1.0000
  C   C7        1.0  0.6961199999999997  0.61789  0.02367  1.0000
  C   C8        1.0  0.7863799999999997  0.6651  0.98769  1.0000
  C   C9        1.0  0.60179  0.9831300000000002  0.31679  1.0000
  C   C10       1.0  0.5665399999999999  0.95682  0.4  1.0000
  C   C11       1.0  0.6720699999999998  0.97641  0.59366  1.0000
  C   C12       1.0  0.7985399999999998  0.012790000000000013  0.67696  1.0000
  C   C13       1.0  0.7163299999999998  0.31851000000000007  0.33312  1.0000
  C   C14       1.0  0.8349099999999998  0.40114  0.44397  1.0000
  C   C15       1.0  0.9229999999999997  0.59501  0.61756  1.0000
  C   C16       1.0  0.8797499999999998  0.67918  0.6632  1.0000
  C   C17       1.0  0.38387  0.66654  0.98467  1.0000
  C   C18       1.0  0.39154999999999984  0.55578  0.9564799999999999  1.0000
  C   C19       1.0  0.30568999999999985  0.3821699999999999  0.9768399999999999  1.0000
  C   C20       1.0  0.21641999999999995  0.3367  0.0151  1.0000
  C   C21       1.0  0.39889999999999987  0.015300000000000018  0.68236  1.0000
  C   C22       1.0  0.43487  0.04351000000000005  0.59983  1.0000
  C   C23       1.0  0.32878  0.02302  0.40586  1.0000
  C   C24       1.0  0.20126999999999998  0.98453  0.32178  1.0000
  N   N1        1.0  0.32560999999999996  0.6189299999999999  0.7183699999999998  1.0000
  N   N2        1.0  0.18496  0.50946  0.48441  1.0000
  N   N3        1.0  0.19129999999999997  0.30915  0.42977999999999994  1.0000
  N   N4        1.0  0.60696  0.28176  0.90053  1.0000
  N   N5        1.0  0.70035  0.51566  0.025  1.0000
  N   N6        1.0  0.7620399999999998  0.57064  0.87988  1.0000
  N   N7        1.0  0.70575  0.09931999999999998  0.38044999999999995  1.0000
  N   N8        1.0  0.67487  0.97493  0.49001  1.0000
  N   N9        1.0  0.8817999999999996  0.12066  0.69025  1.0000
  N   N10       1.0  0.6746399999999998  0.38178000000000006  0.28165  1.0000
  N   N11       1.0  0.8173999999999998  0.49003  0.51738  1.0000
  N   N12       1.0  0.8082699999999999  0.69084  0.56839  1.0000
  N   N13       1.0  0.3939099999999999  0.71812  0.09952  1.0000
  N   N14       1.0  0.3005900000000001  0.48232000000000014  0.9719  1.0000
  N   N15       1.0  0.23988  0.4316100000000001  0.12156999999999998  1.0000
  N   N16       1.0  0.29394  0.9004  0.61888  1.0000
  N   N17       1.0  0.3283999999999999  0.027910000000000008  0.51083  1.0000
  N   N18       1.0  0.11827999999999995  0.87777  0.30978  1.0000
  O   O1        1.0  0.40634  0.52006  0.56889  1.0000
  O   O2        1.0  0.58602  0.67648  0.60529  1.0000
  O   O3        1.0  0.6048799999999998  0.52779  0.66067  1.0000
  O   O4        1.0  0.56568  0.67884  0.7799199999999998  1.0000
  O   O5        1.0  0.58682  0.70772  0.42088  1.0000
  O   O6        1.0  0.6929799999999999  0.7806  0.32591  1.0000
  O   O7        1.0  0.48717000000000005  0.6068800000000002  0.2004  1.0000
  O   O8        1.0  0.65989  0.58834  0.3083  1.0000
  O   O9        1.0  0.8376  0.43160000000000004  0.95199  1.0000
  O   O10       1.0  0.9813399999999998  0.39493000000000006  0.07083  1.0000
  O   O11       1.0  0.9438999999999997  0.3396500000000001  0.86671  1.0000
  O   O12       1.0  0.7854499999999998  0.22039  0.8984399999999999  1.0000
  O   O13       1.0  0.16492000000000004  0.57898  0.28705  1.0000
  O   O14       1.0  0.3667199999999999  0.67389  0.45423  1.0000
  O   O15       1.0  0.28645999999999994  0.79932  0.40646  1.0000
  O   O16       1.0  0.35008999999999996  0.69094  0.27899  1.0000
  O   O17       1.0  0.8850999999999997  0.04830999999999994  0.47904999999999986  1.0000
  O   O18       1.0  0.9101199999999999  0.9289900000000002  0.3237  1.0000
  O   O19       1.0  0.07649999999999996  0.13328000000000007  0.47236  1.0000
  O   O20       1.0  0.88592  0.10044000000000003  0.32043  1.0000
  O   O21       1.0  0.87965  0.7134600000000002  0.29214  1.0000
  O   O22       1.0  0.9117099999999998  0.54498  0.21949  1.0000
  O   O23       1.0  0.87974  0.59358  0.39297  1.0000
  O   O24       1.0  0.07157  0.72  0.41228  1.0000
  O   O25       1.0  0.5896099999999997  0.47873  0.43228  1.0000
  O   O26       1.0  0.41053  0.31981  0.39447  1.0000
  O   O27       1.0  0.3904699999999999  0.46754  0.33796  1.0000
  O   O28       1.0  0.43445  0.31875  0.2214  1.0000
  O   O29       1.0  0.4145699999999999  0.28739  0.57948  1.0000
  O   O30       1.0  0.3105599999999999  0.22029999999999997  0.67832  1.0000
  O   O31       1.0  0.51693  0.39355  0.7999  1.0000
  O   O32       1.0  0.3435999999999999  0.41071  0.69112  1.0000
  O   O33       1.0  0.15892  0.5681  0.04502  1.0000
  O   O34       1.0  0.016719999999999964  0.60558  0.92506  1.0000
  O   O35       1.0  0.05462999999999999  0.66212  0.12989  1.0000
  O   O36       1.0  0.21411999999999998  0.7790600000000001  0.09717  1.0000
  O   O37       1.0  0.83497  0.42065  0.70811  1.0000
  O   O38       1.0  0.6318899999999998  0.32157  0.54178  1.0000
  O   O39       1.0  0.71664  0.20014  0.5935  1.0000
  O   O40       1.0  0.65217  0.30889  0.71949  1.0000
  O   O41       1.0  0.11268999999999998  0.95412  0.52212  1.0000
  O   O42       1.0  0.09123999999999999  0.07494  0.68012  1.0000
  O   O43       1.0  0.9239999999999999  0.8704  0.53212  1.0000
  O   O44       1.0  0.11616000000000004  0.9028700000000002  0.68153  1.0000
  O   O45       1.0  0.12587999999999994  0.29174  0.71195  1.0000
  O   O46       1.0  0.09000000000000001  0.45846  0.77833  1.0000
  O   O47       1.0  0.12346999999999994  0.40618  0.60587  1.0000
  O   O48       1.0  0.9321699999999996  0.28033  0.58787  1.0000
