data_image0
_chemical_formula_structural       Cd4H68C92N12O28
_chemical_formula_sum              "Cd4 H68 C92 N12 O28"
_cell_length_a       13.79
_cell_length_b       15.592089999999999
_cell_length_c       17.47828
_cell_angle_alpha    93.1617
_cell_angle_beta     90.03755
_cell_angle_gamma    89.66939

_symmetry_space_group_name_H-M    'P 1'
_symmetry_Int_Tables_number       1

loop_
  _symmetry_equiv_pos_as_xyz
  'x,y,z'

loop_
  _atom_site_type_symbol
  _atom_site_label
  _atom_site_symmetry_multiplicity
  _atom_site_fract_x
  _atom_site_fract_y
  _atom_site_fract_z
  _atom_site_occupancy
  Cd  Cd1       1.0  0.8372200000000002  0.4942  0.50268  1.0000
  Cd  Cd2       1.0  0.86975  0.9211199999999998  0.17109  1.0000
  Cd  Cd3       1.0  0.33655000000000007  0.50803  0.49540999999999996  1.0000
  Cd  Cd4       1.0  0.36977  0.07972  0.82733  1.0000
  H   H1        1.0  0.024680000000000007  0.40726  0.44379999999999986  1.0000
  H   H2        1.0  0.9025900000000002  0.7286  0.6182099999999999  1.0000
  H   H3        1.0  0.23412000000000005  0.22567999999999996  0.35282  1.0000
  H   H4        1.0  0.8019200000000002  0.82678  0.5332899999999998  1.0000
  H   H5        1.0  0.9240400000000002  0.84931  0.51453  1.0000
  H   H6        1.0  0.9401700000000002  0.71179  0.18666  1.0000
  H   H7        1.0  0.8956500000000002  0.47169  0.32651  1.0000
  H   H8        1.0  0.99677  0.7281099999999998  0.31128  1.0000
  H   H9        1.0  0.8925700000000002  0.56236  0.68394  1.0000
  H   H10       1.0  0.9417200000000002  0.68108  0.04817  1.0000
  H   H11       1.0  0.9869600000000002  0.4110999999999999  0.08295  1.0000
  H   H12       1.0  0.91808  0.30981999999999993  0.58518  1.0000
  H   H13       1.0  0.9900700000000002  0.44317  0.2227  1.0000
  H   H14       1.0  0.95438  0.30695999999999996  0.74178  1.0000
  H   H15       1.0  0.9598400000000002  0.97181  0.696  1.0000
  H   H16       1.0  0.8377100000000002  0.95295  0.72571  1.0000
  H   H17       1.0  0.15591000000000002  0.9209  0.31102  1.0000
  H   H18       1.0  0.9492800000000002  0.69774  0.46214999999999995  1.0000
  H   H19       1.0  0.10315  0.99403  0.9797499999999999  1.0000
  H   H20       1.0  0.9368000000000001  0.1489  0.37747999999999987  1.0000
  H   H21       1.0  0.08723000000000003  0.91008  0.74275  1.0000
  H   H22       1.0  0.9012000000000002  0.7954899999999999  0.9096299999999998  1.0000
  H   H23       1.0  0.82713  0.56842  0.8122399999999997  1.0000
  H   H24       1.0  0.05601000000000001  0.38175  0.8340299999999999  1.0000
  H   H25       1.0  0.8982200000000002  0.99186  0.57016  1.0000
  H   H26       1.0  0.7804400000000002  0.96388  0.6004599999999999  1.0000
  H   H27       1.0  0.07067000000000002  0.4246299999999999  0.97179  1.0000
  H   H28       1.0  0.13441  0.82657  0.41452  1.0000
  H   H29       1.0  0.008830000000000001  0.8487799999999998  0.41466999999999987  1.0000
  H   H30       1.0  0.8445400000000002  0.61324  0.94955  1.0000
  H   H31       1.0  0.9716100000000002  0.026919999999999996  0.45445  1.0000
  H   H32       1.0  0.07633000000000002  0.08511  0.48612999999999995  1.0000
  H   H33       1.0  0.16936  0.95109  0.49888  1.0000
  H   H34       1.0  0.055750000000000015  0.92326  0.53572  1.0000
  H   H35       1.0  0.52309  0.59612  0.55392  1.0000
  H   H36       1.0  0.40236000000000005  0.27128  0.3823  1.0000
  H   H37       1.0  0.73232  0.77462  0.64746  1.0000
  H   H38       1.0  0.30426  0.17403  0.46910999999999997  1.0000
  H   H39       1.0  0.4270400000000001  0.1501  0.48539  1.0000
  H   H40       1.0  0.43948000000000004  0.28972  0.8104999999999999  1.0000
  H   H41       1.0  0.39507000000000003  0.5309799999999998  0.67168  1.0000
  H   H42       1.0  0.4971100000000001  0.27371  0.6862  1.0000
  H   H43       1.0  0.3927500000000001  0.43803  0.3147399999999999  1.0000
  H   H44       1.0  0.44138  0.31933999999999996  0.9491599999999999  1.0000
  H   H45       1.0  0.4867500000000001  0.58921  0.9158599999999998  1.0000
  H   H46       1.0  0.41598  0.69091  0.4125099999999999  1.0000
  H   H47       1.0  0.48920000000000013  0.55817  0.776  1.0000
  H   H48       1.0  0.4528800000000001  0.6928  0.25595  1.0000
  H   H49       1.0  0.4579200000000001  0.027579999999999993  0.30372999999999994  1.0000
  H   H50       1.0  0.33494  0.04745  0.27576  1.0000
  H   H51       1.0  0.65605  0.08131  0.68898  1.0000
  H   H52       1.0  0.44994  0.3055  0.53507  1.0000
  H   H53       1.0  0.6016900000000002  0.00728  0.019409999999999993  1.0000
  H   H54       1.0  0.4357700000000001  0.85543  0.61965  1.0000
  H   H55       1.0  0.5836  0.08909  0.25689  1.0000
  H   H56       1.0  0.3956000000000001  0.20407999999999998  0.09044999999999999  1.0000
  H   H57       1.0  0.32787  0.43179  0.18590999999999996  1.0000
  H   H58       1.0  0.5556900000000001  0.6171199999999998  0.16458999999999993  1.0000
  H   H59       1.0  0.39927  0.0079  0.4303  1.0000
  H   H60       1.0  0.28072000000000014  0.0374  0.4019  1.0000
  H   H61       1.0  0.5707  0.5744099999999998  0.026799999999999994  1.0000
  H   H62       1.0  0.6351100000000002  0.17576999999999995  0.58519  1.0000
  H   H63       1.0  0.50968  0.15376  0.58392  1.0000
  H   H64       1.0  0.34548  0.38717  0.04855  1.0000
  H   H65       1.0  0.47498  0.97569  0.54335  1.0000
  H   H66       1.0  0.5808700000000002  0.91756  0.5125799999999999  1.0000
  H   H67       1.0  0.6725600000000002  0.05119  0.50125  1.0000
  H   H68       1.0  0.55951  0.07946  0.46301  1.0000
  C   C1        1.0  0.96844  0.28121  0.40997  1.0000
  C   C2        1.0  0.04148  0.34268  0.4208699999999999  1.0000
  C   C3        1.0  0.8988700000000002  0.7985399999999998  0.622  1.0000
  C   C4        1.0  0.08947  0.17711  0.3637699999999999  1.0000
  C   C5        1.0  0.21671000000000007  0.3839499999999999  0.42741  1.0000
  C   C6        1.0  0.16067  0.24043  0.37156  1.0000
  C   C7        1.0  0.86479  0.30558  0.4298999999999999  1.0000
  C   C8        1.0  0.11959  0.08907  0.3341599999999999  1.0000
  C   C9        1.0  0.86849  0.85325  0.5598999999999998  1.0000
  C   C10       1.0  0.9499700000000002  0.64581  0.16421  1.0000
  C   C11       1.0  0.91829  0.53646  0.3430599999999999  1.0000
  C   C12       1.0  0.10468  0.95611  0.8593499999999998  1.0000
  C   C13       1.0  0.9705700000000003  0.6709  0.33738  1.0000
  C   C14       1.0  0.9048300000000002  0.49367  0.67739  1.0000
  C   C15       1.0  0.96276  0.54288  0.05451  1.0000
  C   C16       1.0  0.9506200000000002  0.6275699999999999  0.08516  1.0000
  C   C17       1.0  0.9850199999999999  0.84955  0.81871  1.0000
  C   C18       1.0  0.9778  0.4771399999999999  0.10533  1.0000
  C   C19       1.0  0.9199000000000003  0.36184  0.6288599999999998  1.0000
  C   C20       1.0  0.9781000000000002  0.49468  0.18423  1.0000
  C   C21       1.0  0.11255000000000001  0.6864  0.5734399999999997  1.0000
  C   C22       1.0  0.9383200000000002  0.3594  0.7057999999999998  1.0000
  C   C23       1.0  0.9612500000000002  0.89386  0.03440999999999999  1.0000
  C   C24       1.0  0.9357900000000002  0.797  0.75898  1.0000
  C   C25       1.0  0.8934700000000002  0.93592  0.68262  1.0000
  C   C26       1.0  0.08900000000000002  0.93382  0.3437399999999999  1.0000
  C   C27       1.0  0.003960000000000001  0.91977  0.2871  1.0000
  C   C28       1.0  0.9457600000000003  0.65513  0.4113499999999999  1.0000
  C   C29       1.0  0.07149000000000003  0.95191  0.9348299999999999  1.0000
  C   C30       1.0  0.9932700000000002  0.19731  0.3839399999999999  1.0000
  C   C31       1.0  0.05968000000000001  0.90632  0.80084  1.0000
  C   C32       1.0  0.96173  0.57891  0.21356  1.0000
  C   C33       1.0  0.9395300000000002  0.47135  0.8149199999999999  1.0000
  C   C34       1.0  0.95767  0.52123  0.97125  1.0000
  C   C35       1.0  0.9574200000000002  0.84069  0.89553  1.0000
  C   C36       1.0  0.13835000000000003  0.32196999999999987  0.40417  1.0000
  C   C37       1.0  0.88124  0.53774  0.84698  1.0000
  C   C38       1.0  0.008380000000000002  0.4311  0.85977  1.0000
  C   C39       1.0  0.85674  0.94401  0.5997  1.0000
  C   C40       1.0  0.01654  0.45568  0.9372699999999999  1.0000
  C   C41       1.0  0.9987200000000002  0.89399  0.9533699999999999  1.0000
  C   C42       1.0  0.08074  0.87863  0.41475  1.0000
  C   C43       1.0  0.8912900000000002  0.56278  0.92437  1.0000
  C   C44       1.0  0.19014000000000006  0.011440000000000006  0.84156  1.0000
  C   C45       1.0  0.05159000000000001  0.02679  0.4544  1.0000
  C   C46       1.0  0.09241000000000003  0.9432299999999998  0.48407  1.0000
  C   C47       1.0  0.46722000000000014  0.72253  0.5882299999999998  1.0000
  C   C48       1.0  0.54034  0.66035  0.57711  1.0000
  C   C49       1.0  0.3985700000000001  0.20138  0.37854  1.0000
  C   C50       1.0  0.58846  0.8251799999999999  0.6347099999999998  1.0000
  C   C51       1.0  0.7159300000000002  0.61683  0.57203  1.0000
  C   C52       1.0  0.6593200000000001  0.76084  0.6274999999999998  1.0000
  C   C53       1.0  0.36298000000000014  0.69852  0.5700499999999997  1.0000
  C   C54       1.0  0.6195600000000002  0.91241  0.6650499999999998  1.0000
  C   C55       1.0  0.3700100000000001  0.14695  0.44113  1.0000
  C   C56       1.0  0.4494500000000001  0.35542  0.83337  1.0000
  C   C57       1.0  0.41805  0.4661  0.6549899999999997  1.0000
  C   C58       1.0  0.6018500000000002  0.043769999999999996  0.14018999999999995  1.0000
  C   C59       1.0  0.47071000000000013  0.33116  0.66022  1.0000
  C   C60       1.0  0.40454  0.50669  0.32097  1.0000
  C   C61       1.0  0.4627900000000001  0.45741  0.94363  1.0000
  C   C62       1.0  0.45039  0.37305  0.9125  1.0000
  C   C63       1.0  0.4804500000000001  0.14985  0.18113  1.0000
  C   C64       1.0  0.4775300000000001  0.5233899999999998  0.89314  1.0000
  C   C65       1.0  0.4182500000000001  0.6387  0.36901  1.0000
  C   C66       1.0  0.4774800000000001  0.50645  0.81417  1.0000
  C   C67       1.0  0.6167600000000002  0.31569999999999987  0.41928  1.0000
  C   C68       1.0  0.43706  0.64065  0.29211  1.0000
  C   C69       1.0  0.45832  0.10762  0.96533  1.0000
  C   C70       1.0  0.43142  0.2025  0.24109  1.0000
  C   C71       1.0  0.3917100000000001  0.064  0.31801  1.0000
  C   C72       1.0  0.58995  0.06825  0.65538  1.0000
  C   C73       1.0  0.50396  0.0816  0.7114399999999999  1.0000
  C   C74       1.0  0.4463100000000001  0.34761  0.58623  1.0000
  C   C75       1.0  0.569  0.04862  0.06463999999999999  1.0000
  C   C76       1.0  0.49225000000000013  0.80634  0.61394  1.0000
  C   C77       1.0  0.55585  0.09305000000000001  0.19883  1.0000
  C   C78       1.0  0.4611800000000001  0.42255  0.7844  1.0000
  C   C79       1.0  0.4396400000000001  0.52827  0.18341  1.0000
  C   C80       1.0  0.45804000000000006  0.4785999999999999  0.026999999999999993  1.0000
  C   C81       1.0  0.4527600000000001  0.15914  0.10436999999999998  1.0000
  C   C82       1.0  0.6372200000000002  0.6797199999999999  0.5943899999999998  1.0000
  C   C83       1.0  0.3818000000000001  0.46222  0.15124999999999997  1.0000
  C   C84       1.0  0.50837  0.56809  0.1387  1.0000
  C   C85       1.0  0.3570800000000001  0.05633  0.40146  1.0000
  C   C86       1.0  0.5166900000000001  0.54361  0.06117999999999999  1.0000
  C   C87       1.0  0.49534  0.10663  0.04638  1.0000
  C   C88       1.0  0.5819500000000002  0.12377999999999995  0.58439  1.0000
  C   C89       1.0  0.3919900000000001  0.43729  0.07382999999999998  1.0000
  C   C90       1.0  0.68821  0.98872  0.15837  1.0000
  C   C91       1.0  0.55493  0.9758  0.54413  1.0000
  C   C92       1.0  0.59532  0.05931999999999999  0.5150899999999999  1.0000
  N   N1        1.0  0.9133700000000002  0.57135  0.41421  1.0000
  N   N2        1.0  0.89937  0.44577  0.61193  1.0000
  N   N3        1.0  0.95289  0.59467  0.29449  1.0000
  N   N4        1.0  0.9143700000000002  0.8419699999999998  0.68641  1.0000
  N   N5        1.0  0.92847  0.44342  0.73622  1.0000
  N   N6        1.0  0.08942000000000001  0.0226  0.37593  1.0000
  N   N7        1.0  0.4137100000000002  0.4316199999999998  0.58372  1.0000
  N   N8        1.0  0.39834000000000014  0.5549899999999998  0.38619  1.0000
  N   N9        1.0  0.4525200000000001  0.40729  0.7034099999999998  1.0000
  N   N10       1.0  0.41216000000000014  0.15778999999999996  0.31389  1.0000
  N   N11       1.0  0.4281  0.55652  0.26202  1.0000
  N   N12       1.0  0.59175  0.97965  0.62287  1.0000
  O   O1        1.0  0.19039000000000006  0.45504  0.46191999999999994  1.0000
  O   O2        1.0  0.13223  0.6146699999999998  0.58329  1.0000
  O   O3        1.0  0.30544  0.36338  0.41630999999999996  1.0000
  O   O4        1.0  0.8096  0.25138999999999995  0.4561299999999999  1.0000
  O   O5        1.0  0.8429800000000002  0.38498  0.41722999999999993  1.0000
  O   O6        1.0  0.08589000000000002  0.75734  0.5645299999999998  1.0000
  O   O7        1.0  0.17158000000000007  0.07788  0.27631  1.0000
  O   O8        1.0  0.9190400000000002  0.82736  0.05677999999999998  1.0000
  O   O9        1.0  0.9714  0.96368  0.07528  1.0000
  O   O10       1.0  0.9082000000000002  0.72334  0.7612  1.0000
  O   O11       1.0  0.9906100000000002  0.8445  0.25735  1.0000
  O   O12       1.0  0.9524200000000003  0.98473  0.2726  1.0000
  O   O13       1.0  0.22217000000000003  0.008929999999999999  0.77322  1.0000
  O   O14       1.0  0.22879000000000005  0.05546  0.89729  1.0000
  O   O15       1.0  0.69021  0.54559  0.53794  1.0000
  O   O16       1.0  0.6322300000000002  0.3893  0.4168099999999999  1.0000
  O   O17       1.0  0.8046000000000002  0.6368699999999999  0.58352  1.0000
  O   O18       1.0  0.30471  0.75379  0.54887  1.0000
  O   O19       1.0  0.3432000000000001  0.61825  0.57936  1.0000
  O   O20       1.0  0.5949800000000002  0.24259999999999998  0.4204899999999999  1.0000
  O   O21       1.0  0.6709400000000001  0.9220799999999998  0.72337  1.0000
  O   O22       1.0  0.41393000000000013  0.17352  0.9433099999999999  1.0000
  O   O23       1.0  0.47147  0.0386  0.9238199999999999  1.0000
  O   O24       1.0  0.40261000000000013  0.27614  0.23889999999999997  1.0000
  O   O25       1.0  0.4903300000000001  0.15623  0.74271  1.0000
  O   O26       1.0  0.4522000000000001  0.01682  0.72414  1.0000
  O   O27       1.0  0.7190900000000001  0.99088  0.22692999999999997  1.0000
  O   O28       1.0  0.7286300000000002  0.94534  0.10267999999999998  1.0000
