data_image0
_chemical_formula_structural       Zn12H60C78N36O24
_chemical_formula_sum              "Zn12 H60 C78 N36 O24"
_cell_length_a       8.39855
_cell_length_b       19.2914
_cell_length_c       19.28981
_cell_angle_alpha    118.02504000000002
_cell_angle_beta     98.31633
_cell_angle_gamma    98.36137999999998

_symmetry_space_group_name_H-M    'P 1'
_symmetry_Int_Tables_number       1

loop_
  _symmetry_equiv_pos_as_xyz
  'x,y,z'

loop_
  _atom_site_type_symbol
  _atom_site_label
  _atom_site_symmetry_multiplicity
  _atom_site_fract_x
  _atom_site_fract_y
  _atom_site_fract_z
  _atom_site_occupancy
  Zn  Zn1       1.0  0.30724999999999997  0.4062199999999999  0.45473  1.0000
  Zn  Zn2       1.0  0.94925  0.2986  0.48518000000000006  1.0000
  Zn  Zn3       1.0  0.9022  0.04847000000000002  0.59372  1.0000
  Zn  Zn4       1.0  0.65285  0.18654000000000007  0.70156  1.0000
  Zn  Zn5       1.0  0.8536700000000002  0.54539  0.95162  1.0000
  Zn  Zn6       1.0  0.46541999999999994  0.5149  0.81336  1.0000
  Zn  Zn7       1.0  0.69275  0.59377  0.54527  1.0000
  Zn  Zn8       1.0  0.05075000000000004  0.7014000000000001  0.51481  1.0000
  Zn  Zn9       1.0  0.09779999999999998  0.9515299999999999  0.40628  1.0000
  Zn  Zn10      1.0  0.3471499999999999  0.81345  0.29843  1.0000
  Zn  Zn11      1.0  0.14632999999999996  0.45460999999999996  0.04838  1.0000
  Zn  Zn12      1.0  0.53458  0.4850999999999999  0.18664  1.0000
  H   H1        1.0  0.37832  0.19752  0.2378  1.0000
  H   H2        1.0  0.66512  0.179  0.24556  1.0000
  H   H3        1.0  0.75812  0.09938  0.30777  1.0000
  H   H4        1.0  0.5554  0.03219  0.35359  1.0000
  H   H5        1.0  0.0368  0.09432999999999998  0.27373  1.0000
  H   H6        1.0  0.11165999999999997  0.16781  0.24763  1.0000
  H   H7        1.0  0.48756  0.5205  0.65101  1.0000
  H   H8        1.0  0.10383999999999999  0.3812199999999999  0.68426  1.0000
  H   H9        1.0  0.9379799999999999  0.48394999999999994  0.54833  1.0000
  H   H10       1.0  0.53807  0.2760799999999999  0.42326  1.0000
  H   H11       1.0  0.18140000000000003  0.04046000000000002  0.80233  1.0000
  H   H12       1.0  0.4867300000000002  0.06603  0.82092  1.0000
  H   H13       1.0  0.66028  0.20791  0.90026  1.0000
  H   H14       1.0  0.5263300000000001  0.32146  0.96763  1.0000
  H   H15       1.0  0.94494  0.18039000000000008  0.90606  1.0000
  H   H16       1.0  0.9451600000000001  0.08047999999999997  0.83211  1.0000
  H   H17       1.0  0.9681299999999999  0.13083000000000006  0.47942  1.0000
  H   H18       1.0  0.72212  0.3027099999999999  0.61896  1.0000
  H   H19       1.0  0.45478  0.06421999999999996  0.51575  1.0000
  H   H20       1.0  0.26403  0.14647999999999997  0.72406  1.0000
  H   H21       1.0  0.14109  0.76195  0.95992  1.0000
  H   H22       1.0  0.42031  0.75452  0.93377  1.0000
  H   H23       1.0  0.45131999999999994  0.6923999999999999  0.79173  1.0000
  H   H24       1.0  0.20312999999999998  0.6467  0.67866  1.0000
  H   H25       1.0  0.7641900000000001  0.72613  0.82031  1.0000
  H   H26       1.0  0.8638999999999997  0.75207  0.92008  1.0000
  H   H27       1.0  0.8364899999999996  0.3486499999999999  0.8693  1.0000
  H   H28       1.0  0.41913  0.31599  0.6973  1.0000
  H   H29       1.0  0.39065000000000005  0.45161  0.93559  1.0000
  H   H30       1.0  0.11691000000000001  0.57701  0.85325  1.0000
  H   H31       1.0  0.62167  0.8024799999999997  0.7622  1.0000
  H   H32       1.0  0.3348799999999998  0.8209999999999997  0.75444  1.0000
  H   H33       1.0  0.24186999999999995  0.90061  0.69223  1.0000
  H   H34       1.0  0.44458999999999993  0.9678099999999998  0.64641  1.0000
  H   H35       1.0  0.9631899999999999  0.90567  0.72627  1.0000
  H   H36       1.0  0.8883299999999996  0.8321899999999998  0.75237  1.0000
  H   H37       1.0  0.51243  0.4794999999999999  0.34898  1.0000
  H   H38       1.0  0.8961599999999997  0.61877  0.31573  1.0000
  H   H39       1.0  0.06202  0.51604  0.45167  1.0000
  H   H40       1.0  0.4619299999999998  0.7239099999999997  0.57674  1.0000
  H   H41       1.0  0.8186  0.9595399999999997  0.19766  1.0000
  H   H42       1.0  0.51327  0.9339699999999999  0.17908  1.0000
  H   H43       1.0  0.33972  0.79208  0.09974  1.0000
  H   H44       1.0  0.47367000000000004  0.67854  0.03237  1.0000
  H   H45       1.0  0.05506000000000003  0.81961  0.09394  1.0000
  H   H46       1.0  0.054839999999999944  0.9195199999999999  0.16789  1.0000
  H   H47       1.0  0.031859999999999944  0.8691599999999999  0.52058  1.0000
  H   H48       1.0  0.27788  0.69728  0.38104  1.0000
  H   H49       1.0  0.54522  0.9357799999999998  0.48424  1.0000
  H   H50       1.0  0.73597  0.85352  0.27594  1.0000
  H   H51       1.0  0.8589  0.23804999999999998  0.04008  1.0000
  H   H52       1.0  0.57969  0.24547  0.06623  1.0000
  H   H53       1.0  0.54868  0.30759  0.20826  1.0000
  H   H54       1.0  0.79686  0.35329  0.32133  1.0000
  H   H55       1.0  0.23579999999999998  0.27387  0.17969  1.0000
  H   H56       1.0  0.13609999999999994  0.24793  0.07992  1.0000
  H   H57       1.0  0.16351  0.65135  0.1307  1.0000
  H   H58       1.0  0.5808599999999999  0.6839999999999998  0.3027  1.0000
  H   H59       1.0  0.60935  0.54839  0.06441  1.0000
  H   H60       1.0  0.88309  0.42298  0.14675  1.0000
  C   C1        1.0  0.35665  0.08042000000000003  0.32587  1.0000
  C   C2        1.0  0.3047  0.12767  0.29284  1.0000
  C   C3        1.0  0.41781  0.16103  0.26308  1.0000
  C   C4        1.0  0.5792399999999998  0.15061  0.26734  1.0000
  C   C5        1.0  0.63089  0.10515999999999999  0.30137  1.0000
  C   C6        1.0  0.51906  0.0694  0.32879  1.0000
  C   C7        1.0  0.24746  0.04052999999999998  0.35823  1.0000
  C   C8        1.0  0.13714999999999994  0.14689  0.29137  1.0000
  C   C9        1.0  0.12752999999999998  0.21592  0.37259  1.0000
  C   C10       1.0  0.37552999999999986  0.47664  0.6396  1.0000
  C   C11       1.0  0.18089  0.406  0.65683  1.0000
  C   C12       1.0  0.8154199999999999  0.44360999999999995  0.51827  1.0000
  C   C13       1.0  0.6130599999999999  0.33776999999999996  0.45469  1.0000
  C   C14       1.0  0.27883  0.24597  0.92011  1.0000
  C   C15       1.0  0.179  0.1656799999999999  0.87259  1.0000
  C   C16       1.0  0.2579  0.10219999999999999  0.83899  1.0000
  C   C17       1.0  0.42970000000000025  0.11643000000000006  0.84933  1.0000
  C   C18       1.0  0.52739  0.19591999999999996  0.89476  1.0000
  C   C19       1.0  0.4521299999999998  0.25945999999999997  0.93063  1.0000
  C   C20       1.0  0.21100000000000005  0.31873000000000007  0.96085  1.0000
  C   C21       1.0  0.99231  0.14527000000000007  0.85338  1.0000
  C   C22       1.0  0.9140400000000002  0.15769000000000002  0.78462  1.0000
  C   C23       1.0  0.8997  0.16307000000000002  0.5233  1.0000
  C   C24       1.0  0.77494  0.25064  0.59404  1.0000
  C   C25       1.0  0.37292  0.07433999999999999  0.55626  1.0000
  C   C26       1.0  0.27712  0.11632999999999999  0.66232  1.0000
  C   C27       1.0  0.031700000000000006  0.67429  0.75445  1.0000
  C   C28       1.0  0.012689999999999948  0.7070999999999997  0.83481  1.0000
  C   C29       1.0  0.15539000000000003  0.7367300000000001  0.8981  1.0000
  C   C30       1.0  0.31267000000000006  0.73256  0.8835  1.0000
  C   C31       1.0  0.33048  0.69877  0.80396  1.0000
  C   C32       1.0  0.19135999999999992  0.67141  0.7407  1.0000
  C   C33       1.0  0.89075  0.64213  0.68173  1.0000
  C   C34       1.0  0.8464599999999998  0.70847  0.85529  1.0000
  C   C35       1.0  0.7553299999999997  0.62713  0.84254  1.0000
  C   C36       1.0  0.7362199999999999  0.36022  0.83692  1.0000
  C   C37       1.0  0.5241699999999998  0.34317999999999993  0.74928  1.0000
  C   C38       1.0  0.29828  0.48169  0.92535  1.0000
  C   C39       1.0  0.16003999999999988  0.54544  0.88332  1.0000
  C   C40       1.0  0.64334  0.91958  0.67413  1.0000
  C   C41       1.0  0.69529  0.87233  0.70715  1.0000
  C   C42       1.0  0.58219  0.83897  0.73692  1.0000
  C   C43       1.0  0.42074999999999996  0.8493799999999999  0.73266  1.0000
  C   C44       1.0  0.3691099999999999  0.89483  0.69862  1.0000
  C   C45       1.0  0.48094  0.9306  0.67121  1.0000
  C   C46       1.0  0.7525399999999999  0.95946  0.64177  1.0000
  C   C47       1.0  0.86285  0.8531099999999999  0.70863  1.0000
  C   C48       1.0  0.8724699999999999  0.7840799999999997  0.62741  1.0000
  C   C49       1.0  0.62447  0.5233499999999999  0.3604  1.0000
  C   C50       1.0  0.8191  0.594  0.34317  1.0000
  C   C51       1.0  0.18458000000000005  0.55638  0.48173  1.0000
  C   C52       1.0  0.38692999999999994  0.6622299999999999  0.5453  1.0000
  C   C53       1.0  0.72116  0.7540299999999999  0.07989  1.0000
  C   C54       1.0  0.8209899999999998  0.8343099999999999  0.12741  1.0000
  C   C55       1.0  0.7420899999999998  0.8977999999999999  0.161  1.0000
  C   C56       1.0  0.57029  0.88357  0.15067  1.0000
  C   C57       1.0  0.4725999999999999  0.8040799999999999  0.10524  1.0000
  C   C58       1.0  0.54786  0.74054  0.06936  1.0000
  C   C59       1.0  0.7889899999999997  0.68127  0.03914  1.0000
  C   C60       1.0  0.007679999999999972  0.8547199999999999  0.14662  1.0000
  C   C61       1.0  0.08594999999999987  0.8423099999999999  0.21538  1.0000
  C   C62       1.0  0.1003  0.83693  0.4767  1.0000
  C   C63       1.0  0.22506000000000007  0.74935  0.40596  1.0000
  C   C64       1.0  0.62708  0.9256599999999999  0.44374  1.0000
  C   C65       1.0  0.72288  0.88367  0.33768  1.0000
  C   C66       1.0  0.9682999999999999  0.3257099999999999  0.24555  1.0000
  C   C67       1.0  0.9872999999999998  0.29288999999999993  0.16519  1.0000
  C   C68       1.0  0.84461  0.26327  0.1019  1.0000
  C   C69       1.0  0.68732  0.26744  0.1165  1.0000
  C   C70       1.0  0.6695099999999999  0.30122  0.19604  1.0000
  C   C71       1.0  0.80864  0.32858  0.2593  1.0000
  C   C72       1.0  0.10925000000000003  0.35787  0.31826  1.0000
  C   C73       1.0  0.15353  0.29153  0.14471  1.0000
  C   C74       1.0  0.24466999999999997  0.3728599999999999  0.15745  1.0000
  C   C75       1.0  0.26378  0.63978  0.16307  1.0000
  C   C76       1.0  0.47582  0.65682  0.25072  1.0000
  C   C77       1.0  0.70171  0.51831  0.07465  1.0000
  C   C78       1.0  0.83995  0.45455999999999996  0.11668  1.0000
  N   N1        1.0  0.14544999999999997  0.38286999999999993  0.57813  1.0000
  N   N2        1.0  0.27049  0.42837  0.56739  1.0000
  N   N3        1.0  0.3243699999999999  0.46430999999999994  0.69748  1.0000
  N   N4        1.0  0.54904  0.40146999999999994  0.47013  1.0000
  N   N5        1.0  0.67864  0.46940999999999994  0.51113  1.0000
  N   N6        1.0  0.7804899999999998  0.3617399999999999  0.48395  1.0000
  N   N7        1.0  0.7639  0.19518  0.61724  1.0000
  N   N8        1.0  0.8439599999999998  0.13914  0.5717  1.0000
  N   N9        1.0  0.8597399999999997  0.23308999999999996  0.53561  1.0000
  N   N10       1.0  0.14895000000000003  0.06839000000000003  0.59864  1.0000
  N   N11       1.0  0.21014000000000002  0.04166  0.53058  1.0000
  N   N12       1.0  0.4205  0.12152999999999997  0.63822  1.0000
  N   N13       1.0  0.56867  0.42199  0.80475  1.0000
  N   N14       1.0  0.70458  0.43261999999999995  0.86084  1.0000
  N   N15       1.0  0.6263499999999997  0.30229999999999996  0.76685  1.0000
  N   N16       1.0  0.08004999999999994  0.5298199999999998  0.93132  1.0000
  N   N17       1.0  0.16827000000000003  0.48869  0.9581  1.0000
  N   N18       1.0  0.2982299999999999  0.51621  0.87806  1.0000
  N   N19       1.0  0.85455  0.61713  0.42187  1.0000
  N   N20       1.0  0.7294999999999998  0.57163  0.43261  1.0000
  N   N21       1.0  0.67562  0.53569  0.30251  1.0000
  N   N22       1.0  0.45094999999999985  0.5985299999999998  0.52986  1.0000
  N   N23       1.0  0.32135  0.53059  0.4888700000000001  1.0000
  N   N24       1.0  0.21950999999999996  0.63826  0.51604  1.0000
  N   N25       1.0  0.2361  0.80482  0.38276  1.0000
  N   N26       1.0  0.15602999999999992  0.86085  0.42829  1.0000
  N   N27       1.0  0.14026000000000002  0.76691  0.46439  1.0000
  N   N28       1.0  0.85105  0.9316099999999999  0.40136  1.0000
  N   N29       1.0  0.7898499999999998  0.95833  0.46942  1.0000
  N   N30       1.0  0.5795  0.8784599999999999  0.36178  1.0000
  N   N31       1.0  0.43133  0.5780000000000001  0.19524  1.0000
  N   N32       1.0  0.29542  0.56738  0.13916  1.0000
  N   N33       1.0  0.3736499999999999  0.6976899999999999  0.23314  1.0000
  N   N34       1.0  0.9199399999999998  0.47018  0.06867  1.0000
  N   N35       1.0  0.8317199999999996  0.51131  0.04189  1.0000
  N   N36       1.0  0.7017699999999998  0.48378999999999994  0.12193000000000001  1.0000
  O   O1        1.0  0.3020699999999999  0.98899  0.37496  1.0000
  O   O2        1.0  0.10787999999999995  0.054830000000000004  0.36875  1.0000
  O   O3        1.0  0.9799799999999999  0.21407  0.38503  1.0000
  O   O4        1.0  0.25511  0.27038  0.4201  1.0000
  O   O5        1.0  0.31792  0.3870999999999999  0.01117  1.0000
  O   O6        1.0  0.056859999999999994  0.31531  0.94835  1.0000
  O   O7        1.0  0.76966  0.1734  0.78756  1.0000
  O   O8        1.0  0.9854999999999999  0.14950999999999998  0.72936  1.0000
  O   O9        1.0  0.92966  0.62423  0.61347  1.0000
  O   O10       1.0  0.7400199999999999  0.6328599999999999  0.68496  1.0000
  O   O11       1.0  0.59522  0.61438  0.82683  1.0000
  O   O12       1.0  0.83461  0.57975  0.8502  1.0000
  O   O13       1.0  0.69792  0.011010000000000002  0.62504  1.0000
  O   O14       1.0  0.89211  0.9451599999999999  0.63124  1.0000
  O   O15       1.0  0.02001000000000005  0.78592  0.61496  1.0000
  O   O16       1.0  0.74488  0.72961  0.57989  1.0000
  O   O17       1.0  0.6820699999999997  0.6129000000000001  0.98883  1.0000
  O   O18       1.0  0.94314  0.68468  0.05164  1.0000
  O   O19       1.0  0.23033  0.82659  0.21244  1.0000
  O   O20       1.0  0.014499999999999975  0.8504899999999999  0.27063  1.0000
  O   O21       1.0  0.07034000000000001  0.37576  0.38653  1.0000
  O   O22       1.0  0.25998  0.36714  0.31504  1.0000
  O   O23       1.0  0.40478  0.38562  0.17317  1.0000
  O   O24       1.0  0.16539  0.42024  0.1498  1.0000
