data_image0
_chemical_formula_structural       Co2H80C64N16
_chemical_formula_sum              "Co2 H80 C64 N16"
_cell_length_a       12.22397
_cell_length_b       11.923939999999998
_cell_length_c       18.118099999999995
_cell_angle_alpha    79.60764
_cell_angle_beta     69.92641
_cell_angle_gamma    58.30819

_symmetry_space_group_name_H-M    'P 1'
_symmetry_Int_Tables_number       1

loop_
  _symmetry_equiv_pos_as_xyz
  'x,y,z'

loop_
  _atom_site_type_symbol
  _atom_site_label
  _atom_site_symmetry_multiplicity
  _atom_site_fract_x
  _atom_site_fract_y
  _atom_site_fract_z
  _atom_site_occupancy
  Co  Co1       1.0  0.37499000000000005  0.24994  0.25014  1.0000
  Co  Co2       1.0  0.6247800000000003  0.74999  0.74984  1.0000
  H   H1        1.0  0.28872  0.2990399999999999  0.10351  1.0000
  H   H2        1.0  0.33035000000000014  0.6277999999999999  0.9848199999999999  1.0000
  H   H3        1.0  0.3900600000000002  0.6475099999999999  0.10104  1.0000
  H   H4        1.0  0.38345000000000007  0.49814999999999987  0.21537  1.0000
  H   H5        1.0  0.34240999999999994  0.34407  0.9431499999999999  1.0000
  H   H6        1.0  0.2696100000000001  0.5155799999999999  0.92357  1.0000
  H   H7        1.0  0.1864700000000002  0.3134399999999999  0.91736  1.0000
  H   H8        1.0  0.10519000000000008  0.48148  0.88683  1.0000
  H   H9        1.0  0.022670000000000134  0.65526  0.9830499999999999  1.0000
  H   H10       1.0  0.051220000000000016  0.60428  0.07646  1.0000
  H   H11       1.0  0.6071600000000003  0.20167  0.10231  1.0000
  H   H12       1.0  0.6843400000000002  0.87216  0.9852299999999999  1.0000
  H   H13       1.0  0.5072200000000001  0.85297  0.10238  1.0000
  H   H14       1.0  0.39925000000000005  0.0027399999999999994  0.21634  1.0000
  H   H15       1.0  0.7166200000000001  0.15499  0.9421400000000001  1.0000
  H   H16       1.0  0.8090099999999999  0.98325  0.9232499999999998  1.0000
  H   H17       1.0  0.8981900000000005  0.18591999999999997  0.91679  1.0000
  H   H18       1.0  0.011490000000000125  0.017789999999999993  0.8867099999999998  1.0000
  H   H19       1.0  0.9954500000000001  0.84436  0.9830099999999999  1.0000
  H   H20       1.0  0.8708399999999998  0.8957099999999999  0.07602  1.0000
  H   H21       1.0  0.41453  0.29635999999999996  0.39641  1.0000
  H   H22       1.0  0.040790000000000194  0.6301499999999999  0.5148199999999998  1.0000
  H   H23       1.0  0.95803  0.6513799999999998  0.39948  1.0000
  H   H24       1.0  0.11432000000000012  0.4999999999999999  0.28574  1.0000
  H   H25       1.0  0.3186  0.34293999999999997  0.55595  1.0000
  H   H26       1.0  0.21601  0.51433  0.57594  1.0000
  H   H27       1.0  0.50581  0.31232  0.58172  1.0000
  H   H28       1.0  0.41383  0.48018  0.6127  1.0000
  H   H29       1.0  0.3175000000000002  0.65398  0.51691  1.0000
  H   H30       1.0  0.34280000000000005  0.6035199999999998  0.42303  1.0000
  H   H31       1.0  0.18907  0.20359  0.39764  1.0000
  H   H32       1.0  0.44551000000000035  0.8695399999999999  0.51436  1.0000
  H   H33       1.0  0.6438600000000001  0.84895  0.3980799999999999  1.0000
  H   H34       1.0  0.6010300000000002  0.0006999999999999999  0.28469  1.0000
  H   H35       1.0  0.12451999999999998  0.15571  0.55708  1.0000
  H   H36       1.0  0.20729000000000025  0.98418  0.57642  1.0000
  H   H37       1.0  0.9109900000000001  0.18689999999999996  0.5824  1.0000
  H   H38       1.0  0.9708700000000002  0.01879  0.61294  1.0000
  H   H39       1.0  0.165  0.8451999999999998  0.51715  1.0000
  H   H40       1.0  0.23584999999999995  0.89584  0.42346  1.0000
  H   H41       1.0  0.71114  0.7010599999999999  0.89649  1.0000
  H   H42       1.0  0.66995  0.3722  0.015159999999999998  1.0000
  H   H43       1.0  0.61039  0.3521499999999999  0.899  1.0000
  H   H44       1.0  0.6167000000000001  0.50178  0.78467  1.0000
  H   H45       1.0  0.65748  0.6560699999999999  0.05673999999999999  1.0000
  H   H46       1.0  0.7304100000000001  0.4845599999999999  0.07643  1.0000
  H   H47       1.0  0.8133800000000001  0.6867399999999999  0.08256  1.0000
  H   H48       1.0  0.8947700000000002  0.5187399999999999  0.11316  1.0000
  H   H49       1.0  0.9774200000000001  0.34484999999999993  0.01692  1.0000
  H   H50       1.0  0.94861  0.3959  0.92358  1.0000
  H   H51       1.0  0.39265  0.79851  0.89775  1.0000
  H   H52       1.0  0.31577  0.128  0.0146  1.0000
  H   H53       1.0  0.49281  0.14712  0.8974  1.0000
  H   H54       1.0  0.6005100000000002  0.9974399999999999  0.7835099999999998  1.0000
  H   H55       1.0  0.2833500000000001  0.8451899999999998  0.05796  1.0000
  H   H56       1.0  0.19111999999999998  0.01685  0.07673  1.0000
  H   H57       1.0  0.10186000000000005  0.81407  0.08324  1.0000
  H   H58       1.0  0.9885800000000003  0.9822899999999999  0.11334  1.0000
  H   H59       1.0  0.004610000000000014  0.15575999999999998  0.01701  1.0000
  H   H60       1.0  0.12920000000000004  0.10445  0.9239499999999999  1.0000
  H   H61       1.0  0.5856300000000001  0.7032399999999999  0.60357  1.0000
  H   H62       1.0  0.9594300000000003  0.36962  0.48525  1.0000
  H   H63       1.0  0.04208000000000004  0.3483899999999999  0.60058  1.0000
  H   H64       1.0  0.88567  0.49963  0.71434  1.0000
  H   H65       1.0  0.6815899999999999  0.65689  0.44398999999999994  1.0000
  H   H66       1.0  0.7841200000000004  0.48556  0.42401  1.0000
  H   H67       1.0  0.49426000000000003  0.68763  0.41824  1.0000
  H   H68       1.0  0.58636  0.51969  0.38728  1.0000
  H   H69       1.0  0.6827100000000005  0.34584999999999994  0.48303999999999997  1.0000
  H   H70       1.0  0.6573799999999997  0.39623  0.5769999999999998  1.0000
  H   H71       1.0  0.8106900000000004  0.7958699999999999  0.60224  1.0000
  H   H72       1.0  0.5546900000000002  0.13064  0.48579999999999995  1.0000
  H   H73       1.0  0.3561600000000001  0.15143  0.60198  1.0000
  H   H74       1.0  0.3989600000000001  0.9991799999999998  0.71528  1.0000
  H   H75       1.0  0.8752600000000004  0.84426  0.44298  1.0000
  H   H76       1.0  0.7926600000000001  0.01587  0.42367  1.0000
  H   H77       1.0  0.08880000000000006  0.81294  0.41775  1.0000
  H   H78       1.0  0.029200000000000056  0.9809699999999999  0.38713  1.0000
  H   H79       1.0  0.8349300000000002  0.15471  0.48301  1.0000
  H   H80       1.0  0.7641000000000002  0.10387999999999999  0.5766099999999998  1.0000
  C   C1        1.0  0.3116000000000001  0.37658  0.10092  1.0000
  C   C2        1.0  0.30659  0.46013  0.03584  1.0000
  C   C3        1.0  0.33343  0.56092  0.03464  1.0000
  C   C4        1.0  0.3665700000000002  0.57202  0.09926  1.0000
  C   C5        1.0  0.36424000000000006  0.48844  0.16313999999999995  1.0000
  C   C6        1.0  0.26777000000000006  0.44178999999999996  0.9701599999999999  1.0000
  C   C7        1.0  0.10692000000000002  0.41411  0.93777  1.0000
  C   C8        1.0  0.028529999999999982  0.58017  0.0298  1.0000
  C   C9        1.0  0.5866900000000003  0.12402999999999999  0.10028  1.0000
  C   C10       1.0  0.65731  0.04  0.03546  1.0000
  C   C11       1.0  0.6312900000000001  0.9391999999999999  0.03493  1.0000
  C   C12       1.0  0.53276  0.92849  0.10003999999999998  1.0000
  C   C13       1.0  0.4709400000000001  0.012399999999999998  0.16366  1.0000
  C   C14       1.0  0.76332  0.05754999999999999  0.9695399999999998  1.0000
  C   C15       1.0  0.9570500000000002  0.08554  0.93751  1.0000
  C   C16       1.0  0.9413500000000006  0.91972  0.029639999999999996  1.0000
  C   C17       1.0  0.31273000000000006  0.37564  0.39913  1.0000
  C   C18       1.0  0.23427000000000003  0.46003  0.46382  1.0000
  C   C19       1.0  0.10459000000000002  0.56267  0.46521  1.0000
  C   C20       1.0  0.058600000000000006  0.57453  0.40109  1.0000
  C   C21       1.0  0.14465000000000017  0.48980999999999997  0.33758  1.0000
  C   C22       1.0  0.29302000000000017  0.44075999999999993  0.52915  1.0000
  C   C23       1.0  0.4818600000000001  0.4131699999999999  0.56165  1.0000
  C   C24       1.0  0.38960000000000017  0.57952  0.46996  1.0000
  C   C25       1.0  0.2884500000000001  0.12444999999999998  0.3998099999999999  1.0000
  C   C26       1.0  0.30226000000000003  0.039779999999999996  0.46436999999999995  1.0000
  C   C27       1.0  0.43103000000000014  0.9374099999999997  0.46499  1.0000
  C   C28       1.0  0.5413900000000004  0.9258399999999999  0.40032  1.0000
  C   C29       1.0  0.5187100000000002  0.010679999999999997  0.33698  1.0000
  C   C30       1.0  0.17753000000000008  0.058199999999999995  0.5298899999999999  1.0000
  C   C31       1.0  0.9553200000000002  0.08621  0.56203  1.0000
  C   C32       1.0  0.1411  0.91992  0.47025000000000006  1.0000
  C   C33       1.0  0.6883400000000003  0.62347  0.89908  1.0000
  C   C34       1.0  0.6935100000000001  0.5399  0.9641299999999999  1.0000
  C   C35       1.0  0.6667800000000002  0.43903  0.96535  1.0000
  C   C36       1.0  0.6336299999999999  0.42781999999999987  0.9007599999999999  1.0000
  C   C37       1.0  0.6358600000000006  0.5114799999999999  0.83691  1.0000
  C   C38       1.0  0.7322400000000001  0.55831  0.02982  1.0000
  C   C39       1.0  0.8930300000000001  0.58608  0.06218  1.0000
  C   C40       1.0  0.9714400000000004  0.41998  0.9701799999999999  1.0000
  C   C41       1.0  0.4132000000000001  0.8760999999999999  0.8997499999999998  1.0000
  C   C42       1.0  0.34271999999999986  0.96008  0.96458  1.0000
  C   C43       1.0  0.3688700000000001  0.060809999999999996  0.9649899999999999  1.0000
  C   C44       1.0  0.4672600000000003  0.07157  0.8998299999999998  1.0000
  C   C45       1.0  0.5288800000000001  0.9877299999999999  0.8362  1.0000
  C   C46       1.0  0.23673000000000013  0.9425499999999998  0.03047  1.0000
  C   C47       1.0  0.04303000000000003  0.91451  0.06254  1.0000
  C   C48       1.0  0.05872999999999999  0.08039  0.97037  1.0000
  C   C49       1.0  0.68745  0.6240499999999999  0.60082  1.0000
  C   C50       1.0  0.7659400000000002  0.5397199999999999  0.53612  1.0000
  C   C51       1.0  0.8955800000000004  0.43716999999999995  0.5348099999999998  1.0000
  C   C52       1.0  0.9415400000000002  0.42527999999999994  0.59893  1.0000
  C   C53       1.0  0.8553800000000001  0.5098599999999999  0.66247  1.0000
  C   C54       1.0  0.70714  0.55908  0.47079999999999994  1.0000
  C   C55       1.0  0.5183000000000001  0.5867199999999999  0.43831  1.0000
  C   C56       1.0  0.6106200000000003  0.42028999999999994  0.5300199999999998  1.0000
  C   C57       1.0  0.7114000000000006  0.87528  0.6001399999999998  1.0000
  C   C58       1.0  0.6976700000000003  0.96018  0.5357  1.0000
  C   C59       1.0  0.5689800000000002  0.06274  0.53513  1.0000
  C   C60       1.0  0.4585400000000002  0.07435  0.5997499999999998  1.0000
  C   C61       1.0  0.48122000000000004  0.9892699999999999  0.66299  1.0000
  C   C62       1.0  0.8223700000000005  0.9417699999999999  0.47017  1.0000
  C   C63       1.0  0.04463000000000001  0.9136  0.43808  1.0000
  C   C64       1.0  0.8588600000000002  0.07989  0.52985  1.0000
  N   N1        1.0  0.33631000000000005  0.39085  0.166  1.0000
  N   N2        1.0  0.13668999999999998  0.44822  0.99953  1.0000
  N   N3        1.0  0.49636000000000013  0.10998999999999999  0.16585  1.0000
  N   N4        1.0  0.8642699999999999  0.05138999999999999  0.99903  1.0000
  N   N5        1.0  0.2720600000000001  0.3904399999999999  0.33451  1.0000
  N   N6        1.0  0.4175500000000002  0.44716  0.49968  1.0000
  N   N7        1.0  0.39396000000000003  0.10993  0.33469  1.0000
  N   N8        1.0  0.08298  0.05207  0.50028  1.0000
  N   N9        1.0  0.6636200000000002  0.60918  0.8340299999999998  1.0000
  N   N10       1.0  0.86329  0.5519  0.00045999999999999996  1.0000
  N   N11       1.0  0.5034100000000001  0.8901399999999998  0.8341299999999998  1.0000
  N   N12       1.0  0.13580000000000003  0.94869  0.001  1.0000
  N   N13       1.0  0.7280000000000002  0.60918  0.66548  1.0000
  N   N14       1.0  0.58262  0.55269  0.5003  1.0000
  N   N15       1.0  0.6058800000000002  0.8898299999999999  0.66523  1.0000
  N   N16       1.0  0.91696  0.9477999999999999  0.49978999999999996  1.0000
