data_image0
_chemical_formula_structural       Cd6H32C64O56
_chemical_formula_sum              "Cd6 H32 C64 O56"
_cell_length_a       9.50675
_cell_length_b       18.27639
_cell_length_c       19.813949999999995
_cell_angle_alpha    105.42046999999998
_cell_angle_beta     90.06681
_cell_angle_gamma    89.89653

_symmetry_space_group_name_H-M    'P 1'
_symmetry_Int_Tables_number       1

loop_
  _symmetry_equiv_pos_as_xyz
  'x,y,z'

loop_
  _atom_site_type_symbol
  _atom_site_label
  _atom_site_symmetry_multiplicity
  _atom_site_fract_x
  _atom_site_fract_y
  _atom_site_fract_z
  _atom_site_occupancy
  Cd  Cd1       1.0  0.44702  0.7136799999999999  0.54792  1.0000
  Cd  Cd2       1.0  0.94695  0.2857799999999999  0.9509099999999999  1.0000
  Cd  Cd3       1.0  0.55297  0.28633  0.45208  1.0000
  Cd  Cd4       1.0  0.05305000000000001  0.7142200000000001  0.04909  1.0000
  Cd  Cd5       1.0  0.5  0.5  0.4999999999999999  1.0000
  Cd  Cd6       1.0  0.0  0.5  0.0  1.0000
  H   H1        1.0  0.80488  0.50194  0.41717  1.0000
  H   H2        1.0  0.68546  0.95463  0.5683899999999997  1.0000
  H   H3        1.0  0.9151  0.49597999999999987  0.8344999999999998  1.0000
  H   H4        1.0  0.64735  0.74932  0.70521  1.0000
  H   H5        1.0  0.07381  0.6402400000000003  0.43671999999999994  1.0000
  H   H6        1.0  0.26346  0.8727799999999999  0.48097999999999996  1.0000
  H   H7        1.0  0.8605900000000001  0.7427300000000002  0.9135299999999998  1.0000
  H   H8        1.0  0.70775  0.50315  0.6254  1.0000
  H   H9        1.0  0.30535  0.49752  0.08269  1.0000
  H   H10       1.0  0.18704  0.04471999999999996  0.9323599999999999  1.0000
  H   H11       1.0  0.41492  0.50482  0.6672199999999998  1.0000
  H   H12       1.0  0.14704  0.25125  0.79491  1.0000
  H   H13       1.0  0.57462  0.35818  0.06127999999999999  1.0000
  H   H14       1.0  0.76334  0.12730000000000002  0.01712  1.0000
  H   H15       1.0  0.35862  0.25861  0.5864299999999999  1.0000
  H   H16       1.0  0.20862  0.49612  0.87626  1.0000
  H   H17       1.0  0.19511  0.49805999999999995  0.5828299999999997  1.0000
  H   H18       1.0  0.31453  0.04537000000000002  0.43161  1.0000
  H   H19       1.0  0.08489  0.5040200000000002  0.1655  1.0000
  H   H20       1.0  0.35264  0.25069  0.29479  1.0000
  H   H21       1.0  0.9261800000000001  0.35976  0.56328  1.0000
  H   H22       1.0  0.73653  0.12722999999999995  0.5190199999999999  1.0000
  H   H23       1.0  0.13941  0.25727  0.08647  1.0000
  H   H24       1.0  0.29225  0.49685000000000007  0.3746  1.0000
  H   H25       1.0  0.69465  0.50248  0.9173  1.0000
  H   H26       1.0  0.81296  0.95528  0.06763  1.0000
  H   H27       1.0  0.58508  0.49518  0.3327799999999999  1.0000
  H   H28       1.0  0.85295  0.74876  0.20507999999999996  1.0000
  H   H29       1.0  0.42537  0.6418200000000002  0.93871  1.0000
  H   H30       1.0  0.23665000000000003  0.8726999999999999  0.9828699999999998  1.0000
  H   H31       1.0  0.64138  0.7413900000000002  0.41356  1.0000
  H   H32       1.0  0.79137  0.5038900000000001  0.12374  1.0000
  C   C1        1.0  0.91141  0.61831  0.90138  1.0000
  C   C2        1.0  0.84792  0.62038  0.83381  1.0000
  C   C3        1.0  0.80227  0.69043  0.82344  1.0000
  C   C4        1.0  0.73684  0.69242  0.75856  1.0000
  C   C5        1.0  0.71951  0.62459  0.70458  1.0000
  C   C6        1.0  0.76604  0.5547100000000003  0.71501  1.0000
  C   C7        1.0  0.83122  0.55268  0.7797199999999999  1.0000
  C   C8        1.0  0.64958  0.6260700000000001  0.6380099999999999  1.0000
  C   C9        1.0  0.22788999999999998  0.60624  0.51492  1.0000
  C   C10       1.0  0.11038  0.55226  0.5075  1.0000
  C   C11       1.0  0.99808  0.55474  0.46049  1.0000
  C   C12       1.0  0.88998  0.50164  0.45365  1.0000
  C   C13       1.0  0.60432  0.9743600000000001  0.5386999999999997  1.0000
  C   C14       1.0  0.3753  0.95769  0.4807699999999999  1.0000
  C   C15       1.0  0.48191  0.93212  0.52022  1.0000
  C   C16       1.0  0.46442  0.85921  0.5390599999999999  1.0000
  C   C17       1.0  0.41107  0.38333  0.59993  1.0000
  C   C18       1.0  0.34752  0.38055  0.6672  1.0000
  C   C19       1.0  0.30113  0.31033999999999995  0.6767599999999998  1.0000
  C   C20       1.0  0.2366  0.30791  0.74166  1.0000
  C   C21       1.0  0.21927999999999997  0.37549  0.79595  1.0000
  C   C22       1.0  0.26579  0.4455200000000001  0.78622  1.0000
  C   C23       1.0  0.33105  0.4479399999999999  0.7217099999999997  1.0000
  C   C24       1.0  0.14931  0.3733000000000001  0.8621399999999999  1.0000
  C   C25       1.0  0.72806  0.39360000000000006  0.98393  1.0000
  C   C26       1.0  0.61017  0.44753000000000004  0.99182  1.0000
  C   C27       1.0  0.49818000000000007  0.44437  0.03867  1.0000
  C   C28       1.0  0.3903  0.49786  0.04624  1.0000
  C   C29       1.0  0.10504  0.02525999999999998  0.96162  1.0000
  C   C30       1.0  0.87492  0.04233  0.018119999999999997  1.0000
  C   C31       1.0  0.9821999999999999  0.06754000000000003  0.97894  1.0000
  C   C32       1.0  0.96484  0.14021999999999996  0.9594999999999999  1.0000
  C   C33       1.0  0.08858  0.38169  0.09861999999999999  1.0000
  C   C34       1.0  0.15207  0.37962  0.16619  1.0000
  C   C35       1.0  0.19773  0.30958  0.17656  1.0000
  C   C36       1.0  0.26316  0.30759  0.24143999999999996  1.0000
  C   C37       1.0  0.28049  0.37541  0.29542  1.0000
  C   C38       1.0  0.23394999999999996  0.44530000000000003  0.28499  1.0000
  C   C39       1.0  0.16877  0.44732  0.22028  1.0000
  C   C40       1.0  0.35042  0.37393  0.36198  1.0000
  C   C41       1.0  0.7721  0.39376  0.48508  1.0000
  C   C42       1.0  0.8896099999999999  0.44775000000000004  0.49248999999999993  1.0000
  C   C43       1.0  0.00191  0.44526000000000004  0.5395  1.0000
  C   C44       1.0  0.11001999999999999  0.4983600000000001  0.54635  1.0000
  C   C45       1.0  0.39567  0.025639999999999982  0.4613  1.0000
  C   C46       1.0  0.62469  0.04230999999999999  0.51923  1.0000
  C   C47       1.0  0.51808  0.06787999999999997  0.4797799999999999  1.0000
  C   C48       1.0  0.53558  0.1408  0.46093  1.0000
  C   C49       1.0  0.58892  0.61667  0.40007  1.0000
  C   C50       1.0  0.65248  0.6194500000000001  0.33279  1.0000
  C   C51       1.0  0.69887  0.68966  0.3232399999999999  1.0000
  C   C52       1.0  0.7634  0.69209  0.25834  1.0000
  C   C53       1.0  0.78072  0.6245100000000002  0.20403999999999994  1.0000
  C   C54       1.0  0.7342  0.55448  0.21377999999999994  1.0000
  C   C55       1.0  0.66894  0.5520600000000001  0.27829  1.0000
  C   C56       1.0  0.85068  0.6267  0.13784999999999997  1.0000
  C   C57       1.0  0.27193  0.6064000000000002  0.01607  1.0000
  C   C58       1.0  0.38983  0.55247  0.008179999999999996  1.0000
  C   C59       1.0  0.50181  0.5556299999999998  0.9613299999999999  1.0000
  C   C60       1.0  0.60969  0.50214  0.95376  1.0000
  C   C61       1.0  0.8949500000000001  0.97474  0.03838  1.0000
  C   C62       1.0  0.12507  0.9576700000000001  0.98188  1.0000
  C   C63       1.0  0.0178  0.93247  0.021059999999999995  1.0000
  C   C64       1.0  0.03515  0.85978  0.0405  1.0000
  O   O1        1.0  0.95076  0.55358  0.90881  1.0000
  O   O2        1.0  0.9226699999999999  0.681  0.94887  1.0000
  O   O3        1.0  0.8745900000000001  0.48508  0.78544  1.0000
  O   O4        1.0  0.69393  0.75986  0.75285  1.0000
  O   O5        1.0  0.59708  0.68905  0.6331  1.0000
  O   O6        1.0  0.64671  0.5636400000000001  0.58915  1.0000
  O   O7        1.0  0.34116  0.5964500000000001  0.54927  1.0000
  O   O8        1.0  0.22059  0.66235  0.4887099999999999  1.0000
  O   O9        1.0  0.99201  0.6055200000000001  0.42174  1.0000
  O   O10       1.0  0.34771  0.8222700000000001  0.52161  1.0000
  O   O11       1.0  0.56255  0.8325  0.5689299999999999  1.0000
  O   O12       1.0  0.25612  0.9188100000000001  0.46126999999999996  1.0000
  O   O13       1.0  0.81645  0.7562300000000003  0.87169  1.0000
  O   O14       1.0  0.7512  0.4887000000000001  0.66691  1.0000
  O   O15       1.0  0.4503400000000001  0.44813999999999987  0.5928499999999998  1.0000
  O   O16       1.0  0.42263  0.32093999999999995  0.5521699999999999  1.0000
  O   O17       1.0  0.37466  0.5154899999999999  0.7163599999999999  1.0000
  O   O18       1.0  0.1943  0.24048000000000003  0.74732  1.0000
  O   O19       1.0  0.09607  0.3101600000000001  0.86588  1.0000
  O   O20       1.0  0.14701  0.43490000000000006  0.9119099999999999  1.0000
  O   O21       1.0  0.8408300000000001  0.40351000000000015  0.94948  1.0000
  O   O22       1.0  0.72142  0.3373800000000001  0.010049999999999998  1.0000
  O   O23       1.0  0.49214  0.39261  0.07636  1.0000
  O   O24       1.0  0.8480600000000001  0.17739  0.97674  1.0000
  O   O25       1.0  0.06281  0.16670999999999997  0.9295599999999999  1.0000
  O   O26       1.0  0.75551  0.08132  0.03690999999999999  1.0000
  O   O27       1.0  0.31287  0.24489  0.62772  1.0000
  O   O28       1.0  0.25117  0.51115  0.83492  1.0000
  O   O29       1.0  0.04924  0.44642  0.09117999999999997  1.0000
  O   O30       1.0  0.07733  0.319  0.05113  1.0000
  O   O31       1.0  0.1254  0.51492  0.21455999999999997  1.0000
  O   O32       1.0  0.30606  0.24015000000000003  0.24715  1.0000
  O   O33       1.0  0.40292  0.31095000000000006  0.3669  1.0000
  O   O34       1.0  0.35328  0.43636  0.41085  1.0000
  O   O35       1.0  0.65884  0.40355  0.45071999999999995  1.0000
  O   O36       1.0  0.7794  0.33765000000000006  0.51129  1.0000
  O   O37       1.0  0.00798  0.39448999999999995  0.5782599999999998  1.0000
  O   O38       1.0  0.65228  0.17774000000000004  0.4783899999999999  1.0000
  O   O39       1.0  0.43745  0.16750000000000007  0.43106  1.0000
  O   O40       1.0  0.74388  0.08119000000000004  0.53872  1.0000
  O   O41       1.0  0.18355  0.24378000000000005  0.12830999999999995  1.0000
  O   O42       1.0  0.24879  0.5113  0.33309  1.0000
  O   O43       1.0  0.54965  0.5518600000000001  0.4071399999999999  1.0000
  O   O44       1.0  0.57736  0.67906  0.44782999999999995  1.0000
  O   O45       1.0  0.62533  0.48451000000000005  0.28363999999999995  1.0000
  O   O46       1.0  0.8057  0.75953  0.25268  1.0000
  O   O47       1.0  0.90392  0.68984  0.13412  1.0000
  O   O48       1.0  0.85299  0.5651000000000002  0.08808999999999997  1.0000
  O   O49       1.0  0.15916  0.5965  0.05052  1.0000
  O   O50       1.0  0.27857  0.66263  0.9899499999999998  1.0000
  O   O51       1.0  0.50785  0.6074  0.92364  1.0000
  O   O52       1.0  0.15194  0.8226100000000001  0.023259999999999996  1.0000
  O   O53       1.0  0.93719  0.83329  0.07043999999999999  1.0000
  O   O54       1.0  0.24448  0.9186800000000002  0.9630799999999999  1.0000
  O   O55       1.0  0.68712  0.75512  0.37226999999999993  1.0000
  O   O56       1.0  0.74882  0.48885000000000006  0.16507  1.0000
