data_image0
_chemical_formula_structural       Cd6H54C126O36
_chemical_formula_sum              "Cd6 H54 C126 O36"
_cell_length_a       14.20106
_cell_length_b       14.201
_cell_length_c       28.515910000000005
_cell_angle_alpha    90.00103
_cell_angle_beta     89.99953999999998
_cell_angle_gamma    119.99263

_symmetry_space_group_name_H-M    'P 1'
_symmetry_Int_Tables_number       1

loop_
  _symmetry_equiv_pos_as_xyz
  'x,y,z'

loop_
  _atom_site_type_symbol
  _atom_site_label
  _atom_site_symmetry_multiplicity
  _atom_site_fract_x
  _atom_site_fract_y
  _atom_site_fract_z
  _atom_site_occupancy
  Cd  Cd1       1.0  0.58198  0.64128  0.97574  1.0000
  Cd  Cd2       1.0  0.05949000000000001  0.41805  0.3090700000000001  1.0000
  Cd  Cd3       1.0  0.3586599999999999  0.9406799999999998  0.6423800000000002  1.0000
  Cd  Cd4       1.0  0.94057  0.35858  0.024280000000000006  1.0000
  Cd  Cd5       1.0  0.6412  0.58199  0.69093  1.0000
  Cd  Cd6       1.0  0.41809  0.05963999999999999  0.35759000000000013  1.0000
  H   H1        1.0  0.8472999999999999  0.7231999999999998  0.86147  1.0000
  H   H2        1.0  0.02620999999999998  0.81612  0.8222700000000001  1.0000
  H   H3        1.0  0.94209  0.00106  0.9490700000000002  1.0000
  H   H4        1.0  0.15966999999999998  0.89821  0.78524  1.0000
  H   H5        1.0  0.46806  0.18695  0.76921  1.0000
  H   H6        1.0  0.43328  0.26981  0.8381500000000001  1.0000
  H   H7        1.0  0.4085699999999999  0.33227999999999996  0.89044  1.0000
  H   H8        1.0  0.1934  0.32238  0.9966200000000002  1.0000
  H   H9        1.0  0.05378  0.14065  0.9723700000000002  1.0000
  H   H10       1.0  0.87587  0.1527  0.19482  1.0000
  H   H11       1.0  0.7899  0.97383  0.15561  1.0000
  H   H12       1.0  0.05893  0.05788  0.2824200000000001  1.0000
  H   H13       1.0  0.73855  0.84038  0.11861000000000002  1.0000
  H   H14       1.0  0.71885  0.53192  0.10255000000000002  1.0000
  H   H15       1.0  0.8365  0.5667  0.17147  1.0000
  H   H16       1.0  0.92374  0.59137  0.22377  1.0000
  H   H17       1.0  0.12902  0.80654  0.32994  1.0000
  H   H18       1.0  0.08687999999999996  0.9461699999999998  0.3057  1.0000
  H   H19       1.0  0.27685  0.12417  0.5281700000000001  1.0000
  H   H20       1.0  0.18388  0.21011  0.4889300000000001  1.0000
  H   H21       1.0  0.99898  0.9411099999999999  0.61575  1.0000
  H   H22       1.0  0.10182000000000001  0.26152  0.45193  1.0000
  H   H23       1.0  0.8131  0.28122  0.4358700000000001  1.0000
  H   H24       1.0  0.73016  0.16353  0.50477  1.0000
  H   H25       1.0  0.66767  0.07635  0.55711  1.0000
  H   H26       1.0  0.67756  0.87107  0.66327  1.0000
  H   H27       1.0  0.85924  0.91311  0.6390100000000001  1.0000
  H   H28       1.0  0.12424999999999997  0.27688  0.13851  1.0000
  H   H29       1.0  0.21016  0.18388999999999997  0.17776  1.0000
  H   H30       1.0  0.94117  0.99906  0.050920000000000014  1.0000
  H   H31       1.0  0.26156  0.10182  0.21475  1.0000
  H   H32       1.0  0.28123999999999993  0.8130899999999999  0.23080000000000006  1.0000
  H   H33       1.0  0.16354999999999995  0.7301599999999999  0.1619  1.0000
  H   H34       1.0  0.07631999999999989  0.6676499999999999  0.10958  1.0000
  H   H35       1.0  0.87107  0.67761  0.0034100000000000007  1.0000
  H   H36       1.0  0.91314  0.8592899999999999  0.027670000000000007  1.0000
  H   H37       1.0  0.7232  0.8473  0.8052000000000002  1.0000
  H   H38       1.0  0.81611  0.026209999999999997  0.8443900000000002  1.0000
  H   H39       1.0  0.0010599999999998434  0.9421099999999998  0.7176  1.0000
  H   H40       1.0  0.89821  0.15968  0.8814300000000003  1.0000
  H   H41       1.0  0.18695999999999996  0.46806999999999993  0.89746  1.0000
  H   H42       1.0  0.26981  0.43328  0.8285200000000003  1.0000
  H   H43       1.0  0.33225  0.40859  0.77621  1.0000
  H   H44       1.0  0.32237  0.19339  0.67005  1.0000
  H   H45       1.0  0.14066  0.05377  0.6943  1.0000
  H   H46       1.0  0.15267999999999993  0.8758299999999999  0.47184  1.0000
  H   H47       1.0  0.9738199999999999  0.78989  0.5110500000000001  1.0000
  H   H48       1.0  0.05789999999999999  0.05890999999999999  0.38424000000000014  1.0000
  H   H49       1.0  0.84038  0.73857  0.54806  1.0000
  H   H50       1.0  0.5319299999999998  0.71886  0.5641100000000002  1.0000
  H   H51       1.0  0.56669  0.8364999999999998  0.49519  1.0000
  H   H52       1.0  0.59139  0.92379  0.44291  1.0000
  H   H53       1.0  0.80654  0.12901  0.33672000000000013  1.0000
  H   H54       1.0  0.9461599999999999  0.08684999999999998  0.3609500000000001  1.0000
  C   C1        1.0  0.7804299999999997  0.8011599999999999  0.93478  1.0000
  C   C2        1.0  0.8848799999999999  0.85762  0.9077300000000003  1.0000
  C   C3        1.0  0.9086  0.80498  0.8718500000000002  1.0000
  C   C4        1.0  0.009230000000000006  0.85838  0.84983  1.0000
  C   C5        1.0  0.08958999999999988  0.9656099999999997  0.8624400000000002  1.0000
  C   C6        1.0  0.06608  0.01799  0.8996600000000002  1.0000
  C   C7        1.0  0.9634499999999999  0.9630899999999998  0.92109  1.0000
  C   C8        1.0  0.19291  0.0231  0.8377100000000002  1.0000
  C   C9        1.0  0.21733  0.9784899999999999  0.7985400000000001  1.0000
  C   C10       1.0  0.31458  0.03742999999999999  0.7740800000000002  1.0000
  C   C11       1.0  0.3360099999999999  0.9966799999999999  0.7292500000000001  1.0000
  C   C12       1.0  0.39330999999999994  0.14286  0.78929  1.0000
  C   C13       1.0  0.37267  0.18823  0.8275700000000002  1.0000
  C   C14       1.0  0.27265  0.13169  0.8524300000000002  1.0000
  C   C15       1.0  0.25038  0.18196  0.89137  1.0000
  C   C16       1.0  0.32950999999999997  0.28700999999999993  0.90706  1.0000
  C   C17       1.0  0.31011  0.33731  0.9443200000000003  1.0000
  C   C18       1.0  0.39663  0.44967  0.9575300000000002  1.0000
  C   C19       1.0  0.2093  0.28245  0.9676300000000002  1.0000
  C   C20       1.0  0.13016  0.17898999999999998  0.9531200000000002  1.0000
  C   C21       1.0  0.14786  0.12667  0.91509  1.0000
  C   C22       1.0  0.02076000000000001  0.21958  0.26809  1.0000
  C   C23       1.0  0.97276  0.11512  0.24106000000000005  1.0000
  C   C24       1.0  0.89639  0.0914  0.20518  1.0000
  C   C25       1.0  0.8491499999999998  0.9907799999999999  0.18317  1.0000
  C   C26       1.0  0.87603  0.91041  0.19578  1.0000
  C   C27       1.0  0.9519  0.93389  0.233  1.0000
  C   C28       1.0  0.99963  0.03652  0.25443  1.0000
  C   C29       1.0  0.8301899999999999  0.80709  0.17106  1.0000
  C   C30       1.0  0.7611599999999998  0.78269  0.13189  1.0000
  C   C31       1.0  0.72287  0.6854599999999997  0.10742000000000003  1.0000
  C   C32       1.0  0.66074  0.6640199999999998  0.06257  1.0000
  C   C33       1.0  0.74954  0.60669  0.12263000000000003  1.0000
  C   C34       1.0  0.81555  0.62733  0.16091000000000005  1.0000
  C   C35       1.0  0.8590199999999999  0.72732  0.18577  1.0000
  C   C36       1.0  0.93157  0.74956  0.22471000000000005  1.0000
  C   C37       1.0  0.9575399999999998  0.67043  0.24039000000000005  1.0000
  C   C38       1.0  0.027269999999999947  0.68987  0.27764  1.0000
  C   C39       1.0  0.05329000000000006  0.60347  0.29086  1.0000
  C   C40       1.0  0.07318999999999999  0.79066  0.30095  1.0000
  C   C41       1.0  0.04884000000000003  0.8698  0.2864500000000001  1.0000
  C   C42       1.0  0.9788  0.8520799999999998  0.24843000000000007  1.0000
  C   C43       1.0  0.19876999999999995  0.9791899999999999  0.60142  1.0000
  C   C44       1.0  0.14233  0.027219999999999998  0.57438  1.0000
  C   C45       1.0  0.19502  0.10362  0.53852  1.0000
  C   C46       1.0  0.14165  0.15089  0.5165  1.0000
  C   C47       1.0  0.03441000000000002  0.12403  0.5291100000000001  1.0000
  C   C48       1.0  0.982  0.04814999999999999  0.56633  1.0000
  C   C49       1.0  0.03688  0.00038  0.5877500000000001  1.0000
  C   C50       1.0  0.9769  0.16983  0.50437  1.0000
  C   C51       1.0  0.02150999999999997  0.23884999999999995  0.4652000000000001  1.0000
  C   C52       1.0  0.9625699999999999  0.27716  0.44073  1.0000
  C   C53       1.0  0.0033199999999999797  0.33936999999999995  0.3959100000000001  1.0000
  C   C54       1.0  0.8571500000000001  0.25049  0.45595  1.0000
  C   C55       1.0  0.81174  0.18447  0.4942200000000001  1.0000
  C   C56       1.0  0.86829  0.14098  0.51908  1.0000
  C   C57       1.0  0.81799  0.06845  0.55802  1.0000
  C   C58       1.0  0.7129300000000001  0.04252  0.5737100000000003  1.0000
  C   C59       1.0  0.6626300000000002  0.97283  0.6109600000000001  1.0000
  C   C60       1.0  0.5502899999999997  0.94699  0.62419  1.0000
  C   C61       1.0  0.71748  0.9268699999999997  0.63427  1.0000
  C   C62       1.0  0.82094  0.95119  0.61975  1.0000
  C   C63       1.0  0.87329  0.02124  0.5817500000000002  1.0000
  C   C64       1.0  0.97923  0.19877999999999998  0.06524  1.0000
  C   C65       1.0  0.02728999999999998  0.14235  0.09229000000000001  1.0000
  C   C66       1.0  0.10369999999999999  0.19505999999999998  0.12815  1.0000
  C   C67       1.0  0.15097  0.14169  0.15017  1.0000
  C   C68       1.0  0.12411  0.03445  0.13757  1.0000
  C   C69       1.0  0.048210000000000024  0.98202  0.10035  1.0000
  C   C70       1.0  0.000439999999999999  0.0369  0.07893000000000003  1.0000
  C   C71       1.0  0.16985000000000003  0.97691  0.16231  1.0000
  C   C72       1.0  0.23887  0.02149999999999999  0.20149000000000003  1.0000
  C   C73       1.0  0.2772  0.96257  0.22594  1.0000
  C   C74       1.0  0.33943  0.00334  0.27076  1.0000
  C   C75       1.0  0.25053  0.85715  0.21072000000000005  1.0000
  C   C76       1.0  0.18448999999999993  0.8117499999999999  0.17245  1.0000
  C   C77       1.0  0.14099  0.86828  0.14760000000000006  1.0000
  C   C78       1.0  0.06845999999999997  0.81798  0.10866000000000002  1.0000
  C   C79       1.0  0.04247000000000001  0.71289  0.09297000000000002  1.0000
  C   C80       1.0  0.97275  0.6625899999999999  0.05572000000000001  1.0000
  C   C81       1.0  0.94678  0.5502  0.04249000000000001  1.0000
  C   C82       1.0  0.9268499999999998  0.7175  0.03242  1.0000
  C   C83       1.0  0.95121  0.82097  0.04694  1.0000
  C   C84       1.0  0.021270000000000015  0.8733  0.08494000000000003  1.0000
  C   C85       1.0  0.8011499999999999  0.7804299999999998  0.7318900000000003  1.0000
  C   C86       1.0  0.85762  0.88487  0.7589400000000002  1.0000
  C   C87       1.0  0.8049799999999999  0.9086  0.7948200000000002  1.0000
  C   C88       1.0  0.85838  0.00923  0.81684  1.0000
  C   C89       1.0  0.96562  0.08959  0.80423  1.0000
  C   C90       1.0  0.01799  0.06607  0.76701  1.0000
  C   C91       1.0  0.9630800000000002  0.9634499999999999  0.74558  1.0000
  C   C92       1.0  0.023089999999999996  0.19291  0.8289600000000001  1.0000
  C   C93       1.0  0.97849  0.21733999999999998  0.8681300000000002  1.0000
  C   C94       1.0  0.03744000000000003  0.31458  0.8925900000000001  1.0000
  C   C95       1.0  0.99669  0.33601  0.9374300000000002  1.0000
  C   C96       1.0  0.14286  0.39331999999999995  0.8773800000000003  1.0000
  C   C97       1.0  0.18822999999999995  0.3726799999999999  0.83909  1.0000
  C   C98       1.0  0.13168  0.27266  0.81424  1.0000
  C   C99       1.0  0.18194  0.25038  0.7753000000000002  1.0000
  C   C100      1.0  0.28698  0.32951  0.7596  1.0000
  C   C101      1.0  0.33727  0.31012  0.72234  1.0000
  C   C102      1.0  0.44959  0.39669999999999994  0.7091300000000001  1.0000
  C   C103      1.0  0.28244  0.20929999999999996  0.69904  1.0000
  C   C104      1.0  0.17899  0.13015  0.7135600000000002  1.0000
  C   C105      1.0  0.12667  0.14785  0.7515800000000002  1.0000
  C   C106      1.0  0.21959  0.02078  0.39857  1.0000
  C   C107      1.0  0.11509999999999995  0.9727499999999999  0.4256000000000001  1.0000
  C   C108      1.0  0.09139999999999998  0.89636  0.46147  1.0000
  C   C109      1.0  0.99077  0.8491299999999999  0.48349  1.0000
  C   C110      1.0  0.9103999999999999  0.8760099999999998  0.47088000000000013  1.0000
  C   C111      1.0  0.93387  0.95188  0.4336600000000001  1.0000
  C   C112      1.0  0.03650999999999991  0.9996099999999999  0.4122400000000001  1.0000
  C   C113      1.0  0.80709  0.8302  0.4956  1.0000
  C   C114      1.0  0.78269  0.76118  0.53478  1.0000
  C   C115      1.0  0.68546  0.72289  0.55925  1.0000
  C   C116      1.0  0.66402  0.66075  0.60409  1.0000
  C   C117      1.0  0.60669  0.7495499999999999  0.54404  1.0000
  C   C118      1.0  0.62733  0.81556  0.50575  1.0000
  C   C119      1.0  0.72733  0.8590399999999999  0.4808900000000001  1.0000
  C   C120      1.0  0.74955  0.93158  0.4419500000000001  1.0000
  C   C121      1.0  0.67044  0.95759  0.4262800000000001  1.0000
  C   C122      1.0  0.68989  0.027339999999999993  0.3890400000000001  1.0000
  C   C123      1.0  0.60358  0.05351999999999999  0.37582  1.0000
  C   C124      1.0  0.79067  0.07319  0.36571  1.0000
  C   C125      1.0  0.86979  0.04882  0.38022  1.0000
  C   C126      1.0  0.85207  0.97879  0.4182300000000001  1.0000
  O   O1        1.0  0.7811899999999999  0.82944  0.97678  1.0000
  O   O2        1.0  0.69618  0.72444  0.9144000000000002  1.0000
  O   O3        1.0  0.28533  0.8956  0.7199400000000002  1.0000
  O   O4        1.0  0.40349  0.06938  0.70121  1.0000
  O   O5        1.0  0.48145  0.49362  0.9309300000000003  1.0000
  O   O6        1.0  0.38576  0.49674999999999997  0.99296  1.0000
  O   O7        1.0  0.04815999999999999  0.21879  0.31012000000000006  1.0000
  O   O8        1.0  0.028409999999999973  0.30386  0.24771000000000007  1.0000
  O   O9        1.0  0.61033  0.7147  0.05325  1.0000
  O   O10       1.0  0.66594  0.59649  0.03454  1.0000
  O   O11       1.0  0.012830000000000008  0.51875  0.2642  1.0000
  O   O12       1.0  0.11107000000000002  0.61432  0.3263500000000001  1.0000
  O   O13       1.0  0.17053999999999997  0.9516999999999999  0.6434300000000002  1.0000
  O   O14       1.0  0.27546  0.9716  0.5810500000000001  1.0000
  O   O15       1.0  0.10440999999999993  0.3896799999999999  0.38659  1.0000
  O   O16       1.0  0.93067  0.33431  0.36788  1.0000
  O   O17       1.0  0.50635  0.98791  0.59761  1.0000
  O   O18       1.0  0.50324  0.889  0.6596200000000002  1.0000
  O   O19       1.0  0.95162  0.17048999999999997  0.02325  1.0000
  O   O20       1.0  0.9716399999999998  0.27549  0.08560000000000001  1.0000
  O   O21       1.0  0.38974  0.10443  0.28007000000000004  1.0000
  O   O22       1.0  0.33436999999999995  0.9306999999999999  0.29879  1.0000
  O   O23       1.0  0.98733  0.506  0.06913  1.0000
  O   O24       1.0  0.889  0.50329  0.007  1.0000
  O   O25       1.0  0.82943  0.78121  0.68989  1.0000
  O   O26       1.0  0.7244399999999999  0.6961799999999999  0.75226  1.0000
  O   O27       1.0  0.8955999999999998  0.28532  0.9467300000000001  1.0000
  O   O28       1.0  0.06938  0.4035  0.9654700000000003  1.0000
  O   O29       1.0  0.49336  0.4815899999999999  0.73569  1.0000
  O   O30       1.0  0.49677  0.38581  0.6737400000000002  1.0000
  O   O31       1.0  0.21882  0.0482  0.35654  1.0000
  O   O32       1.0  0.30388  0.028449999999999993  0.4189500000000001  1.0000
  O   O33       1.0  0.71469  0.61033  0.6134200000000002  1.0000
  O   O34       1.0  0.59649  0.66595  0.63212  1.0000
  O   O35       1.0  0.51898  0.01344  0.40255000000000013  1.0000
  O   O36       1.0  0.61437  0.11107  0.34026  1.0000
