data_image0
_chemical_formula_structural       Eu4H64C88I16O40
_chemical_formula_sum              "Eu4 H64 C88 I16 O40"
_cell_length_a       9.71966
_cell_length_b       12.60953
_cell_length_c       26.37343
_cell_angle_alpha    88.48612
_cell_angle_beta     89.98179
_cell_angle_gamma    90.02727

_symmetry_space_group_name_H-M    'P 1'
_symmetry_Int_Tables_number       1

loop_
  _symmetry_equiv_pos_as_xyz
  'x,y,z'

loop_
  _atom_site_type_symbol
  _atom_site_label
  _atom_site_symmetry_multiplicity
  _atom_site_fract_x
  _atom_site_fract_y
  _atom_site_fract_z
  _atom_site_occupancy
  Eu  Eu1       1.0  0.21169  0.8595100000000001  0.7498399999999997  1.0000
  Eu  Eu2       1.0  0.71215  0.63988  0.7502299999999998  1.0000
  Eu  Eu3       1.0  0.78828  0.14019  0.25029  1.0000
  Eu  Eu4       1.0  0.28969  0.35700000000000004  0.24927999999999997  1.0000
  H   H1        1.0  0.15147  0.41986  0.50669  1.0000
  H   H2        1.0  0.4251400000000001  0.63717  0.42819  1.0000
  H   H3        1.0  0.26493  0.6781  0.6348599999999998  1.0000
  H   H4        1.0  0.35967  0.77196  0.59698  1.0000
  H   H5        1.0  0.15054  0.42596000000000006  0.41732999999999987  1.0000
  H   H6        1.0  0.31443  0.44930000000000003  0.39088  1.0000
  H   H7        1.0  0.07813  0.61198  0.39521  1.0000
  H   H8        1.0  0.24458000000000002  0.6445500000000001  0.37409999999999993  1.0000
  H   H9        1.0  0.9370800000000001  0.84076  0.42832  1.0000
  H   H10       1.0  0.6544  0.07805  0.4799  1.0000
  H   H11       1.0  0.8282400000000001  0.75775  0.61382  1.0000
  H   H12       1.0  0.73779  0.87137  0.63563  1.0000
  H   H13       1.0  0.6687  0.04807000000000001  0.39222  1.0000
  H   H14       1.0  0.83956  0.02476  0.37329  1.0000
  H   H15       1.0  0.60931  0.8566  0.3808899999999999  1.0000
  H   H16       1.0  0.78216  0.8285  0.36475  1.0000
  H   H17       1.0  0.65259  0.07975  0.99285  1.0000
  H   H18       1.0  0.9250500000000001  0.86269  0.07187  1.0000
  H   H19       1.0  0.76489  0.82151  0.86448  1.0000
  H   H20       1.0  0.8563700000000001  0.72663  0.9027499999999998  1.0000
  H   H21       1.0  0.6497200000000001  0.07393  0.08192  1.0000
  H   H22       1.0  0.81332  0.051730000000000005  0.10882  1.0000
  H   H23       1.0  0.5798000000000001  0.88654  0.10406999999999997  1.0000
  H   H24       1.0  0.74558  0.85732  0.12677  1.0000
  H   H25       1.0  0.43708  0.65948  0.07256  1.0000
  H   H26       1.0  0.15457  0.42274  0.01996  1.0000
  H   H27       1.0  0.32695  0.74355  0.88611  1.0000
  H   H28       1.0  0.23922000000000002  0.62835  0.86456  1.0000
  H   H29       1.0  0.17083  0.44976  0.10782  1.0000
  H   H30       1.0  0.34126  0.47497  0.12683  1.0000
  H   H31       1.0  0.10759000000000002  0.6404600000000001  0.11943  1.0000
  H   H32       1.0  0.27998  0.67067  0.13561  1.0000
  H   H33       1.0  0.8481100000000001  0.57806  0.4929  1.0000
  H   H34       1.0  0.57485  0.36178999999999994  0.57216  1.0000
  H   H35       1.0  0.73526  0.32036  0.36467999999999995  1.0000
  H   H36       1.0  0.6437400000000001  0.22487  0.40263  1.0000
  H   H37       1.0  0.85088  0.57256  0.5820699999999999  1.0000
  H   H38       1.0  0.6872100000000001  0.55058  0.60898  1.0000
  H   H39       1.0  0.92037  0.3853000000000001  0.6040799999999998  1.0000
  H   H40       1.0  0.7545  0.35594000000000003  0.6268099999999998  1.0000
  H   H41       1.0  0.0629  0.15933  0.57231  1.0000
  H   H42       1.0  0.3459  0.92215  0.52059  1.0000
  H   H43       1.0  0.1724  0.24173  0.3861899999999999  1.0000
  H   H44       1.0  0.26156  0.12721  0.36463999999999996  1.0000
  H   H45       1.0  0.32911  0.9503  0.60838  1.0000
  H   H46       1.0  0.15878  0.97612  0.62731  1.0000
  H   H47       1.0  0.39292  0.14121  0.61927  1.0000
  H   H48       1.0  0.22063  0.17192  0.6353  1.0000
  H   H49       1.0  0.34784  0.92096  0.00677  1.0000
  H   H50       1.0  0.07503  0.13809000000000005  0.9279599999999998  1.0000
  H   H51       1.0  0.23501  0.17865  0.13499  1.0000
  H   H52       1.0  0.142  0.27348  0.09724  1.0000
  H   H53       1.0  0.34985  0.92718  0.91737  1.0000
  H   H54       1.0  0.1862  0.9503  0.89064  1.0000
  H   H55       1.0  0.4220400000000001  0.11355000000000003  0.8959399999999997  1.0000
  H   H56       1.0  0.25594  0.14593  0.8744399999999998  1.0000
  H   H57       1.0  0.56314  0.34114000000000005  0.9284299999999998  1.0000
  H   H58       1.0  0.84575  0.57897  0.97964  1.0000
  H   H59       1.0  0.67238  0.25878  0.11288999999999998  1.0000
  H   H60       1.0  0.76273  0.37193  0.1354  1.0000
  H   H61       1.0  0.83106  0.54874  0.892  1.0000
  H   H62       1.0  0.66037  0.52443  0.87311  1.0000
  H   H63       1.0  0.89224  0.35776  0.88092  1.0000
  H   H64       1.0  0.7195500000000002  0.32817  0.8650799999999997  1.0000
  C   C1        1.0  0.38787  0.59012  0.5559699999999999  1.0000
  C   C2        1.0  0.2866  0.51096  0.55377  1.0000
  C   C3        1.0  0.23175  0.47995  0.50742  1.0000
  C   C4        1.0  0.28159  0.52431  0.4615699999999999  1.0000
  C   C5        1.0  0.38407  0.60237  0.46317  1.0000
  C   C6        1.0  0.43392000000000003  0.63573  0.50964  1.0000
  C   C7        1.0  0.36927  0.7044900000000001  0.624  1.0000
  C   C8        1.0  0.44152  0.74138  0.6716599999999999  1.0000
  C   C9        1.0  0.22965  0.48713000000000006  0.41127  1.0000
  C   C10       1.0  0.17122  0.57856  0.3783499999999999  1.0000
  C   C11       1.0  0.13688  0.54371  0.32417  1.0000
  C   C12       1.0  0.8749100000000001  0.92046  0.54959  1.0000
  C   C13       1.0  0.92823  0.8630900000000001  0.50887  1.0000
  C   C14       1.0  0.88996  0.8849200000000002  0.45863  1.0000
  C   C15       1.0  0.79109  0.96293  0.44729999999999986  1.0000
  C   C16       1.0  0.7330800000000001  0.018420000000000002  0.48757  1.0000
  C   C17       1.0  0.7766400000000001  0.99884  0.53754  1.0000
  C   C18       1.0  0.8401800000000001  0.83664  0.63033  1.0000
  C   C19       1.0  0.9079800000000001  0.8219100000000001  0.6822  1.0000
  C   C20       1.0  0.75089  0.98844  0.39306  1.0000
  C   C21       1.0  0.70285  0.89083  0.36404999999999993  1.0000
  C   C22       1.0  0.67985  0.9186200000000001  0.30766  1.0000
  C   C23       1.0  0.8879400000000001  0.9083000000000001  0.94396  1.0000
  C   C24       1.0  0.78724  0.98779  0.94601  1.0000
  C   C25       1.0  0.73252  0.01945  0.99229  1.0000
  C   C26       1.0  0.78191  0.9755  0.03828  1.0000
  C   C27       1.0  0.8841800000000001  0.8973400000000001  0.03684  1.0000
  C   C28       1.0  0.93378  0.8633100000000001  0.99043  1.0000
  C   C29       1.0  0.86833  0.79389  0.8757499999999999  1.0000
  C   C30       1.0  0.94139  0.7563600000000001  0.8283999999999998  1.0000
  C   C31       1.0  0.72909  0.01318  0.08841  1.0000
  C   C32       1.0  0.67076  0.92201  0.12151999999999998  1.0000
  C   C33       1.0  0.63202  0.95733  0.17513999999999993  1.0000
  C   C34       1.0  0.37555000000000005  0.58121  0.9509499999999999  1.0000
  C   C35       1.0  0.42862000000000006  0.63834  0.9919399999999998  1.0000
  C   C36       1.0  0.39030000000000004  0.61576  0.04202999999999999  1.0000
  C   C37       1.0  0.29163  0.53725  0.052999999999999985  1.0000
  C   C38       1.0  0.23341  0.4824  0.012479999999999996  1.0000
  C   C39       1.0  0.2771600000000001  0.5025300000000001  0.9626099999999997  1.0000
  C   C40       1.0  0.34072  0.66455  0.8698899999999998  1.0000
  C   C41       1.0  0.40903000000000006  0.6797600000000001  0.8180599999999998  1.0000
  C   C42       1.0  0.25189  0.5104  0.10711  1.0000
  C   C43       1.0  0.20191  0.60734  0.13614  1.0000
  C   C44       1.0  0.17968000000000003  0.57905  0.19271999999999997  1.0000
  C   C45       1.0  0.61223  0.40661  0.44416  1.0000
  C   C46       1.0  0.71308  0.48611  0.44613999999999987  1.0000
  C   C47       1.0  0.76792  0.5179  0.49238999999999994  1.0000
  C   C48       1.0  0.71836  0.47425  0.53844  1.0000
  C   C49       1.0  0.61583  0.3962399999999999  0.53709  1.0000
  C   C50       1.0  0.56618  0.36202  0.49071999999999993  1.0000
  C   C51       1.0  0.63178  0.29237  0.37579  1.0000
  C   C52       1.0  0.5589  0.25452  0.3284399999999999  1.0000
  C   C53       1.0  0.7712900000000003  0.51192  0.58854  1.0000
  C   C54       1.0  0.82942  0.42064000000000007  0.62159  1.0000
  C   C55       1.0  0.86807  0.45595  0.6752  1.0000
  C   C56       1.0  0.12498  0.0794  0.45099  1.0000
  C   C57       1.0  0.07161  0.13693000000000002  0.4917899999999999  1.0000
  C   C58       1.0  0.10979  0.11511  0.54197  1.0000
  C   C59       1.0  0.20854  0.03691  0.55322  1.0000
  C   C60       1.0  0.26696  0.98158  0.5129  1.0000
  C   C61       1.0  0.2235  0.0010900000000000007  0.4629499999999999  1.0000
  C   C62       1.0  0.15969  0.16267000000000004  0.36992  1.0000
  C   C63       1.0  0.09152  0.17749  0.31807  1.0000
  C   C64       1.0  0.24827000000000002  0.011060000000000009  0.6074399999999999  1.0000
  C   C65       1.0  0.29846000000000006  0.10847  0.63608  1.0000
  C   C66       1.0  0.32054  0.08111999999999997  0.69275  1.0000
  C   C67       1.0  0.11183000000000001  0.0918  0.05583999999999999  1.0000
  C   C68       1.0  0.21275000000000002  0.01241  0.05369  1.0000
  C   C69       1.0  0.26764  0.9810800000000001  0.0073799999999999985  1.0000
  C   C70       1.0  0.21810000000000002  0.02520000000000001  0.9614699999999999  1.0000
  C   C71       1.0  0.11583  0.10335  0.96299  1.0000
  C   C72       1.0  0.06607  0.13711  0.00942  1.0000
  C   C73       1.0  0.13111  0.20588  0.1241  1.0000
  C   C74       1.0  0.05872000000000001  0.24313  0.17163  1.0000
  C   C75       1.0  0.27067  0.98818  0.9111999999999998  1.0000
  C   C76       1.0  0.32948  0.08013  0.87866  1.0000
  C   C77       1.0  0.36556  0.04644  0.82446  1.0000
  C   C78       1.0  0.62503  0.42180000000000006  0.04957  1.0000
  C   C79       1.0  0.5716800000000001  0.36412  0.00896  1.0000
  C   C80       1.0  0.61008  0.38557  0.95869  1.0000
  C   C81       1.0  0.70898  0.46358000000000005  0.9472399999999999  1.0000
  C   C82       1.0  0.76699  0.5193800000000002  0.9874  1.0000
  C   C83       1.0  0.7234  0.50007  0.03739  1.0000
  C   C84       1.0  0.66046  0.33717  0.1299  1.0000
  C   C85       1.0  0.5919300000000001  0.32047  0.18145  1.0000
  C   C86       1.0  0.7492500000000001  0.48871  0.8929599999999999  1.0000
  C   C87       1.0  0.79814  0.3911  0.8641299999999997  1.0000
  C   C88       1.0  0.82032  0.41883  0.80767  1.0000
  I   I1        1.0  0.5845  0.75736  0.51088  1.0000
  I   I2        1.0  0.22118  0.43579999999999997  0.62296  1.0000
  I   I3        1.0  0.07082000000000001  0.73861  0.52467  1.0000
  I   I4        1.0  0.69699  0.09073  0.59766  1.0000
  I   I5        1.0  0.0832  0.74092  0.9891799999999998  1.0000
  I   I6        1.0  0.7228600000000001  0.06304000000000001  0.8766799999999998  1.0000
  I   I7        1.0  0.57033  0.7634400000000002  0.9761299999999998  1.0000
  I   I8        1.0  0.19728  0.41139999999999993  0.90224  1.0000
  I   I9        1.0  0.4162  0.24  0.4897599999999999  1.0000
  I   I10       1.0  0.7773600000000002  0.56162  0.37684  1.0000
  I   I11       1.0  0.92944  0.26146  0.4756999999999999  1.0000
  I   I12       1.0  0.30411000000000005  0.90972  0.4028  1.0000
  I   I13       1.0  0.91644  0.25936  0.010409999999999999  1.0000
  I   I14       1.0  0.278  0.9374  0.12293999999999998  1.0000
  I   I15       1.0  0.42910000000000004  0.23961000000000002  0.02492  1.0000
  I   I16       1.0  0.80347  0.59188  0.09746  1.0000
  O   O1        1.0  0.44436  0.61912  0.60109  1.0000
  O   O2        1.0  0.38953  0.82525  0.68923  1.0000
  O   O3        1.0  0.54085  0.68754  0.68909  1.0000
  O   O4        1.0  0.16599000000000003  0.44948  0.31281  1.0000
  O   O5        1.0  0.08312000000000001  0.61674  0.29676  1.0000
  O   O6        1.0  0.92436  0.90435  0.59776  1.0000
  O   O7        1.0  0.03632  0.83637  0.6864499999999999  1.0000
  O   O8        1.0  0.82613  0.79369  0.7173899999999999  1.0000
  O   O9        1.0  0.77771  0.9620200000000001  0.28305  1.0000
  O   O10       1.0  0.5624200000000001  0.89394  0.2904  1.0000
  O   O11       1.0  0.94443  0.87844  0.89897  1.0000
  O   O12       1.0  0.8895800000000001  0.67234  0.8108199999999999  1.0000
  O   O13       1.0  0.04106  0.80991  0.8109799999999998  1.0000
  O   O14       1.0  0.65929  0.0518  0.18693  1.0000
  O   O15       1.0  0.57641  0.88425  0.20211  1.0000
  O   O16       1.0  0.4255900000000001  0.5984099999999998  0.90305  1.0000
  O   O17       1.0  0.53737  0.66595  0.81381  1.0000
  O   O18       1.0  0.32657  0.70798  0.78307  1.0000
  O   O19       1.0  0.27821  0.53591  0.21681999999999998  1.0000
  O   O20       1.0  0.062270000000000006  0.60372  0.20984  1.0000
  O   O21       1.0  0.5555  0.37647  0.39922  1.0000
  O   O22       1.0  0.6110400000000001  0.17059  0.31092999999999993  1.0000
  O   O23       1.0  0.45883  0.30724  0.31095  1.0000
  O   O24       1.0  0.8406100000000001  0.55034  0.68699  1.0000
  O   O25       1.0  0.9237500000000001  0.38312  0.70222  1.0000
  O   O26       1.0  0.07528  0.09578  0.40298  1.0000
  O   O27       1.0  0.9631300000000002  0.16355000000000003  0.31409999999999993  1.0000
  O   O28       1.0  0.17354  0.20569  0.2829  1.0000
  O   O29       1.0  0.22203000000000003  0.03793  0.71693  1.0000
  O   O30       1.0  0.43775000000000003  0.10638  0.70986  1.0000
  O   O31       1.0  0.05534000000000001  0.12127  0.10092  1.0000
  O   O32       1.0  0.11077  0.32704  0.18919  1.0000
  O   O33       1.0  0.95884  0.18991  0.18908  1.0000
  O   O34       1.0  0.34025  0.95177  0.8127399999999999  1.0000
  O   O35       1.0  0.41693  0.12101  0.79734  1.0000
  O   O36       1.0  0.5761  0.40584  0.09783999999999998  1.0000
  O   O37       1.0  0.46304000000000006  0.33343  0.18471  1.0000
  O   O38       1.0  0.67272  0.29237  0.21702  1.0000
  O   O39       1.0  0.72159  0.46062000000000003  0.7830099999999999  1.0000
  O   O40       1.0  0.9383500000000001  0.39604000000000006  0.79037  1.0000
