data_image0
_chemical_formula_structural       Zn8P4H52C84O32
_chemical_formula_sum              "Zn8 P4 H52 C84 O32"
_cell_length_a       13.75966
_cell_length_b       14.93132
_cell_length_c       20.03253
_cell_angle_alpha    89.975
_cell_angle_beta     108.32137
_cell_angle_gamma    90.00804

_space_group_name_H-M_alt    "P 1"
_space_group_IT_number       1

loop_
  _space_group_symop_operation_xyz
  'x, y, z'

loop_
  _atom_site_type_symbol
  _atom_site_label
  _atom_site_symmetry_multiplicity
  _atom_site_fract_x
  _atom_site_fract_y
  _atom_site_fract_z
  _atom_site_occupancy
  Zn  Zn1       1.0  0.39748  0.9739099999999998  0.43596000000000007  1.0000
  Zn  Zn2       1.0  0.6442400000000001  0.9040499999999998  0.44936  1.0000
  Zn  Zn3       1.0  0.60252  0.4743199999999999  0.06498  1.0000
  Zn  Zn4       1.0  0.35631  0.4038199999999999  0.05065  1.0000
  Zn  Zn5       1.0  0.60252  0.02608999999999999  0.56404  1.0000
  Zn  Zn6       1.0  0.35577  0.09595  0.55064  1.0000
  Zn  Zn7       1.0  0.39749000000000007  0.52568  0.9350200000000001  1.0000
  Zn  Zn8       1.0  0.64369  0.59618  0.94935  1.0000
  P   P1        1.0  0.72375  0.97331  0.30398  1.0000
  P   P2        1.0  0.27596  0.47339  0.19595  1.0000
  P   P3        1.0  0.27626  0.02668999999999999  0.69602  1.0000
  P   P4        1.0  0.72404  0.5266099999999998  0.80405  1.0000
  H   H1        1.0  0.44731  0.17645  0.17846  1.0000
  H   H2        1.0  0.7431099999999999  0.2532999999999999  0.17056  1.0000
  H   H3        1.0  0.56813  0.05722  0.42854  1.0000
  H   H4        1.0  0.52378  0.044249999999999984  0.25375  1.0000
  H   H5        1.0  0.66027  0.7933799999999998  0.31351  1.0000
  H   H6        1.0  0.84404  0.09403999999999997  0.4086000000000001  1.0000
  H   H7        1.0  0.03257999999999998  0.10742999999999997  0.46956  1.0000
  H   H8        1.0  0.82167  0.11968999999999998  0.24377  1.0000
  H   H9        1.0  0.73437  0.9567599999999998  0.1587  1.0000
  H   H10       1.0  0.63191  0.6620199999999999  0.23092  1.0000
  H   H11       1.0  0.6994800000000001  0.8262599999999999  0.07594  1.0000
  H   H12       1.0  0.08968999999999999  0.8905499999999997  0.3474  1.0000
  H   H13       1.0  0.9010599999999999  0.8746999999999998  0.2855  1.0000
  H   H14       1.0  0.55272  0.67658  0.32163  1.0000
  H   H15       1.0  0.25683  0.7532799999999997  0.32948  1.0000
  H   H16       1.0  0.43131  0.55727  0.07076  1.0000
  H   H17       1.0  0.47634  0.54456  0.24635000000000004  1.0000
  H   H18       1.0  0.33971  0.29304999999999987  0.18668  1.0000
  H   H19       1.0  0.156  0.5941  0.09143  1.0000
  H   H20       1.0  0.96749  0.60763  0.030250000000000003  1.0000
  H   H21       1.0  0.17842  0.61985  0.2562  1.0000
  H   H22       1.0  0.26567  0.4567399999999999  0.34124  1.0000
  H   H23       1.0  0.3681  0.16187999999999997  0.26935  1.0000
  H   H24       1.0  0.30049  0.3264299999999999  0.42412  1.0000
  H   H25       1.0  0.91  0.3906499999999999  0.15234  1.0000
  H   H26       1.0  0.09856000000000001  0.37475999999999987  0.21444000000000002  1.0000
  H   H27       1.0  0.55269  0.8235399999999998  0.82154  1.0000
  H   H28       1.0  0.25689  0.7466999999999998  0.82944  1.0000
  H   H29       1.0  0.43187  0.9427799999999997  0.57146  1.0000
  H   H30       1.0  0.47622  0.9557499999999998  0.74625  1.0000
  H   H31       1.0  0.3397300000000001  0.20661999999999994  0.6864900000000002  1.0000
  H   H32       1.0  0.15597  0.9059599999999998  0.5914  1.0000
  H   H33       1.0  0.96743  0.8925699999999998  0.53044  1.0000
  H   H34       1.0  0.17833  0.8803099999999998  0.75623  1.0000
  H   H35       1.0  0.26563  0.04324  0.84131  1.0000
  H   H36       1.0  0.36809000000000003  0.3379799999999999  0.76908  1.0000
  H   H37       1.0  0.3005300000000001  0.17372999999999994  0.9240600000000001  1.0000
  H   H38       1.0  0.9103099999999997  0.10943999999999997  0.6526  1.0000
  H   H39       1.0  0.09894000000000003  0.1253  0.7145  1.0000
  H   H40       1.0  0.44728  0.3234199999999999  0.67837  1.0000
  H   H41       1.0  0.74317  0.24671999999999997  0.67052  1.0000
  H   H42       1.0  0.5686900000000001  0.44273  0.9292400000000001  1.0000
  H   H43       1.0  0.52366  0.4554299999999999  0.75365  1.0000
  H   H44       1.0  0.66029  0.7069399999999998  0.81332  1.0000
  H   H45       1.0  0.84401  0.40589999999999987  0.90857  1.0000
  H   H46       1.0  0.03252000000000002  0.3923699999999999  0.9697500000000001  1.0000
  H   H47       1.0  0.82159  0.38013999999999987  0.7438  1.0000
  H   H48       1.0  0.73433  0.54326  0.65876  1.0000
  H   H49       1.0  0.6319  0.8381199999999998  0.73065  1.0000
  H   H50       1.0  0.6995200000000001  0.67357  0.57588  1.0000
  H   H51       1.0  0.09  0.60935  0.84767  1.0000
  H   H52       1.0  0.90144  0.6252399999999998  0.7855600000000001  1.0000
  C   C1        1.0  0.70116  0.88232  0.24174  1.0000
  C   C2        1.0  0.8605599999999999  0.9838199999999998  0.34279  1.0000
  C   C3        1.0  0.67738  0.07336999999999998  0.25311  1.0000
  C   C4        1.0  0.59085  0.22263999999999995  0.17086  1.0000
  C   C5        1.0  0.54365  0.3036099999999999  0.12804  1.0000
  C   C6        1.0  0.52893  0.16327999999999995  0.19371000000000002  1.0000
  C   C7        1.0  0.6964  0.20648999999999995  0.18887  1.0000
  C   C8        1.0  0.07119999999999997  0.9997899999999998  0.41161  1.0000
  C   C9        1.0  0.57153  0.08947999999999998  0.23494  1.0000
  C   C10       1.0  0.18432000000000004  0.008379999999999997  0.44867000000000007  1.0000
  C   C11       1.0  0.6716099999999999  0.7995399999999999  0.26236  1.0000
  C   C12       1.0  0.89756  0.049869999999999984  0.39468  1.0000
  C   C13       1.0  0.00224000000000002  0.057579999999999985  0.42881  1.0000
  C   C14       1.0  0.7396800000000001  0.13192  0.22961000000000004  1.0000
  C   C15       1.0  0.71218  0.8922499999999998  0.17471  1.0000
  C   C16       1.0  0.65433  0.7270799999999997  0.21635  1.0000
  C   C17       1.0  0.69302  0.8197799999999997  0.12847  1.0000
  C   C18       1.0  0.034469999999999966  0.93426  0.35978  1.0000
  C   C19       1.0  0.92953  0.9259699999999997  0.32545  1.0000
  C   C20       1.0  0.66427  0.7367499999999998  0.14927  1.0000
  C   C21       1.0  0.64284  0.65806  0.1001  1.0000
  C   C22       1.0  0.2989  0.38226  0.25827  1.0000
  C   C23       1.0  0.13918  0.4840299999999999  0.15732  1.0000
  C   C24       1.0  0.32265  0.5735  0.24685  1.0000
  C   C25       1.0  0.40924  0.7226999999999998  0.32950000000000007  1.0000
  C   C26       1.0  0.45649  0.8032799999999998  0.37298  1.0000
  C   C27       1.0  0.47107  0.6635099999999998  0.30641  1.0000
  C   C28       1.0  0.30364  0.70659  0.3112  1.0000
  C   C29       1.0  0.92866  0.49980999999999987  0.08808  1.0000
  C   C30       1.0  0.42848  0.5897699999999998  0.26507  1.0000
  C   C31       1.0  0.8155300000000001  0.50833  0.05109000000000001  1.0000
  C   C32       1.0  0.32841  0.29935999999999996  0.23783  1.0000
  C   C33       1.0  0.10232  0.55003  0.10532  1.0000
  C   C34       1.0  0.99769  0.5577  0.071  1.0000
  C   C35       1.0  0.26039  0.63211  0.27032  1.0000
  C   C36       1.0  0.28788  0.3922299999999999  0.32529  1.0000
  C   C37       1.0  0.34574  0.22692999999999994  0.28397  1.0000
  C   C38       1.0  0.30704  0.3198199999999999  0.37164  1.0000
  C   C39       1.0  0.96529  0.4343299999999999  0.14  1.0000
  C   C40       1.0  0.07016  0.4260899999999999  0.17451  1.0000
  C   C41       1.0  0.3358999999999999  0.23670999999999995  0.3511  1.0000
  C   C42       1.0  0.35735  0.15828999999999993  0.40069  1.0000
  C   C43       1.0  0.29884  0.11767999999999998  0.75827  1.0000
  C   C44       1.0  0.13945000000000002  0.016179999999999993  0.65721  1.0000
  C   C45       1.0  0.32262  0.92663  0.74689  1.0000
  C   C46       1.0  0.4091600000000001  0.7773599999999999  0.8291400000000001  1.0000
  C   C47       1.0  0.45635  0.69639  0.87196  1.0000
  C   C48       1.0  0.47106999999999993  0.8367199999999998  0.8063  1.0000
  C   C49       1.0  0.3036  0.79351  0.81114  1.0000
  C   C50       1.0  0.9288  0.00021  0.58839  1.0000
  C   C51       1.0  0.42847  0.9105199999999998  0.76506  1.0000
  C   C52       1.0  0.81569  0.99162  0.55133  1.0000
  C   C53       1.0  0.32839000000000007  0.20045999999999994  0.7376500000000001  1.0000
  C   C54       1.0  0.10244  0.9501199999999997  0.60533  1.0000
  C   C55       1.0  0.99776  0.9424099999999997  0.57119  1.0000
  C   C56       1.0  0.26032  0.8680799999999997  0.77039  1.0000
  C   C57       1.0  0.28782  0.10773999999999997  0.82529  1.0000
  C   C58       1.0  0.34568000000000004  0.2729199999999999  0.78365  1.0000
  C   C59       1.0  0.30698  0.18022  0.87154  1.0000
  C   C60       1.0  0.96553  0.06573  0.64022  1.0000
  C   C61       1.0  0.07046999999999994  0.07402999999999997  0.67455  1.0000
  C   C62       1.0  0.33573000000000003  0.26323999999999986  0.8507300000000001  1.0000
  C   C63       1.0  0.35716  0.34192999999999996  0.8999  1.0000
  C   C64       1.0  0.70111  0.6177399999999997  0.7417300000000001  1.0000
  C   C65       1.0  0.8608300000000001  0.51597  0.84268  1.0000
  C   C66       1.0  0.6773500000000001  0.4264899999999999  0.7531500000000001  1.0000
  C   C67       1.0  0.59077  0.27729999999999994  0.6705  1.0000
  C   C68       1.0  0.5435200000000001  0.19671999999999998  0.6270300000000001  1.0000
  C   C69       1.0  0.52893  0.3364899999999999  0.6936  1.0000
  C   C70       1.0  0.69636  0.2934099999999999  0.68881  1.0000
  C   C71       1.0  0.07134000000000004  0.50019  0.9119300000000001  1.0000
  C   C72       1.0  0.57152  0.41022999999999993  0.73493  1.0000
  C   C73       1.0  0.18447999999999995  0.4916599999999999  0.94891  1.0000
  C   C74       1.0  0.6716  0.70064  0.76217  1.0000
  C   C75       1.0  0.89768  0.44996999999999987  0.89468  1.0000
  C   C76       1.0  0.002310000000000038  0.4422999999999999  0.9290000000000002  1.0000
  C   C77       1.0  0.73961  0.3678899999999999  0.72968  1.0000
  C   C78       1.0  0.71212  0.60776  0.67471  1.0000
  C   C79       1.0  0.65426  0.77307  0.71603  1.0000
  C   C80       1.0  0.69297  0.6801799999999998  0.62837  1.0000
  C   C81       1.0  0.034710000000000026  0.56567  0.8600000000000001  1.0000
  C   C82       1.0  0.92984  0.5739099999999998  0.82549  1.0000
  C   C83       1.0  0.66411  0.7632899999999998  0.64891  1.0000
  C   C84       1.0  0.64265  0.8417099999999997  0.59931  1.0000
  O   O1        1.0  0.66737  0.9595299999999999  0.35701000000000005  1.0000
  O   O2        1.0  0.44722000000000006  0.3131299999999999  0.11425  1.0000
  O   O3        1.0  0.21008000000000002  0.06947999999999997  0.49588000000000004  1.0000
  O   O4        1.0  0.63478  0.5819399999999998  0.12773  1.0000
  O   O5        1.0  0.60507  0.3550899999999999  0.11026  1.0000
  O   O6        1.0  0.24331000000000003  0.9549599999999998  0.43062000000000006  1.0000
  O   O7        1.0  0.63315  0.6729599999999998  0.036070000000000005  1.0000
  O   O8        1.0  0.55694  0.008719999999999999  0.45766000000000007  1.0000
  O   O9        1.0  0.33104  0.45967999999999987  0.14221  1.0000
  O   O10       1.0  0.55291  0.8127299999999998  0.38691  1.0000
  O   O11       1.0  0.78971  0.56863  0.0031800000000000005  1.0000
  O   O12       1.0  0.3655  0.08192  0.37352  1.0000
  O   O13       1.0  0.39514  0.8545199999999997  0.3911  1.0000
  O   O14       1.0  0.75674  0.45568  0.07022  1.0000
  O   O15       1.0  0.36694  0.17347  0.46464  1.0000
  O   O16       1.0  0.44314999999999993  0.50865  0.042030000000000005  1.0000
  O   O17       1.0  0.33263000000000004  0.04045999999999999  0.6429900000000001  1.0000
  O   O18       1.0  0.55278  0.68687  0.88575  1.0000
  O   O19       1.0  0.78992  0.9305199999999998  0.50412  1.0000
  O   O20       1.0  0.36522000000000004  0.41806  0.8722700000000001  1.0000
  O   O21       1.0  0.39494000000000007  0.6449099999999998  0.8897400000000001  1.0000
  O   O22       1.0  0.7567000000000002  0.04504  0.56938  1.0000
  O   O23       1.0  0.3668600000000001  0.3270399999999999  0.9639300000000001  1.0000
  O   O24       1.0  0.44306  0.99128  0.54234  1.0000
  O   O25       1.0  0.6689599999999999  0.54031  0.85779  1.0000
  O   O26       1.0  0.4471  0.18726999999999994  0.61309  1.0000
  O   O27       1.0  0.2102900000000001  0.4313699999999999  0.99682  1.0000
  O   O28       1.0  0.63451  0.91808  0.62648  1.0000
  O   O29       1.0  0.60486  0.14548  0.6089  1.0000
  O   O30       1.0  0.24326000000000003  0.54432  0.9297900000000001  1.0000
  O   O31       1.0  0.63307  0.8265299999999998  0.53536  1.0000
  O   O32       1.0  0.55686  0.4913499999999999  0.9579700000000001  1.0000
