data_image0
_chemical_formula_structural       Mo2H96Rh8C48N16O24
_chemical_formula_sum              "Mo2 H96 Rh8 C48 N16 O24"
_cell_length_a       12.95274
_cell_length_b       14.15807
_cell_length_c       15.152250000000002
_cell_angle_alpha    113.15506
_cell_angle_beta     98.19952
_cell_angle_gamma    108.23656000000001

_symmetry_space_group_name_H-M    'P 1'
_symmetry_Int_Tables_number       1

loop_
  _symmetry_equiv_pos_as_xyz
  'x,y,z'

loop_
  _atom_site_type_symbol
  _atom_site_label
  _atom_site_symmetry_multiplicity
  _atom_site_fract_x
  _atom_site_fract_y
  _atom_site_fract_z
  _atom_site_occupancy
  Mo  Mo1       1.0  0.2285499999999999  0.8954999999999997  0.67122  1.0000
  Mo  Mo2       1.0  0.7738799999999998  0.10954  0.31808  1.0000
  H   H1        1.0  0.24024999999999996  0.13312  0.66365  1.0000
  H   H2        1.0  0.06911000000000002  0.77757  0.43776000000000004  1.0000
  H   H3        1.0  0.19191999999999998  0.67837  0.71738  1.0000
  H   H4        1.0  0.9653499999999998  0.7472399999999999  0.58999  1.0000
  H   H5        1.0  0.43238999999999994  0.7494500000000001  0.7779400000000002  1.0000
  H   H6        1.0  0.48038  0.07304999999999995  0.82019  1.0000
  H   H7        1.0  0.28593  0.05026000000000002  0.48833  1.0000
  H   H8        1.0  0.2982499999999999  0.7908899999999998  0.48423  1.0000
  H   H9        1.0  0.35646  0.3058199999999999  0.5675500000000001  1.0000
  H   H10       1.0  0.37647999999999987  0.2786999999999999  0.67155  1.0000
  H   H11       1.0  0.24198999999999998  0.41604  0.64109  1.0000
  H   H12       1.0  0.2606799999999999  0.3885399999999999  0.74549  1.0000
  H   H13       1.0  0.38073  0.47303000000000006  0.7271700000000002  1.0000
  H   H14       1.0  0.16699999999999993  0.79514  0.26638  1.0000
  H   H15       1.0  0.07172999999999995  0.68883  0.28489000000000003  1.0000
  H   H16       1.0  0.90677  0.6740299999999999  0.1594  1.0000
  H   H17       1.0  0.0023699999999999347  0.7821799999999998  0.14308  1.0000
  H   H18       1.0  0.013249999999999918  0.6501899999999998  0.103  1.0000
  H   H19       1.0  0.19992000000000001  0.6452500000000001  0.8484800000000002  1.0000
  H   H20       1.0  0.14619999999999997  0.4995399999999999  0.81332  1.0000
  H   H21       1.0  0.0058100000000000955  0.6439800000000001  0.8574200000000002  1.0000
  H   H22       1.0  0.9533199999999998  0.4983999999999999  0.82321  1.0000
  H   H23       1.0  0.06083000000000004  0.59889  0.9400800000000002  1.0000
  H   H24       1.0  0.79461  0.7369399999999998  0.60273  1.0000
  H   H25       1.0  0.79444  0.6859699999999999  0.69211  1.0000
  H   H26       1.0  0.62606  0.506  0.56724  1.0000
  H   H27       1.0  0.5930299999999998  0.6242899999999998  0.58772  1.0000
  H   H28       1.0  0.62558  0.55521  0.47658  1.0000
  H   H29       1.0  0.6994199999999999  0.7675900000000001  0.8494600000000002  1.0000
  H   H30       1.0  0.55785  0.6692200000000001  0.7765800000000003  1.0000
  H   H31       1.0  0.6667199999999998  0.7443499999999997  0.00134  1.0000
  H   H32       1.0  0.52575  0.6431299999999999  0.92894  1.0000
  H   H33       1.0  0.6435699999999998  0.6132499999999997  0.9002100000000001  1.0000
  H   H34       1.0  0.6440899999999999  0.1916500000000001  0.8149400000000001  1.0000
  H   H35       1.0  0.76831  0.25623  0.92059  1.0000
  H   H36       1.0  0.5588399999999998  0.3173199999999998  0.91465  1.0000
  H   H37       1.0  0.67813  0.38047999999999993  0.023640000000000005  1.0000
  H   H38       1.0  0.6951  0.40006999999999987  0.91698  1.0000
  H   H39       1.0  0.3552199999999999  0.17463000000000004  0.36500000000000005  1.0000
  H   H40       1.0  0.22635  0.08059  0.36252  1.0000
  H   H41       1.0  0.34167  0.03169000000000001  0.19432  1.0000
  H   H42       1.0  0.21376999999999985  0.9342499999999998  0.19174  1.0000
  H   H43       1.0  0.21634000000000003  0.058760000000000014  0.18947  1.0000
  H   H44       1.0  0.2401899999999999  0.6473099999999998  0.25389  1.0000
  H   H45       1.0  0.24595999999999996  0.62172  0.35908  1.0000
  H   H46       1.0  0.4026999999999999  0.59186  0.22394  1.0000
  H   H47       1.0  0.4174299999999999  0.57347  0.33344  1.0000
  H   H48       1.0  0.29230999999999996  0.4831999999999999  0.22938  1.0000
  H   H49       1.0  0.7502199999999997  0.8594799999999999  0.3066200000000001  1.0000
  H   H50       1.0  0.92411  0.20571999999999996  0.5527  1.0000
  H   H51       1.0  0.80868  0.31309  0.27697  1.0000
  H   H52       1.0  0.06434999999999998  0.2893299999999999  0.44743000000000005  1.0000
  H   H53       1.0  0.5467399999999999  0.23168999999999995  0.18488  1.0000
  H   H54       1.0  0.5220499999999999  0.9387599999999998  0.18965000000000004  1.0000
  H   H55       1.0  0.74821  0.94455  0.54938  1.0000
  H   H56       1.0  0.7113699999999997  0.22029999999999994  0.52434  1.0000
  H   H57       1.0  0.63714  0.70131  0.41906  1.0000
  H   H58       1.0  0.6137999999999998  0.7125299999999998  0.30678  1.0000
  H   H59       1.0  0.76479  0.5996  0.36234  1.0000
  H   H60       1.0  0.7384199999999997  0.6074299999999999  0.24779  1.0000
  H   H61       1.0  0.62467  0.52658  0.27523  1.0000
  H   H62       1.0  0.83201  0.19633999999999988  0.72461  1.0000
  H   H63       1.0  0.9283  0.30199999999999994  0.7062300000000001  1.0000
  H   H64       1.0  0.09087000000000005  0.3224600000000001  0.8379500000000001  1.0000
  H   H65       1.0  0.9950899999999999  0.21408  0.85363  1.0000
  H   H66       1.0  0.98078  0.34409999999999996  0.8895600000000001  1.0000
  H   H67       1.0  0.7999499999999999  0.3532  0.14915  1.0000
  H   H68       1.0  0.8540399999999998  0.49968  0.18638  1.0000
  H   H69       1.0  0.9919499999999998  0.35285  0.14146  1.0000
  H   H70       1.0  0.04984999999999998  0.5001099999999999  0.18318  1.0000
  H   H71       1.0  0.9449999999999998  0.40663999999999995  0.0635  1.0000
  H   H72       1.0  0.21153999999999998  0.28037  0.39776000000000006  1.0000
  H   H73       1.0  0.21745000000000003  0.34099000000000007  0.3154100000000001  1.0000
  H   H74       1.0  0.3888099999999999  0.51332  0.44677  1.0000
  H   H75       1.0  0.41682  0.39074000000000003  0.4158900000000001  1.0000
  H   H76       1.0  0.38528999999999997  0.45334999999999986  0.52942  1.0000
  H   H77       1.0  0.27315  0.20765000000000003  0.11640000000000003  1.0000
  H   H78       1.0  0.41215  0.30004  0.20118000000000005  1.0000
  H   H79       1.0  0.32333  0.26173  0.98397  1.0000
  H   H80       1.0  0.46457  0.35249999999999987  0.06495  1.0000
  H   H81       1.0  0.3482899999999999  0.3842299999999999  0.09597  1.0000
  H   H82       1.0  0.3585199999999998  0.8157399999999998  0.19046  1.0000
  H   H83       1.0  0.2350499999999999  0.7546299999999998  0.08535  1.0000
  H   H84       1.0  0.4374299999999998  0.6832899999999997  0.09110000000000003  1.0000
  H   H85       1.0  0.32041999999999987  0.6249699999999999  0.98144  1.0000
  H   H86       1.0  0.29809999999999987  0.6058999999999998  0.08730000000000003  1.0000
  H   H87       1.0  0.6454499999999999  0.82725  0.67619  1.0000
  H   H88       1.0  0.7780599999999999  0.9038199999999998  0.6678400000000002  1.0000
  H   H89       1.0  0.66638  0.9946599999999999  0.8301200000000002  1.0000
  H   H90       1.0  0.79873  0.07606000000000011  0.8236000000000002  1.0000
  H   H91       1.0  0.78604  0.96173  0.8486800000000001  1.0000
  H   H92       1.0  0.75088  0.3478899999999999  0.7626  1.0000
  H   H93       1.0  0.7627199999999997  0.3782299999999999  0.6612  1.0000
  H   H94       1.0  0.57425  0.38628  0.7646  1.0000
  H   H95       1.0  0.5816799999999999  0.41404999999999986  0.66074  1.0000
  H   H96       1.0  0.69051  0.5038599999999999  0.77765  1.0000
  Rh  Rh1       1.0  0.024150000000000064  0.9614699999999999  0.5587500000000001  1.0000
  Rh  Rh2       1.0  0.0787  0.60072  0.5171  1.0000
  Rh  Rh3       1.0  0.4024699999999998  0.9437899999999998  0.91372  1.0000
  Rh  Rh4       1.0  0.45193999999999995  0.9988899999999998  0.55586  1.0000
  Rh  Rh5       1.0  0.97123  0.03526  0.42157  1.0000
  Rh  Rh6       1.0  0.9210399999999999  0.4068499999999999  0.48428  1.0000
  Rh  Rh7       1.0  0.59362  0.0466  0.07353  1.0000
  Rh  Rh8       1.0  0.59048  0.9893399999999998  0.43791  1.0000
  C   C1        1.0  0.20619999999999994  0.19097  0.56909  1.0000
  C   C2        1.0  0.31777  0.29401  0.62445  1.0000
  C   C3        1.0  0.29904000000000003  0.39908000000000005  0.6880500000000003  1.0000
  C   C4        1.0  0.05882999999999986  0.8469199999999996  0.34869  1.0000
  C   C5        1.0  0.07829999999999997  0.7571599999999999  0.26568  1.0000
  C   C6        1.0  0.9955299999999998  0.7134399999999997  0.16166  1.0000
  C   C7        1.0  0.08082999999999994  0.5337199999999998  0.69833  1.0000
  C   C8        1.0  0.12291000000000003  0.56643  0.8092600000000002  1.0000
  C   C9        1.0  0.02997999999999981  0.5773399999999997  0.86043  1.0000
  C   C10       1.0  0.8530799999999997  0.6054199999999997  0.57236  1.0000
  C   C11       1.0  0.77387  0.66  0.61074  1.0000
  C   C12       1.0  0.6474999999999997  0.58201  0.55778  1.0000
  C   C13       1.0  0.57313  0.8275800000000001  0.8921900000000003  1.0000
  C   C14       1.0  0.6124499999999999  0.7325199999999997  0.85337  1.0000
  C   C15       1.0  0.6121399999999999  0.67991  0.9250300000000002  1.0000
  C   C16       1.0  0.62119  0.15209000000000011  0.9359000000000002  1.0000
  C   C17       1.0  0.67601  0.2335  0.89761  1.0000
  C   C18       1.0  0.65058  0.33903000000000005  0.9409500000000002  1.0000
  C   C19       1.0  0.37278  0.042569999999999976  0.38759  1.0000
  C   C20       1.0  0.3016499999999999  0.0848  0.33663  1.0000
  C   C21       1.0  0.26691999999999994  0.023930000000000017  0.22139000000000006  1.0000
  C   C22       1.0  0.3811499999999999  0.7715299999999999  0.3802  1.0000
  C   C23       1.0  0.29839999999999994  0.64955  0.31599  1.0000
  C   C24       1.0  0.35631  0.57016  0.27304  1.0000
  C   C25       1.0  0.7827099999999998  0.8151199999999997  0.4115300000000001  1.0000
  C   C26       1.0  0.67564  0.70739  0.36035  1.0000
  C   C27       1.0  0.70261  0.6042699999999998  0.3085500000000001  1.0000
  C   C28       1.0  0.9428499999999999  0.14378999999999997  0.64705  1.0000
  C   C29       1.0  0.9214099999999997  0.2349000000000001  0.7272500000000002  1.0000
  C   C30       1.0  0.0014400000000000383  0.28143  0.8331900000000002  1.0000
  C   C31       1.0  0.9143399999999999  0.46169999999999994  0.30069  1.0000
  C   C32       1.0  0.8764399999999999  0.43238999999999994  0.19045000000000006  1.0000
  C   C33       1.0  0.97168  0.42271  0.14196  1.0000
  C   C34       1.0  0.16291999999999995  0.42022  0.43877  1.0000
  C   C35       1.0  0.23684999999999995  0.36067  0.39543  1.0000
  C   C36       1.0  0.3642499999999999  0.43343999999999994  0.44967000000000007  1.0000
  C   C37       1.0  0.4014299999999999  0.15167  0.07504  1.0000
  C   C38       1.0  0.3630999999999999  0.24630999999999997  0.12110000000000001  1.0000
  C   C39       1.0  0.37556  0.3154499999999999  0.06315  1.0000
  C   C40       1.0  0.38521  0.85546  0.0705  1.0000
  C   C41       1.0  0.32670999999999983  0.7743599999999998  0.10784000000000002  1.0000
  C   C42       1.0  0.34693  0.66584  0.06408  1.0000
  C   C43       1.0  0.64097  0.9466699999999996  0.62708  1.0000
  C   C44       1.0  0.7040699999999996  0.9116499999999997  0.69225  1.0000
  C   C45       1.0  0.7407999999999997  0.9909299999999998  0.80522  1.0000
  C   C46       1.0  0.6284200000000002  0.22122  0.62393  1.0000
  C   C47       1.0  0.70106  0.34441  0.6952500000000003  1.0000
  C   C48       1.0  0.6325399999999997  0.4159899999999998  0.72634  1.0000
  N   N1        1.0  0.17881  0.11480999999999994  0.60164  1.0000
  N   N2        1.0  0.059170000000000014  0.84562  0.43552  1.0000
  N   N3        1.0  0.1312800000000001  0.6019000000000001  0.6626000000000002  1.0000
  N   N4        1.0  0.9505899999999999  0.6645199999999999  0.56639  1.0000
  N   N5        1.0  0.47625999999999996  0.8218399999999999  0.84404  1.0000
  N   N6        1.0  0.5153  0.07517999999999997  0.88663  1.0000
  N   N7        1.0  0.35434  0.03565000000000006  0.4701100000000001  1.0000
  N   N8        1.0  0.36427999999999994  0.83259  0.46464  1.0000
  N   N9        1.0  0.80988  0.8840399999999998  0.37214000000000014  1.0000
  N   N10       1.0  0.9377199999999999  0.14004  0.55741  1.0000
  N   N11       1.0  0.8673699999999998  0.38985  0.33315  1.0000
  N   N12       1.0  0.07126  0.36708  0.45705  1.0000
  N   N13       1.0  0.50219  0.1595  0.11873000000000002  1.0000
  N   N14       1.0  0.48916  0.9335799999999999  0.12138  1.0000
  N   N15       1.0  0.6745299999999997  0.9563599999999995  0.55213  1.0000
  N   N16       1.0  0.64795  0.16976999999999998  0.53943  1.0000
  O   O1        1.0  0.14121  0.18119  0.4905500000000001  1.0000
  O   O2        1.0  0.04428999999999989  0.9248499999999998  0.33191  1.0000
  O   O3        1.0  0.9951599999999996  0.4390799999999999  0.64281  1.0000
  O   O4        1.0  0.82165  0.5001399999999999  0.54827  1.0000
  O   O5        1.0  0.6393799999999998  0.9134299999999997  0.97653  1.0000
  O   O6        1.0  0.6812599999999999  0.16318999999999997  0.01749  1.0000
  O   O7        1.0  0.44968  0.018860000000000026  0.3523800000000001  1.0000
  O   O8        1.0  0.4624899999999999  0.8116499999999999  0.3489  1.0000
  O   O9        1.0  0.10342  0.9244999999999999  0.67342  1.0000
  O   O10       1.0  0.19649  0.7723699999999998  0.55413  1.0000
  O   O11       1.0  0.26487999999999995  0.86393  0.7711  1.0000
  O   O12       1.0  0.3412799999999999  0.010610000000000024  0.67962  1.0000
  O   O13       1.0  0.8453999999999998  0.83644  0.49742  1.0000
  O   O14       1.0  0.9630900000000001  0.07128  0.66911  1.0000
  O   O15       1.0  0.99611  0.55921  0.3601500000000001  1.0000
  O   O16       1.0  0.1930399999999999  0.5228499999999999  0.45497  1.0000
  O   O17       1.0  0.33294  0.06748000000000007  0.9913500000000001  1.0000
  O   O18       1.0  0.3286099999999999  0.8422799999999999  0.98595  1.0000
  O   O19       1.0  0.55224  0.96345  0.64805  1.0000
  O   O20       1.0  0.5483999999999998  0.16982  0.65292  1.0000
  O   O21       1.0  0.8910799999999999  0.06983000000000004  0.3054400000000001  1.0000
  O   O22       1.0  0.8171799999999999  0.22756999999999997  0.44017  1.0000
  O   O23       1.0  0.7341199999999998  0.14675  0.22309  1.0000
  O   O24       1.0  0.65681  0.99521  0.30906  1.0000
