data_image0
_chemical_formula_structural       Mg8P4H52C84O32
_chemical_formula_sum              "Mg8 P4 H52 C84 O32"
_cell_length_a       13.75422
_cell_length_b       14.2999
_cell_length_c       20.52428
_cell_angle_alpha    90.0011
_cell_angle_beta     106.43501
_cell_angle_gamma    89.9945

_symmetry_space_group_name_H-M    'P 1'
_symmetry_Int_Tables_number       1

loop_
  _symmetry_equiv_pos_as_xyz
  'x,y,z'

loop_
  _atom_site_type_symbol
  _atom_site_label
  _atom_site_symmetry_multiplicity
  _atom_site_fract_x
  _atom_site_fract_y
  _atom_site_fract_z
  _atom_site_occupancy
  Mg  Mg1       1.0  0.35482999999999987  0.11524  0.05026  1.0000
  Mg  Mg2       1.0  0.59934  0.03184  0.05921  1.0000
  Mg  Mg3       1.0  0.64512  0.6152399999999998  0.44973  1.0000
  Mg  Mg4       1.0  0.40066  0.53184  0.44077000000000005  1.0000
  Mg  Mg5       1.0  0.6451599999999998  0.88477  0.94974  1.0000
  Mg  Mg6       1.0  0.40066  0.9681699999999999  0.94079  1.0000
  Mg  Mg7       1.0  0.35487  0.3847599999999999  0.55027  1.0000
  Mg  Mg8       1.0  0.59933  0.46817  0.55923  1.0000
  P   P1        1.0  0.2642699999999999  0.03265  0.18407  1.0000
  P   P2        1.0  0.7357399999999997  0.5325399999999999  0.31591  1.0000
  P   P3        1.0  0.73572  0.9673599999999999  0.81593  1.0000
  P   P4        1.0  0.2642499999999999  0.46747  0.68409  1.0000
  H   H1        1.0  0.43279  0.9593999999999998  0.07472  1.0000
  H   H2        1.0  0.32831  0.2228  0.18801  1.0000
  H   H3        1.0  0.36396999999999996  0.3452699999999999  0.27953  1.0000
  H   H4        1.0  0.2924  0.15040999999999993  0.41718  1.0000
  H   H5        1.0  0.25003  0.02835  0.32587  1.0000
  H   H6        1.0  0.08820999999999998  0.13634  0.20017  1.0000
  H   H7        1.0  0.90206  0.11988  0.14157  1.0000
  H   H8        1.0  0.96228  0.8865599999999999  0.02828  1.0000
  H   H9        1.0  0.14842  0.9020399999999997  0.08462  1.0000
  H   H10       1.0  0.17147  0.8646999999999999  0.23123  1.0000
  H   H11       1.0  0.25483  0.73448  0.30927  1.0000
  H   H12       1.0  0.54727  0.8406199999999998  0.31298  1.0000
  H   H13       1.0  0.46669  0.9698899999999998  0.2337  1.0000
  H   H14       1.0  0.56699  0.4594799999999999  0.42521  1.0000
  H   H15       1.0  0.67148  0.7226099999999999  0.31187  1.0000
  H   H16       1.0  0.63592  0.84511  0.22035  1.0000
  H   H17       1.0  0.7076799999999999  0.6502099999999997  0.08277  1.0000
  H   H18       1.0  0.7499899999999999  0.52821  0.17406  1.0000
  H   H19       1.0  0.91174  0.6363299999999997  0.29987  1.0000
  H   H20       1.0  0.09791000000000001  0.61992  0.35848  1.0000
  H   H21       1.0  0.03777999999999996  0.38658  0.47176999999999997  1.0000
  H   H22       1.0  0.85163  0.40204  0.41542000000000007  1.0000
  H   H23       1.0  0.8285399999999998  0.3645599999999999  0.26875  1.0000
  H   H24       1.0  0.7452199999999998  0.23435999999999998  0.19075  1.0000
  H   H25       1.0  0.45274  0.34055  0.18711  1.0000
  H   H26       1.0  0.53336  0.46981  0.26635  1.0000
  H   H27       1.0  0.5672  0.0406  0.92528  1.0000
  H   H28       1.0  0.67168  0.77721  0.81199  1.0000
  H   H29       1.0  0.6360299999999998  0.6547399999999999  0.72047  1.0000
  H   H30       1.0  0.70759  0.8495899999999997  0.58282  1.0000
  H   H31       1.0  0.7499599999999997  0.9716599999999997  0.67413  1.0000
  H   H32       1.0  0.91178  0.86366  0.79983  1.0000
  H   H33       1.0  0.09793000000000002  0.8801299999999999  0.85843  1.0000
  H   H34       1.0  0.037720000000000004  0.11344999999999998  0.97172  1.0000
  H   H35       1.0  0.85157  0.09797  0.91538  1.0000
  H   H36       1.0  0.8285199999999998  0.13531  0.76877  1.0000
  H   H37       1.0  0.74516  0.26553  0.69073  1.0000
  H   H38       1.0  0.4527299999999999  0.15939  0.68702  1.0000
  H   H39       1.0  0.53331  0.03012  0.7663  1.0000
  H   H40       1.0  0.43301  0.54053  0.57479  1.0000
  H   H41       1.0  0.3285099999999999  0.2773999999999999  0.68813  1.0000
  H   H42       1.0  0.36408  0.1549  0.77965  1.0000
  H   H43       1.0  0.29231  0.3498  0.91723  1.0000
  H   H44       1.0  0.25  0.4718  0.82594  1.0000
  H   H45       1.0  0.08824999999999994  0.36368  0.70013  1.0000
  H   H46       1.0  0.90208  0.38008  0.64152  1.0000
  H   H47       1.0  0.96221  0.61343  0.52823  1.0000
  H   H48       1.0  0.14835999999999996  0.59797  0.58458  1.0000
  H   H49       1.0  0.17146  0.6354399999999998  0.73125  1.0000
  H   H50       1.0  0.25477  0.7656499999999998  0.80925  1.0000
  H   H51       1.0  0.54725  0.65946  0.81289  1.0000
  H   H52       1.0  0.46663  0.5302  0.73365  1.0000
  C   C1        1.0  0.28452  0.11900999999999998  0.25068  1.0000
  C   C2        1.0  0.3171099999999999  0.20817999999999995  0.2374  1.0000
  C   C3        1.0  0.33874  0.27567  0.28843  1.0000
  C   C4        1.0  0.3303  0.25445  0.35322  1.0000
  C   C5        1.0  0.29763  0.16533999999999993  0.36636  1.0000
  C   C6        1.0  0.27404  0.09786  0.31526  1.0000
  C   C7        1.0  0.35655  0.32735  0.4081199999999999  1.0000
  C   C8        1.0  0.12994  0.019529999999999992  0.14688  1.0000
  C   C9        1.0  0.06074999999999999  0.08161  0.16269  1.0000
  C   C10       1.0  0.95727  0.07278999999999997  0.13027  1.0000
  C   C11       1.0  0.9222199999999998  0.00198  0.08223  1.0000
  C   C12       1.0  0.9914899999999998  0.9402499999999998  0.06631  1.0000
  C   C13       1.0  0.09483  0.9489999999999997  0.09803  1.0000
  C   C14       1.0  0.81063  0.99121  0.0478  1.0000
  C   C15       1.0  0.31397  0.92609  0.22815  1.0000
  C   C16       1.0  0.25372  0.8593699999999997  0.24875000000000003  1.0000
  C   C17       1.0  0.29972  0.78673  0.29222  1.0000
  C   C18       1.0  0.40565  0.7807899999999999  0.31589  1.0000
  C   C19       1.0  0.46537  0.8464799999999998  0.29396  1.0000
  C   C20       1.0  0.42028999999999994  0.9183999999999998  0.25017  1.0000
  C   C21       1.0  0.45644  0.70613  0.36572  1.0000
  C   C22       1.0  0.71539  0.61883  0.24924  1.0000
  C   C23       1.0  0.6827399999999999  0.7079799999999999  0.26251  1.0000
  C   C24       1.0  0.6611799999999998  0.7755  0.21149  1.0000
  C   C25       1.0  0.66974  0.7543299999999997  0.14673  1.0000
  C   C26       1.0  0.7023899999999998  0.6651999999999999  0.13358  1.0000
  C   C27       1.0  0.7259299999999999  0.5977  0.18467  1.0000
  C   C28       1.0  0.6435399999999999  0.82731  0.09188  1.0000
  C   C29       1.0  0.8700799999999996  0.51945  0.35312  1.0000
  C   C30       1.0  0.93924  0.58158  0.33733  1.0000
  C   C31       1.0  0.042719999999999994  0.57282  0.36977  1.0000
  C   C32       1.0  0.0778  0.50203  0.41781  1.0000
  C   C33       1.0  0.008579999999999982  0.44026  0.43374  1.0000
  C   C34       1.0  0.90523  0.44896999999999987  0.40199  1.0000
  C   C35       1.0  0.18936999999999998  0.4912  0.45222  1.0000
  C   C36       1.0  0.68605  0.4259299999999999  0.27192  1.0000
  C   C37       1.0  0.74628  0.35923  0.25128  1.0000
  C   C38       1.0  0.70029  0.2866199999999999  0.20776999999999998  1.0000
  C   C39       1.0  0.59435  0.28074  0.18408  1.0000
  C   C40       1.0  0.53465  0.34638999999999986  0.20608  1.0000
  C   C41       1.0  0.57973  0.4182699999999999  0.2499  1.0000
  C   C42       1.0  0.54353  0.20615999999999995  0.1342  1.0000
  C   C43       1.0  0.71547  0.8809899999999998  0.74932  1.0000
  C   C44       1.0  0.68288  0.79183  0.7626  1.0000
  C   C45       1.0  0.66125  0.7243399999999998  0.71157  1.0000
  C   C46       1.0  0.66969  0.74556  0.64678  1.0000
  C   C47       1.0  0.70236  0.83467  0.63364  1.0000
  C   C48       1.0  0.72595  0.9021499999999998  0.68474  1.0000
  C   C49       1.0  0.64345  0.6726499999999997  0.59188  1.0000
  C   C50       1.0  0.87005  0.9804799999999998  0.85312  1.0000
  C   C51       1.0  0.9392499999999999  0.9183999999999998  0.83731  1.0000
  C   C52       1.0  0.04272000000000001  0.9272199999999998  0.8697299999999999  1.0000
  C   C53       1.0  0.07776999999999999  0.9980299999999999  0.91777  1.0000
  C   C54       1.0  0.00850999999999994  0.05975999999999999  0.9336899999999999  1.0000
  C   C55       1.0  0.90516  0.05101  0.9019699999999999  1.0000
  C   C56       1.0  0.18936000000000006  0.0088  0.9522  1.0000
  C   C57       1.0  0.68602  0.07392  0.77185  1.0000
  C   C58       1.0  0.74627  0.14064  0.75125  1.0000
  C   C59       1.0  0.70027  0.21328  0.70778  1.0000
  C   C60       1.0  0.59434  0.21921999999999997  0.68411  1.0000
  C   C61       1.0  0.5346199999999998  0.15353  0.70604  1.0000
  C   C62       1.0  0.5797  0.08161  0.74983  1.0000
  C   C63       1.0  0.54355  0.2938699999999999  0.63428  1.0000
  C   C64       1.0  0.2846  0.3811699999999999  0.75076  1.0000
  C   C65       1.0  0.31725  0.29202  0.73749  1.0000
  C   C66       1.0  0.33880999999999994  0.22450999999999993  0.78851  1.0000
  C   C67       1.0  0.33025  0.24567999999999995  0.85327  1.0000
  C   C68       1.0  0.29759999999999986  0.3348  0.86642  1.0000
  C   C69       1.0  0.27407  0.40231  0.81533  1.0000
  C   C70       1.0  0.35645  0.1727  0.90812  1.0000
  C   C71       1.0  0.12991  0.48054999999999987  0.64688  1.0000
  C   C72       1.0  0.06075000000000001  0.41843  0.66267  1.0000
  C   C73       1.0  0.95728  0.4271899999999999  0.63023  1.0000
  C   C74       1.0  0.9221899999999998  0.4979699999999999  0.58219  1.0000
  C   C75       1.0  0.99142  0.55975  0.56626  1.0000
  C   C76       1.0  0.09476  0.55104  0.59801  1.0000
  C   C77       1.0  0.81062  0.5088  0.54778  1.0000
  C   C78       1.0  0.31394  0.5740799999999998  0.72808  1.0000
  C   C79       1.0  0.25371  0.64078  0.74872  1.0000
  C   C80       1.0  0.2997  0.71339  0.79223  1.0000
  C   C81       1.0  0.40565  0.71927  0.81592  1.0000
  C   C82       1.0  0.46534  0.65362  0.79392  1.0000
  C   C83       1.0  0.42026  0.58174  0.7501  1.0000
  C   C84       1.0  0.45646999999999993  0.7938499999999997  0.8658  1.0000
  O   O1        1.0  0.32006  0.059509999999999987  0.1331  1.0000
  O   O2        1.0  0.3714299999999999  0.41013  0.38948  1.0000
  O   O3        1.0  0.36244  0.30191999999999997  0.46846  1.0000
  O   O4        1.0  0.7856  0.9224999999999998  0.006879999999999999  1.0000
  O   O5        1.0  0.75064  0.050529999999999985  0.062130000000000005  1.0000
  O   O6        1.0  0.3992  0.6474199999999999  0.38376  1.0000
  O   O7        1.0  0.55278  0.7080599999999999  0.38632  1.0000
  O   O8        1.0  0.44276  0.00503  0.04207  1.0000
  O   O9        1.0  0.68001  0.5595199999999998  0.36689  1.0000
  O   O10       1.0  0.6287399999999997  0.9100999999999998  0.1105  1.0000
  O   O11       1.0  0.63754  0.8018299999999998  0.03151  1.0000
  O   O12       1.0  0.21441999999999994  0.42252  0.49311  1.0000
  O   O13       1.0  0.24939  0.55053  0.43784  1.0000
  O   O14       1.0  0.6006999999999999  0.14751999999999998  0.11604  1.0000
  O   O15       1.0  0.44715  0.20809999999999998  0.11368  1.0000
  O   O16       1.0  0.55725  0.5050699999999999  0.45796  1.0000
  O   O17       1.0  0.67993  0.9405  0.8669  1.0000
  O   O18       1.0  0.6285599999999998  0.58988  0.61052  1.0000
  O   O19       1.0  0.63755  0.69809  0.53154  1.0000
  O   O20       1.0  0.21438999999999997  0.07750999999999997  0.9931199999999999  1.0000
  O   O21       1.0  0.24934999999999993  0.94948  0.93787  1.0000
  O   O22       1.0  0.60079  0.35258  0.61624  1.0000
  O   O23       1.0  0.44721  0.29193999999999987  0.61367  1.0000
  O   O24       1.0  0.55723  0.9949799999999998  0.95793  1.0000
  O   O25       1.0  0.31998  0.4404899999999999  0.63311  1.0000
  O   O26       1.0  0.3712499999999999  0.08991  0.8894999999999998  1.0000
  O   O27       1.0  0.36245  0.19818  0.96849  1.0000
  O   O28       1.0  0.78557  0.57749  0.50689  1.0000
  O   O29       1.0  0.7506  0.4494799999999999  0.56216  1.0000
  O   O30       1.0  0.39929  0.85249  0.88396  1.0000
  O   O31       1.0  0.55284  0.79191  0.88632  1.0000
  O   O32       1.0  0.44274  0.49494  0.54204  1.0000
