data_image0
_chemical_formula_structural       Cu6H60C96O24
_chemical_formula_sum              "Cu6 H60 C96 O24"
_cell_length_a       10.76414
_cell_length_b       27.05329
_cell_length_c       27.052920000000004
_cell_angle_alpha    118.50801
_cell_angle_beta     97.53387
_cell_angle_gamma    97.53377

_space_group_name_H-M_alt    "P 1"
_space_group_IT_number       1

loop_
  _space_group_symop_operation_xyz
  'x, y, z'

loop_
  _atom_site_type_symbol
  _atom_site_label
  _atom_site_symmetry_multiplicity
  _atom_site_fract_x
  _atom_site_fract_y
  _atom_site_fract_z
  _atom_site_occupancy
  Cu  Cu1       1.0  0.8979800000000004  0.4675800000000001  0.46758000000000005  1.0000
  Cu  Cu2       1.0  0.43037000000000003  6.00000000000007e-05  0.53231  1.0000
  Cu  Cu3       1.0  0.43016  0.53231  3.0000000000000004e-05  1.0000
  Cu  Cu4       1.0  0.5700000000000001  0.9999600000000002  0.46761  1.0000
  Cu  Cu5       1.0  0.10194000000000006  0.53242  0.5324300000000001  1.0000
  Cu  Cu6       1.0  0.56989  0.46763000000000005  0.9999500000000001  1.0000
  H   H1        1.0  0.028979999999999995  0.69924  0.57737  1.0000
  H   H2        1.0  0.69617  0.5843300000000001  0.4437000000000001  1.0000
  H   H3        1.0  0.9349  0.8354799999999999  0.59362  1.0000
  H   H4        1.0  0.07561000000000008  0.8077500000000001  0.5932100000000001  1.0000
  H   H5        1.0  0.9773300000000003  0.80969  0.64132  1.0000
  H   H6        1.0  0.32997  0.87831  0.30134  1.0000
  H   H7        1.0  0.11086  0.85952  0.41579  1.0000
  H   H8        1.0  0.09954000000000003  0.75814  0.16482000000000002  1.0000
  H   H9        1.0  0.2678400000000001  0.78546  0.19228000000000006  1.0000
  H   H10       1.0  0.16752000000000009  0.83185  0.19087000000000007  1.0000
  H   H11       1.0  0.4518699999999999  0.42267  0.12147  1.0000
  H   H12       1.0  0.25072  0.55605  0.14076  1.0000
  H   H13       1.0  0.34159000000000006  0.40685  0.24156000000000002  1.0000
  H   H14       1.0  0.48256  0.40691  0.21398  1.0000
  H   H15       1.0  0.3362  0.3589  0.16773  1.0000
  H   H16       1.0  0.54819  0.87862  0.57738  1.0000
  H   H17       1.0  0.74867  0.85897  0.44378  1.0000
  H   H18       1.0  0.6584500000000002  0.7585  0.5932200000000001  1.0000
  H   H19       1.0  0.5174400000000002  0.7860400000000001  0.59313  1.0000
  H   H20       1.0  0.66374  0.83231  0.64118  1.0000
  H   H21       1.0  0.97099  0.42269  0.30072  1.0000
  H   H22       1.0  0.30414  0.55611  0.41572000000000003  1.0000
  H   H23       1.0  0.06514  0.40645  0.16452  1.0000
  H   H24       1.0  0.92443  0.4068300000000001  0.19224000000000002  1.0000
  H   H25       1.0  0.022830000000000007  0.35877  0.19034  1.0000
  H   H26       1.0  0.67004  0.69866  0.12170000000000003  1.0000
  H   H27       1.0  0.8891900000000001  0.58424  0.14051  1.0000
  H   H28       1.0  0.90047  0.8352  0.24187  1.0000
  H   H29       1.0  0.7321700000000001  0.8077400000000001  0.21455  1.0000
  H   H30       1.0  0.8325000000000001  0.80914  0.16815000000000002  1.0000
  H   H31       1.0  0.97099  0.30072  0.42269  1.0000
  H   H32       1.0  0.3041400000000001  0.41572000000000003  0.55612  1.0000
  H   H33       1.0  0.06514000000000002  0.16452000000000003  0.40645000000000003  1.0000
  H   H34       1.0  0.92443  0.19224  0.40684  1.0000
  H   H35       1.0  0.02283  0.19034  0.35878  1.0000
  H   H36       1.0  0.6700300000000001  0.12158000000000009  0.6986000000000001  1.0000
  H   H37       1.0  0.88884  0.14076000000000002  0.58431  1.0000
  H   H38       1.0  0.9004300000000001  0.24180000000000004  0.8351800000000003  1.0000
  H   H39       1.0  0.73213  0.2145100000000001  0.80773  1.0000
  H   H40       1.0  0.83237  0.16810000000000008  0.8091700000000001  1.0000
  H   H41       1.0  0.5482200000000002  0.57739  0.8786400000000002  1.0000
  H   H42       1.0  0.74867  0.44378000000000006  0.8589800000000001  1.0000
  H   H43       1.0  0.6584399999999999  0.5932099999999999  0.7585  1.0000
  H   H44       1.0  0.5174400000000001  0.59313  0.78604  1.0000
  H   H45       1.0  0.66374  0.64118  0.83231  1.0000
  H   H46       1.0  0.45189000000000007  0.12148000000000005  0.42266000000000004  1.0000
  H   H47       1.0  0.2507400000000001  0.14075000000000004  0.5560400000000001  1.0000
  H   H48       1.0  0.34159000000000006  0.24156000000000008  0.4068500000000001  1.0000
  H   H49       1.0  0.48255  0.21399  0.40691  1.0000
  H   H50       1.0  0.3362  0.16774  0.3589  1.0000
  H   H51       1.0  0.028980000000000037  0.57737  0.69925  1.0000
  H   H52       1.0  0.69617  0.4437  0.58433  1.0000
  H   H53       1.0  0.9349000000000001  0.5936200000000001  0.8354800000000001  1.0000
  H   H54       1.0  0.07561000000000004  0.5932  0.80775  1.0000
  H   H55       1.0  0.9773300000000003  0.6413200000000001  0.80969  1.0000
  H   H56       1.0  0.32996  0.30135000000000006  0.87839  1.0000
  H   H57       1.0  0.11112000000000011  0.41571000000000013  0.8592700000000002  1.0000
  H   H58       1.0  0.09955999999999991  0.16479999999999995  0.75821  1.0000
  H   H59       1.0  0.2678700000000002  0.19227000000000016  0.7855000000000002  1.0000
  H   H60       1.0  0.16763000000000017  0.19082000000000013  0.8319100000000003  1.0000
  C   C1        1.0  0.86874  0.6373  0.51071  1.0000
  C   C2        1.0  0.9396399999999999  0.69364  0.5494  1.0000
  C   C3        1.0  0.8984700000000001  0.74218  0.55321  1.0000
  C   C4        1.0  0.78307  0.73318  0.51504  1.0000
  C   C5        1.0  0.71773  0.6766100000000002  0.4777  1.0000
  C   C6        1.0  0.75217  0.62797  0.47345  1.0000
  C   C7        1.0  0.9168300000000001  0.58711  0.50841  1.0000
  C   C8        1.0  0.9753800000000002  0.80204  0.59747  1.0000
  C   C9        1.0  0.23081000000000004  0.87349  0.36294  1.0000
  C   C10       1.0  0.24591000000000002  0.85585  0.30666  1.0000
  C   C11       1.0  0.1563100000000001  0.8111300000000001  0.25804  1.0000
  C   C12       1.0  0.04965999999999999  0.78199  0.26694  1.0000
  C   C13       1.0  0.040449999999999965  0.80123  0.32339  1.0000
  C   C14       1.0  0.12332000000000005  0.8456200000000001  0.37216000000000005  1.0000
  C   C15       1.0  0.3288  0.92135  0.41326000000000007  1.0000
  C   C16       1.0  0.17340000000000005  0.79553  0.19822000000000004  1.0000
  C   C17       1.0  0.35726  0.48918  0.12637  1.0000
  C   C18       1.0  0.39009000000000005  0.45061  0.14392  1.0000
  C   C19       1.0  0.34532  0.44695  0.18872  1.0000
  C   C20       1.0  0.26769000000000015  0.48512000000000016  0.21810000000000004  1.0000
  C   C21       1.0  0.23906000000000002  0.52224  0.19897  1.0000
  C   C22       1.0  0.27742  0.52636  0.15449  1.0000
  C   C23       1.0  0.40795  0.49159  0.07860000000000002  1.0000
  C   C24       1.0  0.37813  0.40274  0.20414  1.0000
  C   C25       1.0  0.6427000000000002  0.8735800000000001  0.5108100000000001  1.0000
  C   C26       1.0  0.60992  0.8561200000000001  0.54944  1.0000
  C   C27       1.0  0.65469  0.81133  0.55313  1.0000
  C   C28       1.0  0.7322700000000001  0.78188  0.51497  1.0000
  C   C29       1.0  0.7606400000000001  0.8008  0.47759  1.0000
  C   C30       1.0  0.72215  0.84531  0.47355  1.0000
  C   C31       1.0  0.59207  0.9213699999999999  0.50841  1.0000
  C   C32       1.0  0.6218800000000001  0.79591  0.5973300000000001  1.0000
  C   C33       1.0  0.13131999999999996  0.4892599999999999  0.36271  1.0000
  C   C34       1.0  0.060379999999999996  0.45065  0.30635  1.0000
  C   C35       1.0  0.10157000000000001  0.44689  0.25784  1.0000
  C   C36       1.0  0.21707000000000004  0.48508  0.26692  1.0000
  C   C37       1.0  0.28244000000000014  0.52219  0.32343000000000005  1.0000
  C   C38       1.0  0.24808000000000002  0.52643  0.37208  1.0000
  C   C39       1.0  0.08313  0.49158  0.41289  1.0000
  C   C40       1.0  0.0247  0.40261  0.19797  1.0000
  C   C41       1.0  0.76919  0.63708  0.12656  1.0000
  C   C42       1.0  0.7541000000000001  0.6933600000000001  0.14418  1.0000
  C   C43       1.0  0.8437100000000001  0.74198  0.18888000000000002  1.0000
  C   C44       1.0  0.95036  0.73309  0.21804000000000004  1.0000
  C   C45       1.0  0.9596000000000001  0.6766400000000001  0.1988  1.0000
  C   C46       1.0  0.8767100000000002  0.62787  0.15443000000000004  1.0000
  C   C47       1.0  0.6712  0.58674  0.07872  1.0000
  C   C48       1.0  0.8266100000000001  0.8018  0.20448  1.0000
  C   C49       1.0  0.13132  0.36271  0.48926  1.0000
  C   C50       1.0  0.06038000000000002  0.30635  0.45065000000000005  1.0000
  C   C51       1.0  0.10157000000000001  0.25784  0.44689  1.0000
  C   C52       1.0  0.21707000000000004  0.26691  0.48508  1.0000
  C   C53       1.0  0.28244000000000014  0.32343000000000005  0.5222  1.0000
  C   C54       1.0  0.24808000000000002  0.37208  0.52643  1.0000
  C   C55       1.0  0.08313000000000004  0.41289000000000003  0.49158  1.0000
  C   C56       1.0  0.02470000000000003  0.19797000000000003  0.4026100000000001  1.0000
  C   C57       1.0  0.7692  0.12660000000000005  0.6370900000000002  1.0000
  C   C58       1.0  0.75408  0.1441100000000001  0.6933500000000001  1.0000
  C   C59       1.0  0.84367  0.18880000000000005  0.74198  1.0000
  C   C60       1.0  0.9503200000000005  0.21803000000000017  0.7331700000000002  1.0000
  C   C61       1.0  0.95953  0.19902000000000006  0.6766800000000001  1.0000
  C   C62       1.0  0.87649  0.15461000000000005  0.6279600000000001  1.0000
  C   C63       1.0  0.67123  0.07873  0.58677  1.0000
  C   C64       1.0  0.8265400000000002  0.20441  0.8018  1.0000
  C   C65       1.0  0.64268  0.5108  0.87358  1.0000
  C   C66       1.0  0.6099300000000001  0.54944  0.85613  1.0000
  C   C67       1.0  0.6547  0.55313  0.81134  1.0000
  C   C68       1.0  0.73227  0.51497  0.78189  1.0000
  C   C69       1.0  0.7606400000000002  0.4775900000000001  0.8008100000000002  1.0000
  C   C70       1.0  0.7221400000000002  0.47355000000000014  0.8453200000000001  1.0000
  C   C71       1.0  0.59205  0.5084  0.92138  1.0000
  C   C72       1.0  0.62188  0.59733  0.79592  1.0000
  C   C73       1.0  0.35727000000000003  0.12636000000000003  0.48917000000000005  1.0000
  C   C74       1.0  0.3901  0.14392  0.4506  1.0000
  C   C75       1.0  0.34533  0.18872000000000003  0.44695000000000007  1.0000
  C   C76       1.0  0.26769  0.21810000000000007  0.4851200000000001  1.0000
  C   C77       1.0  0.23908  0.19896  0.52224  1.0000
  C   C78       1.0  0.27744  0.15448  0.52635  1.0000
  C   C79       1.0  0.40796000000000004  0.07860000000000006  0.49159000000000014  1.0000
  C   C80       1.0  0.37813  0.20414000000000002  0.40274000000000004  1.0000
  C   C81       1.0  0.86874  0.51071  0.6373  1.0000
  C   C82       1.0  0.9396399999999999  0.5494  0.69365  1.0000
  C   C83       1.0  0.8984600000000001  0.55321  0.74218  1.0000
  C   C84       1.0  0.78307  0.51503  0.73318  1.0000
  C   C85       1.0  0.7177300000000002  0.47769000000000006  0.6766200000000001  1.0000
  C   C86       1.0  0.75217  0.47345  0.62797  1.0000
  C   C87       1.0  0.9168300000000001  0.50841  0.58711  1.0000
  C   C88       1.0  0.97537  0.5974700000000001  0.8020400000000002  1.0000
  C   C89       1.0  0.23084000000000005  0.36289000000000005  0.87342  1.0000
  C   C90       1.0  0.24593000000000012  0.3066400000000001  0.8558800000000001  1.0000
  C   C91       1.0  0.15631000000000014  0.2580000000000001  0.8112000000000003  1.0000
  C   C92       1.0  0.04969000000000004  0.2668200000000001  0.78199  1.0000
  C   C93       1.0  0.040559999999999985  0.32331999999999994  0.80104  1.0000
  C   C94       1.0  0.12351000000000002  0.37207000000000007  0.8454100000000001  1.0000
  C   C95       1.0  0.3286500000000002  0.4132500000000002  0.9213100000000002  1.0000
  C   C96       1.0  0.17344999999999997  0.19817999999999994  0.79559  1.0000
  O   O1        1.0  0.84103  0.53733  0.477  1.0000
  O   O2        1.0  0.03049000000000007  0.59783  0.53775  1.0000
  O   O3        1.0  0.30242  0.9395800000000001  0.46303  1.0000
  O   O4        1.0  0.43170000000000014  0.9400800000000002  0.4025900000000001  1.0000
  O   O5        1.0  0.3627  0.5227  0.06011000000000001  1.0000
  O   O6        1.0  0.49335000000000007  0.46262  0.06022000000000002  1.0000
  O   O7        1.0  0.6373500000000001  0.93987  0.47731000000000007  1.0000
  O   O8        1.0  0.50662  0.93978  0.53738  1.0000
  O   O9        1.0  0.15885000000000005  0.523  0.46267  1.0000
  O   O10       1.0  0.9694400000000002  0.46224  0.4021600000000001  1.0000
  O   O11       1.0  0.69753  0.53697  0.06058  1.0000
  O   O12       1.0  0.56834  0.5973900000000001  0.05992  1.0000
  O   O13       1.0  0.15885000000000007  0.4626700000000001  0.5230000000000001  1.0000
  O   O14       1.0  0.9694400000000002  0.40215999999999996  0.46224  1.0000
  O   O15       1.0  0.6975700000000001  0.06054999999999998  0.53699  1.0000
  O   O16       1.0  0.56833  0.05993000000000007  0.59741  1.0000
  O   O17       1.0  0.6373400000000001  0.47732000000000013  0.9398900000000002  1.0000
  O   O18       1.0  0.5065800000000003  0.5373700000000002  0.9397800000000002  1.0000
  O   O19       1.0  0.36271  0.06012000000000001  0.5227  1.0000
  O   O20       1.0  0.4933600000000001  0.06021000000000004  0.46261000000000013  1.0000
  O   O21       1.0  0.84103  0.477  0.53734  1.0000
  O   O22       1.0  0.030490000000000027  0.5377500000000001  0.5978300000000001  1.0000
  O   O23       1.0  0.3020500000000001  0.46298000000000017  0.9395200000000002  1.0000
  O   O24       1.0  0.43161000000000005  0.40262999999999993  0.94009  1.0000
