data_image0
_chemical_formula_structural       Gd4H72C102O24
_chemical_formula_sum              "Gd4 H72 C102 O24"
_cell_length_a       11.21909
_cell_length_b       13.41923
_cell_length_c       23.71921
_cell_angle_alpha    77.22311
_cell_angle_beta     75.48011
_cell_angle_gamma    68.89726

_space_group_name_H-M_alt    "P 1"
_space_group_IT_number       1

loop_
  _space_group_symop_operation_xyz
  'x, y, z'

loop_
  _atom_site_type_symbol
  _atom_site_label
  _atom_site_symmetry_multiplicity
  _atom_site_fract_x
  _atom_site_fract_y
  _atom_site_fract_z
  _atom_site_occupancy
  Gd  Gd1       1.0  0.63448  0.30439000000000005  0.48082999999999987  1.0000
  Gd  Gd2       1.0  0.8412399999999999  0.58628  0.03786  1.0000
  Gd  Gd3       1.0  0.36552999999999997  0.69562  0.51917  1.0000
  Gd  Gd4       1.0  0.15875999999999996  0.41372000000000014  0.96214  1.0000
  H   H1        1.0  0.9882400000000001  0.3414800000000002  0.8808999999999998  1.0000
  H   H2        1.0  0.96831  0.28874000000000005  0.79044  1.0000
  H   H3        1.0  0.9084500000000001  0.2741  0.69244  1.0000
  H   H4        1.0  0.82889  0.30899000000000004  0.5986499999999999  1.0000
  H   H5        1.0  0.5254499999999999  0.5970300000000002  0.6501899999999999  1.0000
  H   H6        1.0  0.39701  0.62586  0.76035  1.0000
  H   H7        1.0  0.42996999999999996  0.63116  0.82878  1.0000
  H   H8        1.0  0.45285  0.50421  0.809  1.0000
  H   H9        1.0  0.7078600000000002  0.69256  0.7150799999999998  1.0000
  H   H10       1.0  0.58042  0.74073  0.7744499999999999  1.0000
  H   H11       1.0  0.54229  0.73629  0.70711  1.0000
  H   H12       1.0  0.6399900000000004  0.6158000000000001  0.87202  1.0000
  H   H13       1.0  0.18958999999999993  0.6313300000000002  0.81576  1.0000
  H   H14       1.0  0.16437999999999986  0.7304100000000003  0.7140399999999999  1.0000
  H   H15       1.0  0.10074999999999987  0.8633600000000002  0.6225099999999999  1.0000
  H   H16       1.0  0.9916900000000002  0.0020900000000000337  0.5465099999999999  1.0000
  H   H17       1.0  0.65972  0.1286  0.6792499999999999  1.0000
  H   H18       1.0  0.6620700000000002  0.87266  0.76972  1.0000
  H   H19       1.0  0.5641  0.00908000000000001  0.77577  1.0000
  H   H20       1.0  0.6176099999999994  0.9206500000000002  0.8389  1.0000
  H   H21       1.0  0.71624  0.05996000000000002  0.85296  1.0000
  H   H22       1.0  0.6585199999999999  0.14277  0.78944  1.0000
  H   H23       1.0  0.8255200000000003  0.10593000000000004  0.7933699999999999  1.0000
  H   H24       1.0  0.8261599999999999  0.8491900000000001  0.8907299999999999  1.0000
  H   H25       1.0  0.49000999999999995  0.025140000000000003  0.45180999999999993  1.0000
  H   H26       1.0  0.49071000000000004  0.8859300000000001  0.39724  1.0000
  H   H27       1.0  0.5254100000000003  0.7558300000000001  0.32212999999999997  1.0000
  H   H28       1.0  0.57543  0.66461  0.23316999999999996  1.0000
  H   H29       1.0  0.79371  0.8720600000000001  0.13308  1.0000
  H   H30       1.0  0.75553  0.07322000000000001  0.13891  1.0000
  H   H31       1.0  0.7385700000000002  0.15715000000000007  0.19067999999999993  1.0000
  H   H32       1.0  0.60367  0.11989  0.18697999999999998  1.0000
  H   H33       1.0  0.9319899999999998  0.8808200000000003  0.25748  1.0000
  H   H34       1.0  0.93392  0.015030000000000003  0.23047999999999996  1.0000
  H   H35       1.0  0.95036  0.9282100000000001  0.18023999999999998  1.0000
  H   H36       1.0  0.74141  0.14168  0.30313999999999997  1.0000
  H   H37       1.0  0.01175999999999996  0.65852  0.11909999999999997  1.0000
  H   H38       1.0  0.03168999999999999  0.71126  0.20955999999999997  1.0000
  H   H39       1.0  0.09155999999999997  0.7259  0.30756  1.0000
  H   H40       1.0  0.17111000000000018  0.6910099999999999  0.40135  1.0000
  H   H41       1.0  0.4745499999999999  0.40298  0.34981  1.0000
  H   H42       1.0  0.6029999999999999  0.37414  0.23964999999999997  1.0000
  H   H43       1.0  0.5700400000000002  0.36884  0.17121999999999998  1.0000
  H   H44       1.0  0.54715  0.4958000000000001  0.191  1.0000
  H   H45       1.0  0.2921499999999999  0.3074400000000001  0.28492  1.0000
  H   H46       1.0  0.41958999999999996  0.25927000000000006  0.22554999999999997  1.0000
  H   H47       1.0  0.45770999999999995  0.26372  0.29289  1.0000
  H   H48       1.0  0.36001000000000005  0.3842  0.12798  1.0000
  H   H49       1.0  0.8104100000000001  0.36867  0.18424  1.0000
  H   H50       1.0  0.83562  0.2696000000000001  0.28595  1.0000
  H   H51       1.0  0.89925  0.13664000000000004  0.37749  1.0000
  H   H52       1.0  0.008309999999999968  0.9979100000000001  0.45348999999999995  1.0000
  H   H53       1.0  0.3402799999999998  0.87141  0.32075  1.0000
  H   H54       1.0  0.33793  0.12734  0.23027999999999998  1.0000
  H   H55       1.0  0.43589999999999984  0.9909200000000002  0.22423  1.0000
  H   H56       1.0  0.38238999999999995  0.07936000000000003  0.1611  1.0000
  H   H57       1.0  0.28376  0.9400400000000002  0.14704  1.0000
  H   H58       1.0  0.34147999999999984  0.8572400000000004  0.21054999999999996  1.0000
  H   H59       1.0  0.17447999999999986  0.8940800000000002  0.20663  1.0000
  H   H60       1.0  0.17383999999999997  0.15082000000000007  0.10927  1.0000
  H   H61       1.0  0.5099899999999999  0.9748600000000001  0.54819  1.0000
  H   H62       1.0  0.5092899999999999  0.11407000000000006  0.60276  1.0000
  H   H63       1.0  0.4745900000000001  0.24417000000000016  0.6778699999999999  1.0000
  H   H64       1.0  0.42457000000000006  0.33540000000000003  0.76683  1.0000
  H   H65       1.0  0.20629000000000003  0.12794000000000005  0.8669099999999997  1.0000
  H   H66       1.0  0.2444699999999999  0.9267800000000003  0.8610899999999999  1.0000
  H   H67       1.0  0.26143000000000005  0.84285  0.80932  1.0000
  H   H68       1.0  0.39634  0.88011  0.8130199999999999  1.0000
  H   H69       1.0  0.06801000000000008  0.11919000000000009  0.7425199999999997  1.0000
  H   H70       1.0  0.06608000000000011  0.98497  0.76952  1.0000
  H   H71       1.0  0.049649999999999965  0.07179000000000003  0.81976  1.0000
  H   H72       1.0  0.2585899999999998  0.8583200000000002  0.69686  1.0000
  C   C1        1.0  0.83221  0.51332  0.93384  1.0000
  C   C2        1.0  0.81553  0.48138  0.88123  1.0000
  C   C3        1.0  0.9079099999999999  0.3894700000000001  0.8582999999999997  1.0000
  C   C4        1.0  0.8964700000000001  0.3600900000000001  0.8076099999999998  1.0000
  C   C5        1.0  0.7933000000000001  0.42525000000000013  0.77898  1.0000
  C   C6        1.0  0.7629299999999999  0.4190400000000001  0.72364  1.0000
  C   C7        1.0  0.8254799999999998  0.34485999999999994  0.68356  1.0000
  C   C8        1.0  0.7809700000000002  0.36386  0.63107  1.0000
  C   C9        1.0  0.6739299999999999  0.4551300000000002  0.6186399999999999  1.0000
  C   C10       1.0  0.6307999999999998  0.47621000000000013  0.56164  1.0000
  C   C11       1.0  0.60855  0.52733  0.6600599999999999  1.0000
  C   C12       1.0  0.65334  0.5093200000000002  0.7120299999999999  1.0000
  C   C13       1.0  0.6029800000000001  0.5787700000000001  0.7612799999999998  1.0000
  C   C14       1.0  0.46243999999999996  0.5845200000000002  0.7919099999999999  1.0000
  C   C15       1.0  0.60936  0.694  0.73786  1.0000
  C   C16       1.0  0.7005199999999998  0.51795  0.8017999999999998  1.0000
  C   C17       1.0  0.70974  0.54511  0.85337  1.0000
  C   C18       1.0  0.02341999999999995  0.6713400000000003  0.9173399999999998  1.0000
  C   C19       1.0  0.010910000000000052  0.7365200000000002  0.8582899999999998  1.0000
  C   C20       1.0  0.10608999999999993  0.70252  0.80886  1.0000
  C   C21       1.0  0.09165999999999998  0.75726  0.7525  1.0000
  C   C22       1.0  0.98022  0.8468700000000001  0.7462199999999999  1.0000
  C   C23       1.0  0.94021  0.9183900000000003  0.6935599999999998  1.0000
  C   C24       1.0  0.004609999999999837  0.9206100000000004  0.63479  1.0000
  C   C25       1.0  0.94367  0.99851  0.59243  1.0000
  C   C26       1.0  0.81917  0.0723800000000001  0.6085199999999998  1.0000
  C   C27       1.0  0.7550300000000001  0.15202000000000002  0.5625099999999998  1.0000
  C   C28       1.0  0.7553999999999998  0.07047000000000002  0.66784  1.0000
  C   C29       1.0  0.8166700000000001  0.9941800000000002  0.7102899999999999  1.0000
  C   C30       1.0  0.7690700000000001  0.97594  0.77665  1.0000
  C   C31       1.0  0.6454099999999999  0.9422600000000002  0.7911699999999998  1.0000
  C   C32       1.0  0.7412600000000001  0.07725000000000004  0.8047999999999998  1.0000
  C   C33       1.0  0.8834399999999999  0.881  0.79566  1.0000
  C   C34       1.0  0.89872  0.82632  0.85163  1.0000
  C   C35       1.0  0.61534  0.17140000000000002  0.41461  1.0000
  C   C36       1.0  0.61515  0.09133000000000002  0.38075  1.0000
  C   C37       1.0  0.54455  0.01938  0.40711  1.0000
  C   C38       1.0  0.5447999999999998  0.94163  0.37666  1.0000
  C   C39       1.0  0.6151  0.9375300000000001  0.31890999999999997  1.0000
  C   C40       1.0  0.6310799999999999  0.8672200000000001  0.27651  1.0000
  C   C41       1.0  0.5830699999999999  0.7819100000000001  0.28098  1.0000
  C   C42       1.0  0.6108499999999998  0.73093  0.23166  1.0000
  C   C43       1.0  0.68638  0.76407  0.17880999999999994  1.0000
  C   C44       1.0  0.7219600000000002  0.70839  0.12671  1.0000
  C   C45       1.0  0.7351599999999999  0.8489900000000001  0.17461999999999997  1.0000
  C   C46       1.0  0.70782  0.89967  0.22335  1.0000
  C   C47       1.0  0.7523399999999997  0.9906300000000002  0.2294  1.0000
  C   C48       1.0  0.70958  0.09150000000000001  0.18373999999999996  1.0000
  C   C49       1.0  0.9016899999999998  0.9510200000000004  0.22402999999999995  1.0000
  C   C50       1.0  0.6847700000000001  0.010570000000000006  0.29198999999999997  1.0000
  C   C51       1.0  0.6863700000000001  0.08640000000000002  0.32281  1.0000
  C   C52       1.0  0.1678  0.48668  0.06616  1.0000
  C   C53       1.0  0.18447000000000002  0.51862  0.11877  1.0000
  C   C54       1.0  0.09208999999999999  0.61053  0.1417  1.0000
  C   C55       1.0  0.10352999999999998  0.63992  0.19239  1.0000
  C   C56       1.0  0.2067  0.57475  0.22102  1.0000
  C   C57       1.0  0.2370700000000001  0.58096  0.27636  1.0000
  C   C58       1.0  0.17451999999999998  0.65514  0.31644  1.0000
  C   C59       1.0  0.21902999999999992  0.6361400000000003  0.36893  1.0000
  C   C60       1.0  0.32606999999999997  0.5448700000000002  0.38135999999999987  1.0000
  C   C61       1.0  0.3692  0.52379  0.43836  1.0000
  C   C62       1.0  0.3914499999999999  0.4726800000000001  0.33993999999999996  1.0000
  C   C63       1.0  0.34666999999999987  0.49068000000000006  0.28797  1.0000
  C   C64       1.0  0.3970199999999999  0.4212400000000001  0.23872  1.0000
  C   C65       1.0  0.53757  0.4154800000000001  0.20808999999999994  1.0000
  C   C66       1.0  0.39064  0.306  0.26214  1.0000
  C   C67       1.0  0.29948  0.48205000000000003  0.19819999999999993  1.0000
  C   C68       1.0  0.29026  0.45489  0.14663  1.0000
  C   C69       1.0  0.97658  0.3286700000000001  0.08265  1.0000
  C   C70       1.0  0.98909  0.26348  0.14171  1.0000
  C   C71       1.0  0.8939200000000002  0.29749  0.19113999999999998  1.0000
  C   C72       1.0  0.9083400000000003  0.24274000000000004  0.24749999999999994  1.0000
  C   C73       1.0  0.019779999999999985  0.15314  0.25377  1.0000
  C   C74       1.0  0.0598  0.08161  0.30644  1.0000
  C   C75       1.0  0.9953900000000001  0.07940000000000001  0.3652099999999999  1.0000
  C   C76       1.0  0.05633000000000001  0.001489999999999995  0.40757  1.0000
  C   C77       1.0  0.1808299999999998  0.9276200000000001  0.39148  1.0000
  C   C78       1.0  0.24496999999999994  0.8479900000000001  0.43749  1.0000
  C   C79       1.0  0.24459999999999993  0.92954  0.33216  1.0000
  C   C80       1.0  0.18333000000000005  0.00582000000000001  0.28970999999999997  1.0000
  C   C81       1.0  0.23093000000000002  0.024070000000000008  0.22335  1.0000
  C   C82       1.0  0.35459  0.05775000000000002  0.20882999999999996  1.0000
  C   C83       1.0  0.25873999999999997  0.9227500000000002  0.19519999999999998  1.0000
  C   C84       1.0  0.11656000000000001  0.119  0.20434  1.0000
  C   C85       1.0  0.10128999999999999  0.17369000000000007  0.14837  1.0000
  C   C86       1.0  0.38466000000000006  0.8286  0.58539  1.0000
  C   C87       1.0  0.38485  0.9086700000000001  0.6192499999999999  1.0000
  C   C88       1.0  0.45545  0.9806199999999999  0.59289  1.0000
  C   C89       1.0  0.45520000000000005  0.058370000000000075  0.6233299999999999  1.0000
  C   C90       1.0  0.3849  0.062480000000000084  0.6810899999999999  1.0000
  C   C91       1.0  0.3689200000000002  0.13278999999999996  0.72349  1.0000
  C   C92       1.0  0.4169300000000001  0.2181  0.71902  1.0000
  C   C93       1.0  0.38915000000000005  0.26907000000000003  0.7683299999999997  1.0000
  C   C94       1.0  0.31362000000000007  0.23593  0.82119  1.0000
  C   C95       1.0  0.27804000000000006  0.2916100000000001  0.87329  1.0000
  C   C96       1.0  0.26485000000000003  0.15101999999999996  0.82538  1.0000
  C   C97       1.0  0.29217999999999994  0.10033  0.77665  1.0000
  C   C98       1.0  0.24766000000000002  0.009379999999999977  0.7706  1.0000
  C   C99       1.0  0.29042  0.9085  0.8162599999999999  1.0000
  C   C100      1.0  0.09830999999999997  0.04898000000000001  0.77597  1.0000
  C   C101      1.0  0.3152299999999999  0.9894300000000003  0.70801  1.0000
  C   C102      1.0  0.31363000000000013  0.9136  0.67719  1.0000
  O   O1        1.0  0.7374699999999997  0.57789  0.9642199999999999  1.0000
  O   O2        1.0  0.9455799999999998  0.47534000000000015  0.94887  1.0000
  O   O3        1.0  0.52756  0.5559900000000001  0.55352  1.0000
  O   O4        1.0  0.6957099999999999  0.4151500000000001  0.52239  1.0000
  O   O5        1.0  0.9274699999999999  0.6956000000000001  0.95985  1.0000
  O   O6        1.0  0.12807000000000004  0.59117  0.9221199999999998  1.0000
  O   O7        1.0  0.6352100000000002  0.21301999999999996  0.57632  1.0000
  O   O8        1.0  0.81698  0.16139000000000003  0.5090399999999999  1.0000
  O   O9        1.0  0.5485  0.17717  0.46718  1.0000
  O   O10       1.0  0.6844899999999999  0.23533000000000004  0.39164999999999994  1.0000
  O   O11       1.0  0.6879999999999998  0.6258000000000002  0.12808  1.0000
  O   O12       1.0  0.7933499999999998  0.7419700000000002  0.07999  1.0000
  O   O13       1.0  0.26253  0.42211  0.03578  1.0000
  O   O14       1.0  0.05442999999999999  0.52466  0.051129999999999995  1.0000
  O   O15       1.0  0.47243999999999997  0.44402000000000014  0.4464799999999999  1.0000
  O   O16       1.0  0.30428999999999995  0.5848500000000002  0.47760999999999987  1.0000
  O   O17       1.0  0.07253000000000001  0.30441  0.04015  1.0000
  O   O18       1.0  0.8719299999999999  0.4088400000000001  0.07787999999999999  1.0000
  O   O19       1.0  0.36479  0.78698  0.42368  1.0000
  O   O20       1.0  0.18302000000000002  0.83862  0.49095999999999995  1.0000
  O   O21       1.0  0.45149999999999996  0.8228400000000001  0.53282  1.0000
  O   O22       1.0  0.3155099999999999  0.7646800000000002  0.6083399999999999  1.0000
  O   O23       1.0  0.3120000000000001  0.3741999999999999  0.87191  1.0000
  O   O24       1.0  0.20665000000000006  0.25803  0.92  1.0000
