data_image0
_chemical_formula_structural       Zn8H16C80O64
_chemical_formula_sum              "Zn8 H16 C80 O64"
_cell_length_a       15.89449
_cell_length_b       15.893160000000002
_cell_length_c       19.28395
_cell_angle_alpha    114.48019
_cell_angle_beta     114.47055
_cell_angle_gamma    89.84525

_space_group_name_H-M_alt    "P 1"
_space_group_IT_number       1

loop_
  _space_group_symop_operation_xyz
  'x, y, z'

loop_
  _atom_site_type_symbol
  _atom_site_label
  _atom_site_symmetry_multiplicity
  _atom_site_fract_x
  _atom_site_fract_y
  _atom_site_fract_z
  _atom_site_occupancy
  Zn  Zn1       1.0  0.34515  0.59494  0.25028  1.0000
  Zn  Zn2       1.0  0.90507  0.1548899999999999  0.24972999999999995  1.0000
  Zn  Zn3       1.0  0.15631  0.34355  0.74994  1.0000
  Zn  Zn4       1.0  0.59526  0.9047599999999998  0.75002  1.0000
  Zn  Zn5       1.0  0.6548399999999999  0.40506999999999976  0.7497299999999998  1.0000
  Zn  Zn6       1.0  0.09492999999999985  0.84512  0.7502699999999998  1.0000
  Zn  Zn7       1.0  0.84369  0.6564499999999998  0.25006  1.0000
  Zn  Zn8       1.0  0.40474  0.09525  0.24998999999999993  1.0000
  H   H1        1.0  0.24962  0.37686999999999987  0.00016  1.0000
  H   H2        1.0  0.24985999999999994  0.06284999999999996  0.9997899999999998  1.0000
  H   H3        1.0  0.75055  0.12397  0.00041  1.0000
  H   H4        1.0  0.7502  0.4375099999999999  0.9996699999999998  1.0000
  H   H5        1.0  0.12314999999999995  0.2503599999999999  0.4998499999999999  1.0000
  H   H6        1.0  0.43713  0.2502  0.50019  1.0000
  H   H7        1.0  0.37604999999999994  0.74945  0.4995699999999999  1.0000
  H   H8        1.0  0.06256000000000002  0.7497999999999998  0.50036  1.0000
  H   H9        1.0  0.7503799999999999  0.6231299999999999  0.9998399999999998  1.0000
  H   H10       1.0  0.75014  0.93715  0.00020999999999999995  1.0000
  H   H11       1.0  0.24945  0.87603  0.99959  1.0000
  H   H12       1.0  0.2498  0.56249  0.0003299999999999999  1.0000
  H   H13       1.0  0.87684  0.74964  0.50015  1.0000
  H   H14       1.0  0.5628699999999999  0.7497999999999998  0.49980999999999987  1.0000
  H   H15       1.0  0.62395  0.25055  0.50043  1.0000
  H   H16       1.0  0.9374299999999998  0.25019999999999987  0.49963999999999986  1.0000
  C   C1        1.0  0.29447  0.30373  0.07745  1.0000
  C   C2        1.0  0.2963299999999999  0.21324  0.07727999999999997  1.0000
  C   C3        1.0  0.34573  0.39429999999999993  0.15684999999999993  1.0000
  C   C4        1.0  0.33628  0.20494999999999988  0.15897999999999995  1.0000
  C   C5        1.0  0.78332  0.27453  0.07743  1.0000
  C   C6        1.0  0.7817  0.36481999999999987  0.07722999999999997  1.0000
  C   C7        1.0  0.81068  0.2638  0.15684999999999993  1.0000
  C   C8        1.0  0.82408  0.45483  0.15903  1.0000
  C   C9        1.0  0.2735699999999999  0.29456999999999994  0.5772399999999999  1.0000
  C   C10       1.0  0.36395  0.29635  0.57735  1.0000
  C   C11       1.0  0.26225999999999994  0.34597  0.65645  1.0000
  C   C12       1.0  0.45379999999999987  0.3367499999999999  0.6592899999999998  1.0000
  C   C13       1.0  0.3034499999999999  0.7824999999999999  0.5773199999999998  1.0000
  C   C14       1.0  0.21310000000000007  0.78115  0.57748  1.0000
  C   C15       1.0  0.3940399999999999  0.80978  0.6565899999999998  1.0000
  C   C16       1.0  0.20558000000000007  0.82425  0.65953  1.0000
  C   C17       1.0  0.20537999999999992  0.22642999999999977  0.9227699999999998  1.0000
  C   C18       1.0  0.20363000000000003  0.13603999999999988  0.92266  1.0000
  C   C19       1.0  0.15384999999999988  0.23764999999999983  0.8435399999999997  1.0000
  C   C20       1.0  0.16325000000000003  0.04618000000000005  0.84072  1.0000
  C   C21       1.0  0.7175699999999999  0.1965999999999999  0.9227099999999998  1.0000
  C   C22       1.0  0.7189099999999999  0.2869599999999999  0.9225499999999998  1.0000
  C   C23       1.0  0.69028  0.10598999999999988  0.8434299999999998  1.0000
  C   C24       1.0  0.67581  0.29449  0.84051  1.0000
  C   C25       1.0  0.22551999999999997  0.7167099999999995  0.4226  1.0000
  C   C26       1.0  0.13525  0.7183  0.4228  1.0000
  C   C27       1.0  0.23627  0.68936  0.34319  1.0000
  C   C28       1.0  0.04526000000000003  0.6758999999999997  0.341  1.0000
  C   C29       1.0  0.19627999999999995  0.2055199999999999  0.42254999999999987  1.0000
  C   C30       1.0  0.28674999999999995  0.20367  0.42271  1.0000
  C   C31       1.0  0.10569999999999995  0.15426999999999993  0.3431599999999999  1.0000
  C   C32       1.0  0.29501  0.16373  0.341  1.0000
  C   C33       1.0  0.70553  0.6962699999999998  0.9225499999999998  1.0000
  C   C34       1.0  0.70367  0.7867599999999997  0.9227199999999998  1.0000
  C   C35       1.0  0.6542599999999998  0.6057099999999999  0.8431499999999998  1.0000
  C   C36       1.0  0.66372  0.79506  0.8410199999999998  1.0000
  C   C37       1.0  0.2166799999999999  0.72547  0.9225799999999997  1.0000
  C   C38       1.0  0.21829999999999994  0.6351799999999995  0.9227799999999998  1.0000
  C   C39       1.0  0.18932  0.73621  0.84316  1.0000
  C   C40       1.0  0.17591  0.54517  0.84098  1.0000
  C   C41       1.0  0.72643  0.70543  0.4227599999999999  1.0000
  C   C42       1.0  0.63605  0.70365  0.4226499999999999  1.0000
  C   C43       1.0  0.73774  0.65403  0.34356  1.0000
  C   C44       1.0  0.5462  0.6632499999999999  0.3407199999999999  1.0000
  C   C45       1.0  0.69655  0.21751  0.42269  1.0000
  C   C46       1.0  0.7869  0.21884999999999993  0.4225299999999999  1.0000
  C   C47       1.0  0.60596  0.19021999999999994  0.34341  1.0000
  C   C48       1.0  0.79442  0.17575  0.34047  1.0000
  C   C49       1.0  0.79461  0.7735700000000001  0.07724  1.0000
  C   C50       1.0  0.79637  0.8639599999999997  0.07734999999999997  1.0000
  C   C51       1.0  0.84614  0.7623599999999997  0.15646999999999994  1.0000
  C   C52       1.0  0.83674  0.95383  0.15929  1.0000
  C   C53       1.0  0.28243  0.8033999999999998  0.0773  1.0000
  C   C54       1.0  0.28109  0.71305  0.07745999999999997  1.0000
  C   C55       1.0  0.30972  0.8940199999999998  0.15656999999999993  1.0000
  C   C56       1.0  0.3241899999999999  0.70552  0.15949999999999995  1.0000
  C   C57       1.0  0.7744799999999998  0.2832999999999998  0.5774099999999998  1.0000
  C   C58       1.0  0.86475  0.28171  0.5772  1.0000
  C   C59       1.0  0.7637299999999999  0.31064999999999976  0.6568199999999997  1.0000
  C   C60       1.0  0.9547400000000001  0.3240999999999999  0.659  1.0000
  C   C61       1.0  0.8037199999999999  0.79449  0.57746  1.0000
  C   C62       1.0  0.71325  0.7963299999999998  0.57729  1.0000
  C   C63       1.0  0.8943  0.8457300000000001  0.65684  1.0000
  C   C64       1.0  0.70499  0.8362799999999996  0.65901  1.0000
  C   C65       1.0  0.24989  0.3084  0.00017  1.0000
  C   C66       1.0  0.24996999999999991  0.13128999999999993  0.9998799999999999  1.0000
  C   C67       1.0  0.75047  0.19233  0.00017  1.0000
  C   C68       1.0  0.75033  0.36917  0.99981  1.0000
  C   C69       1.0  0.19162000000000004  0.25009  0.49984  1.0000
  C   C70       1.0  0.3687  0.25004  0.50011  1.0000
  C   C71       1.0  0.30771  0.7495799999999998  0.49984  1.0000
  C   C72       1.0  0.13089  0.74969  0.50022  1.0000
  C   C73       1.0  0.75011  0.6916099999999998  0.9998299999999999  1.0000
  C   C74       1.0  0.7500200000000001  0.86871  0.00012  1.0000
  C   C75       1.0  0.24952999999999995  0.80767  0.9998299999999999  1.0000
  C   C76       1.0  0.24966  0.63083  0.00018999999999999996  1.0000
  C   C77       1.0  0.80838  0.74991  0.50017  1.0000
  C   C78       1.0  0.6313  0.7499699999999998  0.4998899999999999  1.0000
  C   C79       1.0  0.6922899999999997  0.2504299999999999  0.5001599999999998  1.0000
  C   C80       1.0  0.86911  0.2503199999999999  0.4997799999999999  1.0000
  O   O1        1.0  0.29695  0.45661  0.17499999999999993  1.0000
  O   O2        1.0  0.43333  0.40400999999999987  0.19439  1.0000
  O   O3        1.0  0.36971  0.13048  0.15665  1.0000
  O   O4        1.0  0.32803999999999994  0.26683999999999997  0.22053999999999996  1.0000
  O   O5        1.0  0.87536  0.21697  0.17383999999999997  1.0000
  O   O6        1.0  0.76221  0.2945599999999998  0.19544999999999996  1.0000
  O   O7        1.0  0.78744  0.52669  0.15753  1.0000
  O   O8        1.0  0.8952  0.4543  0.21951  1.0000
  O   O9        1.0  0.21856  0.29698999999999987  0.67451  1.0000
  O   O10       1.0  0.2893199999999999  0.43358999999999975  0.6937499999999998  1.0000
  O   O11       1.0  0.5257699999999998  0.3701299999999999  0.6569899999999997  1.0000
  O   O12       1.0  0.45356999999999986  0.3292199999999999  0.7210299999999997  1.0000
  O   O13       1.0  0.45695  0.87578  0.67461  1.0000
  O   O14       1.0  0.4032  0.76014  0.69428  1.0000
  O   O15       1.0  0.13254  0.7881099999999998  0.65857  1.0000
  O   O16       1.0  0.2669199999999999  0.8952099999999995  0.7197699999999998  1.0000
  O   O17       1.0  0.2026899999999999  0.28116  0.8252299999999998  1.0000
  O   O18       1.0  0.06625  0.21059999999999995  0.80641  1.0000
  O   O19       1.0  0.12983  0.9742099999999998  0.84299  1.0000
  O   O20       1.0  0.17087999999999984  0.046409999999999896  0.7790199999999998  1.0000
  O   O21       1.0  0.62424  0.04311999999999993  0.8254099999999998  1.0000
  O   O22       1.0  0.73994  0.09678000000000003  0.80575  1.0000
  O   O23       1.0  0.71193  0.3675299999999999  0.84147  1.0000
  O   O24       1.0  0.6048499999999999  0.23313999999999988  0.7802699999999998  1.0000
  O   O25       1.0  0.2831  0.62468  0.3262  1.0000
  O   O26       1.0  0.20552999999999993  0.7378299999999999  0.3045799999999999  1.0000
  O   O27       1.0  0.9734299999999999  0.71258  0.3425499999999999  1.0000
  O   O28       1.0  0.045749999999999964  0.6048099999999997  0.2804699999999999  1.0000
  O   O29       1.0  0.04338999999999998  0.20307  0.32507  1.0000
  O   O30       1.0  0.09598  0.06667  0.30559  1.0000
  O   O31       1.0  0.36946  0.13029  0.3433  1.0000
  O   O32       1.0  0.23309999999999997  0.17196  0.27946  1.0000
  O   O33       1.0  0.70305  0.54339  0.82501  1.0000
  O   O34       1.0  0.5666699999999999  0.5959899999999999  0.8056099999999998  1.0000
  O   O35       1.0  0.63028  0.8695199999999998  0.8433599999999998  1.0000
  O   O36       1.0  0.6719599999999999  0.73316  0.7794599999999998  1.0000
  O   O37       1.0  0.12463999999999999  0.78303  0.82617  1.0000
  O   O38       1.0  0.2377899999999999  0.70544  0.8045599999999998  1.0000
  O   O39       1.0  0.2125599999999999  0.4733199999999999  0.8424799999999998  1.0000
  O   O40       1.0  0.1047999999999999  0.5457  0.7804899999999998  1.0000
  O   O41       1.0  0.78144  0.70302  0.32549  1.0000
  O   O42       1.0  0.7106699999999999  0.5664099999999999  0.3062499999999999  1.0000
  O   O43       1.0  0.47423  0.62987  0.34301  1.0000
  O   O44       1.0  0.54643  0.67078  0.27898  1.0000
  O   O45       1.0  0.54305  0.12421999999999997  0.3254  1.0000
  O   O46       1.0  0.5968  0.23986000000000002  0.30572  1.0000
  O   O47       1.0  0.86746  0.21188999999999988  0.3414399999999999  1.0000
  O   O48       1.0  0.7330699999999999  0.10478999999999988  0.28022999999999987  1.0000
  O   O49       1.0  0.79731  0.7188399999999999  0.17476999999999995  1.0000
  O   O50       1.0  0.9337499999999999  0.78941  0.1936  1.0000
  O   O51       1.0  0.87017  0.025790000000000004  0.15701  1.0000
  O   O52       1.0  0.8291199999999999  0.95359  0.22098999999999994  1.0000
  O   O53       1.0  0.37576  0.95689  0.17459  1.0000
  O   O54       1.0  0.26006  0.90322  0.19426  1.0000
  O   O55       1.0  0.28806  0.63247  0.15853  1.0000
  O   O56       1.0  0.39515  0.76686  0.21974  1.0000
  O   O57       1.0  0.7168999999999999  0.3753299999999999  0.6738099999999998  1.0000
  O   O58       1.0  0.79447  0.26218  0.69542  1.0000
  O   O59       1.0  0.026560000000000014  0.28743  0.65745  1.0000
  O   O60       1.0  0.95425  0.3951999999999999  0.7195399999999997  1.0000
  O   O61       1.0  0.95661  0.7969299999999999  0.6749399999999998  1.0000
  O   O62       1.0  0.90402  0.9333399999999998  0.69442  1.0000
  O   O63       1.0  0.63054  0.86972  0.65671  1.0000
  O   O64       1.0  0.7669  0.8280399999999997  0.7205399999999997  1.0000
