data_image0
_chemical_formula_structural       Cd10H52C100O48
_chemical_formula_sum              "Cd10 H52 C100 O48"
_cell_length_a       14.15894
_cell_length_b       14.93988
_cell_length_c       26.43476
_cell_angle_alpha    90.0
_cell_angle_beta     93.80169
_cell_angle_gamma    90.0

_symmetry_space_group_name_H-M    'P 1'
_symmetry_Int_Tables_number       1

loop_
  _symmetry_equiv_pos_as_xyz
  'x,y,z'

loop_
  _atom_site_type_symbol
  _atom_site_label
  _atom_site_symmetry_multiplicity
  _atom_site_fract_x
  _atom_site_fract_y
  _atom_site_fract_z
  _atom_site_occupancy
  Cd  Cd1       1.0  0.82919  0.22667  0.39076  1.0000
  Cd  Cd2       1.0  0.74961  0.2924  0.49972000000000005  1.0000
  Cd  Cd3       1.0  0.6717699999999999  0.35647  0.60928  1.0000
  Cd  Cd4       1.0  0.22769  0.05757  0.030110000000000005  1.0000
  Cd  Cd5       1.0  0.31585  0.15971  0.94062  1.0000
  Cd  Cd6       1.0  0.17082  0.72667  0.60925  1.0000
  Cd  Cd7       1.0  0.25039  0.7924  0.50028  1.0000
  Cd  Cd8       1.0  0.32823999999999987  0.85647  0.39072  1.0000
  Cd  Cd9       1.0  0.7723099999999999  0.5575699999999999  0.9699  1.0000
  Cd  Cd10      1.0  0.68415  0.6597099999999998  0.05938  1.0000
  H   H1        1.0  0.56445  0.26716  0.28647  1.0000
  H   H2        1.0  0.30757999999999996  0.41933  0.29541  1.0000
  H   H3        1.0  0.5165  0.41515  0.42157  1.0000
  H   H4        1.0  0.36472  0.48183  0.43172  1.0000
  H   H5        1.0  0.34931  0.55573  0.3788600000000001  1.0000
  H   H6        1.0  0.2594800000000001  0.57385  0.46226  1.0000
  H   H7        1.0  0.98848  0.49589  0.51361  1.0000
  H   H8        1.0  0.08775  0.3793999999999999  0.37770000000000004  1.0000
  H   H9        1.0  0.3734499999999999  0.25295  0.13399  1.0000
  H   H10       1.0  0.52505  0.34929  0.00857  1.0000
  H   H11       1.0  0.58456  0.4595  0.15764  1.0000
  H   H12       1.0  0.4215499999999999  0.24541  0.22265000000000001  1.0000
  H   H13       1.0  0.33141  0.3299  0.21933000000000002  1.0000
  H   H14       1.0  0.9112  0.26793  0.7191100000000001  1.0000
  H   H15       1.0  0.16943  0.11833  0.70882  1.0000
  H   H16       1.0  0.99127  0.17509  0.57429  1.0000
  H   H17       1.0  0.04259  0.13304  0.79446  1.0000
  H   H18       1.0  0.13665999999999998  0.2102  0.7872700000000001  1.0000
  H   H19       1.0  0.90384  0.38472  0.83967  1.0000
  H   H20       1.0  0.9848099999999997  0.31111  0.9940400000000003  1.0000
  H   H21       1.0  0.10167  0.16828  0.87138  1.0000
  H   H22       1.0  0.40768  0.20796  0.61997  1.0000
  H   H23       1.0  0.51107  0.08912  0.48552  1.0000
  H   H24       1.0  0.23997999999999994  0.00987  0.53583  1.0000
  H   H25       1.0  0.15785  0.01889  0.6154  1.0000
  H   H26       1.0  0.1319  0.09806  0.56598  1.0000
  H   H27       1.0  0.43555  0.76716  0.71353  1.0000
  H   H28       1.0  0.6924200000000001  0.91934  0.7045900000000002  1.0000
  H   H29       1.0  0.48349999999999993  0.91515  0.57843  1.0000
  H   H30       1.0  0.63528  0.98184  0.56828  1.0000
  H   H31       1.0  0.6506900000000001  0.05572  0.6211400000000001  1.0000
  H   H32       1.0  0.7405299999999998  0.07385  0.53774  1.0000
  H   H33       1.0  0.011519999999999997  0.99588  0.48639  1.0000
  H   H34       1.0  0.91225  0.8794  0.6223  1.0000
  H   H35       1.0  0.62655  0.75295  0.86602  1.0000
  H   H36       1.0  0.47495  0.84929  0.9914300000000003  1.0000
  H   H37       1.0  0.41544000000000003  0.9595  0.84236  1.0000
  H   H38       1.0  0.57845  0.74541  0.77735  1.0000
  H   H39       1.0  0.66859  0.8299  0.7806700000000001  1.0000
  H   H40       1.0  0.0888  0.76793  0.28089  1.0000
  H   H41       1.0  0.83057  0.61834  0.29118  1.0000
  H   H42       1.0  0.008730000000000002  0.6750899999999999  0.42571  1.0000
  H   H43       1.0  0.9574099999999999  0.6330399999999999  0.20555  1.0000
  H   H44       1.0  0.86334  0.71021  0.21273  1.0000
  H   H45       1.0  0.09615999999999998  0.88472  0.16033  1.0000
  H   H46       1.0  0.01519  0.81111  0.00596  1.0000
  H   H47       1.0  0.89834  0.66829  0.12862  1.0000
  H   H48       1.0  0.59232  0.70796  0.38003  1.0000
  H   H49       1.0  0.48893  0.58912  0.51448  1.0000
  H   H50       1.0  0.7600200000000001  0.50987  0.46417  1.0000
  H   H51       1.0  0.84215  0.51889  0.38461  1.0000
  H   H52       1.0  0.8680999999999999  0.59806  0.43402  1.0000
  C   C1        1.0  0.6419699999999999  0.30671  0.38028000000000006  1.0000
  C   C2        1.0  0.5492  0.33784  0.35635  1.0000
  C   C3        1.0  0.51899  0.3104  0.30734  1.0000
  C   C4        1.0  0.43187999999999993  0.3395  0.28514  1.0000
  C   C5        1.0  0.37545  0.39642  0.31236  1.0000
  C   C6        1.0  0.40506999999999993  0.42438  0.36162000000000005  1.0000
  C   C7        1.0  0.49193  0.3948  0.38342  1.0000
  C   C8        1.0  0.34372  0.48541  0.39098000000000005  1.0000
  C   C9        1.0  0.18267  0.47347  0.41619  1.0000
  C   C10       1.0  0.19578  0.5335  0.45656  1.0000
  C   C11       1.0  0.12485  0.5415  0.49132  1.0000
  C   C12       1.0  0.14112  0.6042799999999999  0.53459  1.0000
  C   C13       1.0  0.04145  0.49092  0.4858  1.0000
  C   C14       1.0  0.027990000000000008  0.43319  0.4440800000000001  1.0000
  C   C15       1.0  0.9416  0.37520999999999993  0.43639  1.0000
  C   C16       1.0  0.09798999999999997  0.42517  0.40949  1.0000
  C   C17       1.0  0.42798  0.29632  0.12043000000000001  1.0000
  C   C18       1.0  0.44652999999999987  0.2938799999999999  0.06864  1.0000
  C   C19       1.0  0.38961  0.23405  0.03331  1.0000
  C   C20       1.0  0.51381  0.35036  0.04878  1.0000
  C   C21       1.0  0.56383  0.41032  0.08119  1.0000
  C   C22       1.0  0.62691  0.48114  0.062  1.0000
  C   C23       1.0  0.54668  0.41243  0.13249  1.0000
  C   C24       1.0  0.47826999999999986  0.35717  0.15211  1.0000
  C   C25       1.0  0.40625  0.31609  0.23049  1.0000
  C   C26       1.0  0.85575  0.26711  0.6191  1.0000
  C   C27       1.0  0.9426399999999999  0.22529  0.6442900000000001  1.0000
  C   C28       1.0  0.9606399999999998  0.23201999999999995  0.69689  1.0000
  C   C29       1.0  0.04195  0.1934  0.72045  1.0000
  C   C30       1.0  0.10509  0.14762999999999998  0.6909700000000001  1.0000
  C   C31       1.0  0.0874  0.14003  0.63828  1.0000
  C   C32       1.0  0.006100000000000002  0.17936  0.61511  1.0000
  C   C33       1.0  0.060989999999999996  0.19757  0.77736  1.0000
  C   C34       1.0  0.0035600000000000015  0.27514  0.84897  1.0000
  C   C35       1.0  0.94451  0.34226  0.86648  1.0000
  C   C36       1.0  0.9377  0.35455  0.91846  1.0000
  C   C37       1.0  0.87513  0.42569  0.93764  1.0000
  C   C38       1.0  0.99019  0.30082  0.9536500000000002  1.0000
  C   C39       1.0  0.04953000000000001  0.23488  0.9361  1.0000
  C   C40       1.0  0.10904  0.17982  0.97266  1.0000
  C   C41       1.0  0.05615999999999998  0.22134  0.88365  1.0000
  C   C42       1.0  0.39856999999999987  0.16131999999999996  0.58851  1.0000
  C   C43       1.0  0.46936  0.1532  0.55427  1.0000
  C   C44       1.0  0.55571  0.21143  0.56189  1.0000
  C   C45       1.0  0.45737999999999995  0.09447  0.51292  1.0000
  C   C46       1.0  0.3745299999999999  0.04318  0.5074  1.0000
  C   C47       1.0  0.35864  0.98014  0.46433  1.0000
  C   C48       1.0  0.30299  0.05107  0.54177  1.0000
  C   C49       1.0  0.31445  0.1119  0.58188  1.0000
  C   C50       1.0  0.15480999999999998  0.09087  0.60632  1.0000
  C   C51       1.0  0.35803  0.80671  0.61972  1.0000
  C   C52       1.0  0.4508  0.83784  0.64365  1.0000
  C   C53       1.0  0.48101  0.8104  0.69266  1.0000
  C   C54       1.0  0.56812  0.8395  0.7148600000000002  1.0000
  C   C55       1.0  0.62455  0.89642  0.68765  1.0000
  C   C56       1.0  0.59493  0.92438  0.63838  1.0000
  C   C57       1.0  0.50807  0.8948  0.6165800000000001  1.0000
  C   C58       1.0  0.6562799999999999  0.9854099999999998  0.60902  1.0000
  C   C59       1.0  0.81733  0.97347  0.58381  1.0000
  C   C60       1.0  0.8042299999999998  0.033499999999999995  0.54344  1.0000
  C   C61       1.0  0.8751499999999998  0.0415  0.50868  1.0000
  C   C62       1.0  0.85888  0.10428  0.46541000000000005  1.0000
  C   C63       1.0  0.95855  0.99092  0.5142  1.0000
  C   C64       1.0  0.97201  0.9332  0.55592  1.0000
  C   C65       1.0  0.0584  0.87521  0.56361  1.0000
  C   C66       1.0  0.9020100000000001  0.92518  0.59051  1.0000
  C   C67       1.0  0.57202  0.7963199999999999  0.87957  1.0000
  C   C68       1.0  0.55347  0.79388  0.93136  1.0000
  C   C69       1.0  0.61039  0.73405  0.96669  1.0000
  C   C70       1.0  0.48619  0.85036  0.95122  1.0000
  C   C71       1.0  0.43617  0.91032  0.91881  1.0000
  C   C72       1.0  0.37309999999999993  0.98114  0.938  1.0000
  C   C73       1.0  0.45332  0.91244  0.86751  1.0000
  C   C74       1.0  0.52173  0.85717  0.84789  1.0000
  C   C75       1.0  0.59375  0.81609  0.7695100000000001  1.0000
  C   C76       1.0  0.14425  0.76711  0.3809  1.0000
  C   C77       1.0  0.05736000000000001  0.72529  0.3557100000000001  1.0000
  C   C78       1.0  0.03936  0.73202  0.30312  1.0000
  C   C79       1.0  0.95805  0.6934  0.27955  1.0000
  C   C80       1.0  0.8949099999999999  0.64763  0.30903  1.0000
  C   C81       1.0  0.9126  0.64003  0.36172000000000004  1.0000
  C   C82       1.0  0.9939  0.67936  0.38489  1.0000
  C   C83       1.0  0.93901  0.69757  0.22264  1.0000
  C   C84       1.0  0.99645  0.77514  0.15103  1.0000
  C   C85       1.0  0.05549  0.84226  0.13352  1.0000
  C   C86       1.0  0.0623  0.85455  0.08154  1.0000
  C   C87       1.0  0.12487  0.92569  0.06236  1.0000
  C   C88       1.0  0.00981  0.80083  0.04635000000000001  1.0000
  C   C89       1.0  0.9504699999999999  0.73488  0.0639  1.0000
  C   C90       1.0  0.89096  0.67983  0.027340000000000003  1.0000
  C   C91       1.0  0.9438399999999999  0.72134  0.11635  1.0000
  C   C92       1.0  0.60143  0.66132  0.4114900000000001  1.0000
  C   C93       1.0  0.53064  0.6532  0.44573000000000007  1.0000
  C   C94       1.0  0.44429  0.71143  0.43811  1.0000
  C   C95       1.0  0.54263  0.59447  0.4870800000000001  1.0000
  C   C96       1.0  0.62547  0.54318  0.4926  1.0000
  C   C97       1.0  0.6413599999999998  0.48014  0.53567  1.0000
  C   C98       1.0  0.6970099999999998  0.55108  0.45823  1.0000
  C   C99       1.0  0.68555  0.6118999999999999  0.41812000000000005  1.0000
  C   C100      1.0  0.84519  0.59087  0.39368  1.0000
  O   O1        1.0  0.69539  0.26255  0.35125000000000006  1.0000
  O   O2        1.0  0.66224  0.3264  0.4263800000000001  1.0000
  O   O3        1.0  0.21502  0.65631  0.53534  1.0000
  O   O4        1.0  0.0864  0.60697  0.5708  1.0000
  O   O5        1.0  0.88144  0.37406  0.4697400000000001  1.0000
  O   O6        1.0  0.93698  0.32974  0.39467  1.0000
  O   O7        1.0  0.33781  0.17386  0.05049000000000001  1.0000
  O   O8        1.0  0.39818  0.25051  0.98536  1.0000
  O   O9        1.0  0.64318  0.48652  0.01566  1.0000
  O   O10       1.0  0.6563899999999999  0.5385  0.09676  1.0000
  O   O11       1.0  0.84219  0.25892  0.57142  1.0000
  O   O12       1.0  0.80049  0.30808  0.64863  1.0000
  O   O13       1.0  0.82331  0.47308  0.90588  1.0000
  O   O14       1.0  0.8757  0.43775  0.98525  1.0000
  O   O15       1.0  0.10426  0.18286  0.0196  1.0000
  O   O16       1.0  0.16956  0.125  0.952  1.0000
  O   O17       1.0  0.56204  0.255  0.60411  1.0000
  O   O18       1.0  0.61437  0.21457999999999997  0.52775  1.0000
  O   O19       1.0  0.41241999999999995  0.97781  0.42768  1.0000
  O   O20       1.0  0.28517  0.92767  0.46417  1.0000
  O   O21       1.0  0.24713999999999997  0.45541999999999994  0.3812400000000001  1.0000
  O   O22       1.0  0.4667  0.37304  0.20223  1.0000
  O   O23       1.0  0.004780000000000022  0.26778  0.7972200000000002  1.0000
  O   O24       1.0  0.2482699999999999  0.12949  0.6161200000000001  1.0000
  O   O25       1.0  0.30461  0.76255  0.64875  1.0000
  O   O26       1.0  0.33775999999999995  0.8264  0.57362  1.0000
  O   O27       1.0  0.78498  0.15631  0.46466  1.0000
  O   O28       1.0  0.9136  0.10697  0.4292  1.0000
  O   O29       1.0  0.11856  0.87407  0.53026  1.0000
  O   O30       1.0  0.06302  0.82974  0.60533  1.0000
  O   O31       1.0  0.66219  0.67386  0.94951  1.0000
  O   O32       1.0  0.60182  0.75051  0.01465  1.0000
  O   O33       1.0  0.35683  0.98653  0.98434  1.0000
  O   O34       1.0  0.34361  0.0385  0.9032500000000001  1.0000
  O   O35       1.0  0.15781  0.75893  0.42858  1.0000
  O   O36       1.0  0.19951  0.8080799999999999  0.35138  1.0000
  O   O37       1.0  0.17668999999999996  0.9730799999999997  0.09412000000000001  1.0000
  O   O38       1.0  0.1243  0.93775  0.01475  1.0000
  O   O39       1.0  0.8957399999999999  0.68286  0.9804  1.0000
  O   O40       1.0  0.83044  0.625  0.048  1.0000
  O   O41       1.0  0.43796  0.75501  0.39589  1.0000
  O   O42       1.0  0.38564  0.71459  0.47225000000000006  1.0000
  O   O43       1.0  0.58758  0.47781  0.57232  1.0000
  O   O44       1.0  0.71483  0.42767  0.53583  1.0000
  O   O45       1.0  0.75286  0.95543  0.6187600000000002  1.0000
  O   O46       1.0  0.5333  0.87304  0.7977700000000001  1.0000
  O   O47       1.0  0.99522  0.76779  0.20278  1.0000
  O   O48       1.0  0.75173  0.62949  0.38388000000000005  1.0000
