data_image0
_chemical_formula_structural       Sm4Cu6H60C48N12O48
_chemical_formula_sum              "Sm4 Cu6 H60 C48 N12 O48"
_cell_length_a       13.54609
_cell_length_b       13.567250000000001
_cell_length_c       14.683699999999998
_cell_angle_alpha    90.01001
_cell_angle_beta     89.97002
_cell_angle_gamma    120.26926999999999

_symmetry_space_group_name_H-M    'P 1'
_symmetry_Int_Tables_number       1

loop_
  _symmetry_equiv_pos_as_xyz
  'x,y,z'

loop_
  _atom_site_type_symbol
  _atom_site_label
  _atom_site_symmetry_multiplicity
  _atom_site_fract_x
  _atom_site_fract_y
  _atom_site_fract_z
  _atom_site_occupancy
  Sm  Sm1       1.0  0.66472  0.33245  0.33158  1.0000
  Sm  Sm2       1.0  0.33346  0.66924  0.16789999999999994  1.0000
  Sm  Sm3       1.0  0.33326  0.66652  0.66752  1.0000
  Sm  Sm4       1.0  0.66653  0.33341  0.83176  1.0000
  Cu  Cu1       1.0  0.49997  0.50065  0.4999699999999999  1.0000
  Cu  Cu2       1.0  0.49938999999999995  0.9996499999999999  0.50001  1.0000
  Cu  Cu3       1.0  0.0002899999999999854  0.49970999999999993  0.49972  1.0000
  Cu  Cu4       1.0  0.50066  0.50017  0.00020999999999999995  1.0000
  Cu  Cu5       1.0  0.99938  0.49932  0.00039  1.0000
  Cu  Cu6       1.0  0.49984  0.00053  0.00012  1.0000
  H   H1        1.0  0.64115  0.67635  0.57971  1.0000
  H   H2        1.0  0.82819  0.68675  0.52393  1.0000
  H   H3        1.0  0.74004  0.7072  0.4443  1.0000
  H   H4        1.0  0.68621  0.60467  0.7006799999999999  1.0000
  H   H5        1.0  0.73869  0.53782  0.62876  1.0000
  H   H6        1.0  0.3222  0.9637499999999999  0.57989  1.0000
  H   H7        1.0  0.31401  0.14182  0.52353  1.0000
  H   H8        1.0  0.29208  0.03264  0.44424999999999987  1.0000
  H   H9        1.0  0.39516999999999997  0.08142  0.70067  1.0000
  H   H10       1.0  0.46238  0.20076999999999998  0.62871  1.0000
  H   H11       1.0  0.035739999999999966  0.35869  0.57978  1.0000
  H   H12       1.0  0.85731  0.17199  0.52339  1.0000
  H   H13       1.0  0.96685  0.26016  0.4440699999999999  1.0000
  H   H14       1.0  0.9184100000000001  0.31383  0.7007299999999997  1.0000
  H   H15       1.0  0.7988900000000001  0.26118  0.62876  1.0000
  H   H16       1.0  0.67741  0.64187  0.9203499999999999  1.0000
  H   H17       1.0  0.68543  0.82814  0.97682  1.0000
  H   H18       1.0  0.70673  0.74019  0.05619  1.0000
  H   H19       1.0  0.60483  0.68636  0.79929  1.0000
  H   H20       1.0  0.53799  0.73853  0.87125  1.0000
  H   H21       1.0  0.96426  0.32323  0.92047  1.0000
  H   H22       1.0  0.14163  0.31414  0.9763  1.0000
  H   H23       1.0  0.032719999999999964  0.29284  0.0558  1.0000
  H   H24       1.0  0.08133000000000003  0.39548  0.79955  1.0000
  H   H25       1.0  0.20112  0.46272  0.87119  1.0000
  H   H26       1.0  0.35897  0.03617  0.91984  1.0000
  H   H27       1.0  0.1716799999999999  0.8584299999999999  0.97604  1.0000
  H   H28       1.0  0.2596  0.96769  0.05521  1.0000
  H   H29       1.0  0.3138199999999998  0.9182999999999999  0.79914  1.0000
  H   H30       1.0  0.26125999999999994  0.7991299999999999  0.87132  1.0000
  H   H31       1.0  0.35912  0.32413  0.4204999999999999  1.0000
  H   H32       1.0  0.1718  0.31326  0.47579  1.0000
  H   H33       1.0  0.25993  0.29313  0.55573  1.0000
  H   H34       1.0  0.31382  0.39543999999999996  0.29922  1.0000
  H   H35       1.0  0.26182  0.4626199999999999  0.37119  1.0000
  H   H36       1.0  0.67631  0.03588  0.42057  1.0000
  H   H37       1.0  0.68671  0.85892  0.47585  1.0000
  H   H38       1.0  0.70701  0.96722  0.55578  1.0000
  H   H39       1.0  0.60537  0.9186599999999999  0.29937999999999987  1.0000
  H   H40       1.0  0.5373899999999999  0.7990599999999999  0.37115  1.0000
  H   H41       1.0  0.96474  0.64069  0.42022999999999994  1.0000
  H   H42       1.0  0.1415  0.8278299999999998  0.47568  1.0000
  H   H43       1.0  0.03308999999999995  0.7395  0.5555  1.0000
  H   H44       1.0  0.0815299999999999  0.6860299999999999  0.29921  1.0000
  H   H45       1.0  0.20129  0.73798  0.37107  1.0000
  H   H46       1.0  0.32367  0.35893  0.0796  1.0000
  H   H47       1.0  0.31305  0.17195  0.02427  1.0000
  H   H48       1.0  0.29303  0.25995  0.94434  1.0000
  H   H49       1.0  0.39483  0.31353  0.2007  1.0000
  H   H50       1.0  0.4629  0.2623  0.12883  1.0000
  H   H51       1.0  0.035460000000000026  0.67614  0.07971999999999997  1.0000
  H   H52       1.0  0.85873  0.68641  0.02442  1.0000
  H   H53       1.0  0.9672899999999999  0.7070499999999998  0.94453  1.0000
  H   H54       1.0  0.9184800000000001  0.60451  0.2009  1.0000
  H   H55       1.0  0.79878  0.53681  0.12905  1.0000
  H   H56       1.0  0.64019  0.96421  0.07941  1.0000
  H   H57       1.0  0.82813  0.14129  0.02408  1.0000
  H   H58       1.0  0.73985  0.03292  0.94418  1.0000
  H   H59       1.0  0.68648  0.08139  0.20065  1.0000
  H   H60       1.0  0.7387  0.20102  0.12868  1.0000
  C   C1        1.0  0.7331500000000001  0.54791  0.4323299999999999  1.0000
  C   C2        1.0  0.74401  0.64594  0.49093  1.0000
  C   C3        1.0  0.66626  0.55176  0.63906  1.0000
  C   C4        1.0  0.56152  0.43554999999999994  0.65757  1.0000
  C   C5        1.0  0.45394  0.18432999999999997  0.43273  1.0000
  C   C6        1.0  0.35404  0.0979  0.49088999999999994  1.0000
  C   C7        1.0  0.44798000000000004  0.11426  0.6388999999999999  1.0000
  C   C8        1.0  0.56386  0.12566  0.65745  1.0000
  C   C9        1.0  0.81544  0.26948  0.43229  1.0000
  C   C10       1.0  0.90156  0.25636  0.4907  1.0000
  C   C11       1.0  0.88565  0.33381  0.63906  1.0000
  C   C12       1.0  0.8744100000000001  0.43822999999999995  0.6574  1.0000
  C   C13       1.0  0.54497  0.72913  0.06756  1.0000
  C   C14       1.0  0.64533  0.7437899999999998  0.00947  1.0000
  C   C15       1.0  0.55209  0.66633  0.8610499999999998  1.0000
  C   C16       1.0  0.43588  0.5615  0.84256  1.0000
  C   C17       1.0  0.18575  0.45247  0.06789  1.0000
  C   C18       1.0  0.09816000000000004  0.35454  0.009139999999999999  1.0000
  C   C19       1.0  0.11451  0.44852  0.86115  1.0000
  C   C20       1.0  0.12594  0.56422  0.84257  1.0000
  C   C21       1.0  0.26828  0.81617  0.06767  1.0000
  C   C22       1.0  0.25596  0.9023  0.00889  1.0000
  C   C23       1.0  0.33382000000000006  0.88583  0.86089  1.0000
  C   C24       1.0  0.43828  0.8744  0.84255  1.0000
  C   C25       1.0  0.2667  0.45228999999999997  0.56759  1.0000
  C   C26       1.0  0.2559199999999999  0.35425999999999996  0.50899  1.0000
  C   C27       1.0  0.33418000000000003  0.44868  0.36062  1.0000
  C   C28       1.0  0.43918  0.56483  0.34137  1.0000
  C   C29       1.0  0.5478  0.81443  0.56764  1.0000
  C   C30       1.0  0.6459000000000001  0.9019699999999999  0.50888  1.0000
  C   C31       1.0  0.55192  0.8856099999999999  0.36084  1.0000
  C   C32       1.0  0.43646999999999997  0.8745899999999999  0.3416599999999999  1.0000
  C   C33       1.0  0.18580000000000008  0.73365  0.56753  1.0000
  C   C34       1.0  0.09842999999999999  0.74367  0.5087  1.0000
  C   C35       1.0  0.11449000000000005  0.66547  0.36035  1.0000
  C   C36       1.0  0.12481999999999999  0.56056  0.34081  1.0000
  C   C37       1.0  0.4522  0.26653  0.93253  1.0000
  C   C38       1.0  0.35415  0.25597  0.99114  1.0000
  C   C39       1.0  0.44843999999999995  0.33424  0.13943  1.0000
  C   C40       1.0  0.56415  0.43953999999999993  0.15904  1.0000
  C   C41       1.0  0.8143  0.54756  0.93259  1.0000
  C   C42       1.0  0.90181  0.6456  0.9913899999999998  1.0000
  C   C43       1.0  0.8853099999999999  0.55096  0.1396  1.0000
  C   C44       1.0  0.87418  0.43529  0.15896  1.0000
  C   C45       1.0  0.7336800000000001  0.18586  0.9325  1.0000
  C   C46       1.0  0.7440000000000001  0.09820999999999999  0.9909499999999998  1.0000
  C   C47       1.0  0.66625  0.11427  0.13924  1.0000
  C   C48       1.0  0.56185  0.12553  0.15834  1.0000
  N   N1        1.0  0.65181  0.60933  0.55886  1.0000
  N   N2        1.0  0.38958  0.04187  0.55882  1.0000
  N   N3        1.0  0.95794  0.34812  0.55886  1.0000
  N   N4        1.0  0.61015  0.65235  0.9411599999999998  1.0000
  N   N5        1.0  0.04234  0.39066  0.9415099999999997  1.0000
  N   N6        1.0  0.34818  0.95834  0.94092  1.0000
  N   N7        1.0  0.3484  0.39111  0.4411399999999999  1.0000
  N   N8        1.0  0.60926  0.95751  0.44131  1.0000
  N   N9        1.0  0.04259999999999992  0.65115  0.44102  1.0000
  N   N10       1.0  0.39093999999999995  0.34830999999999995  0.05886  1.0000
  N   N11       1.0  0.95734  0.60882  0.058959999999999985  1.0000
  N   N12       1.0  0.65147  0.04227  0.05881999999999998  1.0000
  O   O1        1.0  0.64065  0.45115  0.44104  1.0000
  O   O2        1.0  0.8121  0.56595  0.37726  1.0000
  O   O3        1.0  0.47511  0.39833999999999997  0.60433  1.0000
  O   O4        1.0  0.56465  0.37929  0.72477  1.0000
  O   O5        1.0  0.5484700000000002  0.18527  0.44128  1.0000
  O   O6        1.0  0.44011  0.24819  0.3775999999999999  1.0000
  O   O7        1.0  0.60039  0.07579  0.6046  1.0000
  O   O8        1.0  0.62069  0.18553  0.72441  1.0000
  O   O9        1.0  0.81401  0.36268  0.4411199999999999  1.0000
  O   O10       1.0  0.75167  0.19092  0.37743  1.0000
  O   O11       1.0  0.92419  0.52474  0.6043999999999998  1.0000
  O   O12       1.0  0.81436  0.43484  0.7243099999999998  1.0000
  O   O13       1.0  0.4503  0.63529  0.05865  1.0000
  O   O14       1.0  0.5584700000000002  0.8072  0.12243  1.0000
  O   O15       1.0  0.39916999999999997  0.4749399999999999  0.89545  1.0000
  O   O16       1.0  0.37909  0.56486  0.77579  1.0000
  O   O17       1.0  0.19023999999999996  0.54889  0.059689999999999986  1.0000
  O   O18       1.0  0.24671999999999997  0.43450999999999995  0.12267999999999997  1.0000
  O   O19       1.0  0.07657999999999995  0.60092  0.89583  1.0000
  O   O20       1.0  0.18545  0.62075  0.77526  1.0000
  O   O21       1.0  0.36229  0.81537  0.05957  1.0000
  O   O22       1.0  0.18972999999999995  0.75244  0.12239  1.0000
  O   O23       1.0  0.5246899999999999  0.92412  0.8958  1.0000
  O   O24       1.0  0.43507  0.81452  0.7757  1.0000
  O   O25       1.0  0.35891  0.54898  0.55877  1.0000
  O   O26       1.0  0.18742999999999999  0.43440999999999996  0.62257  1.0000
  O   O27       1.0  0.52502  0.60237  0.39544  1.0000
  O   O28       1.0  0.43661  0.62005  0.27331  1.0000
  O   O29       1.0  0.45128999999999997  0.8095599999999998  0.5588  1.0000
  O   O30       1.0  0.56532  0.7530099999999998  0.62262  1.0000
  O   O31       1.0  0.39830999999999994  0.9220899999999999  0.3952699999999999  1.0000
  O   O32       1.0  0.38156  0.81735  0.27282  1.0000
  O   O33       1.0  0.19062  0.64215  0.55871  1.0000
  O   O34       1.0  0.24709000000000006  0.81293  0.62268  1.0000
  O   O35       1.0  0.0777  0.47555  0.39552  1.0000
  O   O36       1.0  0.18172999999999997  0.56194  0.27225  1.0000
  O   O37       1.0  0.54905  0.35842  0.94131  1.0000
  O   O38       1.0  0.43424000000000007  0.18731  0.8775199999999999  1.0000
  O   O39       1.0  0.6024600000000001  0.52468  0.10457  1.0000
  O   O40       1.0  0.61941  0.43836  0.22789  1.0000
  O   O41       1.0  0.8097500000000001  0.4512399999999999  0.94109  1.0000
  O   O42       1.0  0.753  0.56505  0.87751  1.0000
  O   O43       1.0  0.92219  0.39791  0.10482  1.0000
  O   O44       1.0  0.81639  0.37953  0.22716999999999996  1.0000
  O   O45       1.0  0.64158  0.18999  0.9412499999999998  1.0000
  O   O46       1.0  0.81279  0.24713  0.87733  1.0000
  O   O47       1.0  0.47587  0.07783  0.10463999999999997  1.0000
  O   O48       1.0  0.56489  0.18327  0.2268  1.0000
