data_image0
_chemical_formula_structural       Ag4H96C96N16
_chemical_formula_sum              "Ag4 H96 C96 N16"
_cell_length_a       11.9271
_cell_length_b       15.67005
_cell_length_c       16.77829
_cell_angle_alpha    81.94638
_cell_angle_beta     68.76982
_cell_angle_gamma    67.2664

_space_group_name_H-M_alt    "P 1"
_space_group_IT_number       1

loop_
  _space_group_symop_operation_xyz
  'x, y, z'

loop_
  _atom_site_type_symbol
  _atom_site_label
  _atom_site_symmetry_multiplicity
  _atom_site_fract_x
  _atom_site_fract_y
  _atom_site_fract_z
  _atom_site_occupancy
  Ag  Ag1       1.0  0.8857599999999999  0.74795  0.23032  1.0000
  Ag  Ag2       1.0  0.63263  0.2521  0.73345  1.0000
  Ag  Ag3       1.0  0.3673700000000001  0.7479  0.26655  1.0000
  Ag  Ag4       1.0  0.11424000000000005  0.25205  0.76968  1.0000
  H   H1        1.0  0.91241  0.9411200000000001  0.23722999999999994  1.0000
  H   H2        1.0  0.027740000000000035  0.04313  0.15037  1.0000
  H   H3        1.0  0.20237999999999992  0.84561  0.94467  1.0000
  H   H4        1.0  0.0809299999999999  0.7511600000000002  0.04008  1.0000
  H   H5        1.0  0.63797  0.04348  0.7406  1.0000
  H   H6        1.0  0.5300400000000001  0.93938  0.83233  1.0000
  H   H7        1.0  0.31457  0.15766  0.02078  1.0000
  H   H8        1.0  0.42906  0.25352  0.92088  1.0000
  H   H9        1.0  0.14701  0.08438  0.00023  1.0000
  H   H10       1.0  0.21266999999999991  0.00501  0.91639  1.0000
  H   H11       1.0  0.3914499999999999  0.90829  0.97609  1.0000
  H   H12       1.0  0.3253799999999999  0.9890300000000001  0.05914  1.0000
  H   H13       1.0  0.8502  0.55545  0.2361  1.0000
  H   H14       1.0  0.82121  0.45531  0.14883  1.0000
  H   H15       1.0  0.8510400000000002  0.65612  0.94564  1.0000
  H   H16       1.0  0.8765899999999999  0.74897  0.041479999999999996  1.0000
  H   H17       1.0  0.6208300000000001  0.45978  0.74196  1.0000
  H   H18       1.0  0.6375200000000003  0.5621700000000001  0.83395  1.0000
  H   H19       1.0  0.66658  0.34092  0.01947  1.0000
  H   H20       1.0  0.65255  0.24662000000000003  0.9192  1.0000
  H   H21       1.0  0.8530799999999998  0.41558  0.99942  1.0000
  H   H22       1.0  0.8719000000000001  0.49531  0.91581  1.0000
  H   H23       1.0  0.6322499999999999  0.59172  0.97667  1.0000
  H   H24       1.0  0.61471  0.5106  0.05951  1.0000
  H   H25       1.0  0.40549999999999997  0.447  0.73631  1.0000
  H   H26       1.0  0.27643  0.54657  0.64749  1.0000
  H   H27       1.0  0.5089500000000001  0.34213000000000005  0.44722  1.0000
  H   H28       1.0  0.62603  0.24973  0.54482  1.0000
  H   H29       1.0  0.08057000000000006  0.53854  0.24178  1.0000
  H   H30       1.0  0.1995399999999999  0.43678  0.33526  1.0000
  H   H31       1.0  0.005510000000000026  0.66078  0.51784  1.0000
  H   H32       1.0  0.8982499999999999  0.75435  0.41595  1.0000
  H   H33       1.0  0.26828  0.58429  0.49886  1.0000
  H   H34       1.0  0.36778999999999995  0.50387  0.41568  1.0000
  H   H35       1.0  0.22449  0.40876  0.47702  1.0000
  H   H36       1.0  0.12492000000000003  0.49049  0.55946  1.0000
  H   H37       1.0  0.85356  0.05636  0.73748  1.0000
  H   H38       1.0  0.07251000000000002  0.95502  0.6491  1.0000
  H   H39       1.0  0.044760000000000036  0.15622  0.44616  1.0000
  H   H40       1.0  0.82832  0.25021  0.54327  1.0000
  H   H41       1.0  0.68177  0.95825  0.24037  1.0000
  H   H42       1.0  0.4683200000000001  0.06171  0.3335899999999999  1.0000
  H   H43       1.0  0.47592  0.84051  0.51918  1.0000
  H   H44       1.0  0.6867899999999999  0.7453800000000002  0.41766  1.0000
  H   H45       1.0  0.23236999999999994  0.9157800000000003  0.49966  1.0000
  H   H46       1.0  0.21732  0.9959100000000001  0.41624  1.0000
  H   H47       1.0  0.29906000000000005  0.09118  0.47647  1.0000
  H   H48       1.0  0.3149900000000001  0.00974  0.55911  1.0000
  H   H49       1.0  0.5945000000000003  0.553  0.26368  1.0000
  H   H50       1.0  0.72357  0.45343  0.35251  1.0000
  H   H51       1.0  0.49104999999999993  0.65787  0.55278  1.0000
  H   H52       1.0  0.37397000000000025  0.75027  0.45518  1.0000
  H   H53       1.0  0.9194299999999997  0.46146  0.75822  1.0000
  H   H54       1.0  0.80046  0.56322  0.66473  1.0000
  H   H55       1.0  0.9944900000000001  0.33922  0.48216  1.0000
  H   H56       1.0  0.10175000000000019  0.24565  0.5840399999999998  1.0000
  H   H57       1.0  0.7317199999999999  0.41571  0.50113  1.0000
  H   H58       1.0  0.6322099999999999  0.4961300000000001  0.58432  1.0000
  H   H59       1.0  0.7755100000000005  0.59124  0.52298  1.0000
  H   H60       1.0  0.8750800000000001  0.50951  0.44053  1.0000
  H   H61       1.0  0.14643999999999996  0.94364  0.26251  1.0000
  H   H62       1.0  0.9274900000000004  0.04498  0.35089999999999993  1.0000
  H   H63       1.0  0.9552400000000004  0.84378  0.55384  1.0000
  H   H64       1.0  0.17168000000000003  0.74979  0.45672  1.0000
  H   H65       1.0  0.31823  0.04175000000000001  0.75963  1.0000
  H   H66       1.0  0.53168  0.93829  0.66641  1.0000
  H   H67       1.0  0.5240800000000001  0.15949  0.4808099999999999  1.0000
  H   H68       1.0  0.31321  0.25462  0.58234  1.0000
  H   H69       1.0  0.7676300000000001  0.08422  0.50034  1.0000
  H   H70       1.0  0.78268  0.00409  0.5837499999999998  1.0000
  H   H71       1.0  0.7009400000000001  0.90882  0.52353  1.0000
  H   H72       1.0  0.68501  0.99026  0.44089  1.0000
  H   H73       1.0  0.08759000000000017  0.05888  0.7627699999999997  1.0000
  H   H74       1.0  0.97226  0.95687  0.84963  1.0000
  H   H75       1.0  0.7976200000000002  0.15439  0.05533  1.0000
  H   H76       1.0  0.9190800000000001  0.24884000000000003  0.9599199999999998  1.0000
  H   H77       1.0  0.3620300000000001  0.95652  0.2593999999999999  1.0000
  H   H78       1.0  0.4699600000000001  0.06062  0.16765999999999995  1.0000
  H   H79       1.0  0.6854399999999995  0.84234  0.97921  1.0000
  H   H80       1.0  0.57094  0.7464800000000001  0.07911  1.0000
  H   H81       1.0  0.8529899999999999  0.91562  0.99977  1.0000
  H   H82       1.0  0.78733  0.99499  0.08360999999999999  1.0000
  H   H83       1.0  0.60855  0.09171  0.0239  1.0000
  H   H84       1.0  0.67462  0.01097  0.94085  1.0000
  H   H85       1.0  0.14981000000000005  0.44455  0.7638899999999997  1.0000
  H   H86       1.0  0.17879999999999996  0.54469  0.85117  1.0000
  H   H87       1.0  0.14897  0.34388  0.05435  1.0000
  H   H88       1.0  0.12340999999999995  0.25103  0.95852  1.0000
  H   H89       1.0  0.37917000000000006  0.54022  0.25804  1.0000
  H   H90       1.0  0.36248000000000014  0.43783  0.16605  1.0000
  H   H91       1.0  0.33342000000000005  0.65908  0.98052  1.0000
  H   H92       1.0  0.34745999999999994  0.75338  0.08079999999999997  1.0000
  H   H93       1.0  0.14692  0.58442  0.00058  1.0000
  H   H94       1.0  0.12810000000000002  0.50469  0.08418  1.0000
  H   H95       1.0  0.3677500000000001  0.40828  0.02332  1.0000
  H   H96       1.0  0.3852899999999999  0.4894000000000001  0.94049  1.0000
  C   C1        1.0  0.9775899999999998  0.92242  0.17198999999999995  1.0000
  C   C2        1.0  0.04319000000000001  0.97869  0.1232  1.0000
  C   C3        1.0  0.12645000000000012  0.95371  0.03865  1.0000
  C   C4        1.0  0.13964  0.86928  0.0094  1.0000
  C   C5        1.0  0.07138000000000001  0.81651  0.06214  1.0000
  C   C6        1.0  0.56578  0.06619  0.80334  1.0000
  C   C7        1.0  0.50454  0.00851  0.85494  1.0000
  C   C8        1.0  0.41153999999999996  0.03889000000000001  0.93572  1.0000
  C   C9        1.0  0.3850700000000001  0.12953  0.95902  1.0000
  C   C10       1.0  0.4497399999999999  0.18314  0.90383  1.0000
  C   C11       1.0  0.20102999999999993  0.010880000000000003  0.98364  1.0000
  C   C12       1.0  0.33746000000000004  0.98191  0.9919699999999998  1.0000
  C   C13       1.0  0.8502699999999999  0.5752800000000001  0.17126  1.0000
  C   C14       1.0  0.8332900000000002  0.51995  0.12222  1.0000
  C   C15       1.0  0.8345800000000002  0.54607  0.03814  1.0000
  C   C16       1.0  0.84978  0.6311  0.00979  1.0000
  C   C17       1.0  0.8652099999999999  0.68302  0.06282  1.0000
  C   C18       1.0  0.6304800000000002  0.43604  0.8042  1.0000
  C   C19       1.0  0.6403800000000003  0.49282  0.8559599999999998  1.0000
  C   C20       1.0  0.6529100000000001  0.46137  0.93611  1.0000
  C   C21       1.0  0.65699  0.37026  0.95844  1.0000
  C   C22       1.0  0.6476500000000002  0.31746  0.9030099999999999  1.0000
  C   C23       1.0  0.8155800000000002  0.48917  0.98314  1.0000
  C   C24       1.0  0.6704100000000001  0.51802  0.99225  1.0000
  C   C25       1.0  0.42517000000000005  0.42612  0.67194  1.0000
  C   C26       1.0  0.3531900000000001  0.48108  0.62206  1.0000
  C   C27       1.0  0.3810600000000002  0.45378  0.5383999999999999  1.0000
  C   C28       1.0  0.4817000000000001  0.36794  0.51114  1.0000
  C   C29       1.0  0.54838  0.31634  0.56506  1.0000
  C   C30       1.0  0.06666000000000002  0.56309  0.3035  1.0000
  C   C31       1.0  0.13304000000000013  0.5067  0.3560999999999999  1.0000
  C   C32       1.0  0.1138  0.5391  0.43576  1.0000
  C   C33       1.0  0.02622000000000002  0.63073  0.45706  1.0000
  C   C34       1.0  0.9646399999999999  0.68312  0.40078  1.0000
  C   C35       1.0  0.30496  0.51061  0.48295  1.0000
  C   C36       1.0  0.18832999999999997  0.48254  0.49225  1.0000
  C   C37       1.0  0.8997800000000002  0.07613  0.67268  1.0000
  C   C38       1.0  0.022169999999999968  0.020280000000000003  0.62307  1.0000
  C   C39       1.0  0.07957  0.046480000000000014  0.5389  1.0000
  C   C40       1.0  0.006799999999999975  0.13173  0.51069  1.0000
  C   C41       1.0  0.8855300000000002  0.18417  0.56428  1.0000
  C   C42       1.0  0.6325899999999999  0.93473  0.30263  1.0000
  C   C43       1.0  0.5131600000000001  0.99199  0.35505  1.0000
  C   C44       1.0  0.45135999999999993  0.9606  0.43538  1.0000
  C   C45       1.0  0.51709  0.8694  0.45767  1.0000
  C   C46       1.0  0.6356400000000002  0.81619  0.40163  1.0000
  C   C47       1.0  0.21195000000000003  0.98938  0.48345  1.0000
  C   C48       1.0  0.3196  0.01748  0.49198  1.0000
  C   C49       1.0  0.5748299999999998  0.5738800000000002  0.32806  1.0000
  C   C50       1.0  0.6468100000000002  0.51892  0.37793  1.0000
  C   C51       1.0  0.6189500000000002  0.54622  0.46159  1.0000
  C   C52       1.0  0.5183  0.63206  0.48885  1.0000
  C   C53       1.0  0.45162000000000013  0.6836600000000002  0.4349299999999999  1.0000
  C   C54       1.0  0.9333400000000001  0.43691  0.69649  1.0000
  C   C55       1.0  0.86696  0.4933  0.6439  1.0000
  C   C56       1.0  0.8862  0.4609  0.56423  1.0000
  C   C57       1.0  0.9737800000000003  0.36927  0.54294  1.0000
  C   C58       1.0  0.03535999999999996  0.31688  0.59922  1.0000
  C   C59       1.0  0.69504  0.48939  0.51705  1.0000
  C   C60       1.0  0.8116700000000004  0.51746  0.50775  1.0000
  C   C61       1.0  0.10022000000000003  0.92387  0.32732  1.0000
  C   C62       1.0  0.9778300000000001  0.97972  0.37693  1.0000
  C   C63       1.0  0.92043  0.95352  0.4611  1.0000
  C   C64       1.0  0.9932000000000002  0.8682700000000002  0.48931  1.0000
  C   C65       1.0  0.11447000000000004  0.81583  0.43571  1.0000
  C   C66       1.0  0.3674100000000001  0.06527  0.69737  1.0000
  C   C67       1.0  0.4868500000000003  0.00801  0.64494  1.0000
  C   C68       1.0  0.5486400000000001  0.0394  0.56461  1.0000
  C   C69       1.0  0.48291000000000006  0.1306  0.54233  1.0000
  C   C70       1.0  0.36436  0.18381  0.59836  1.0000
  C   C71       1.0  0.7880500000000004  0.010620000000000001  0.51655  1.0000
  C   C72       1.0  0.6803999999999999  0.98252  0.50801  1.0000
  C   C73       1.0  0.022419999999999992  0.07758  0.828  1.0000
  C   C74       1.0  0.95681  0.02131  0.8767999999999998  1.0000
  C   C75       1.0  0.8735500000000002  0.04629  0.96134  1.0000
  C   C76       1.0  0.8603600000000001  0.13072  0.9906  1.0000
  C   C77       1.0  0.9286200000000006  0.18349  0.93785  1.0000
  C   C78       1.0  0.4342200000000001  0.93381  0.19666  1.0000
  C   C79       1.0  0.49545999999999996  0.99149  0.14505  1.0000
  C   C80       1.0  0.5884599999999999  0.9611100000000001  0.06428  1.0000
  C   C81       1.0  0.6149299999999999  0.8704700000000001  0.04097  1.0000
  C   C82       1.0  0.5502600000000002  0.81686  0.09616999999999998  1.0000
  C   C83       1.0  0.7989699999999998  0.98912  0.01636  1.0000
  C   C84       1.0  0.66254  0.01809  0.00802  1.0000
  C   C85       1.0  0.14973  0.42472  0.82874  1.0000
  C   C86       1.0  0.16670999999999997  0.48005  0.87778  1.0000
  C   C87       1.0  0.16542  0.45393  0.96186  1.0000
  C   C88       1.0  0.1502200000000001  0.36890000000000006  0.9902099999999998  1.0000
  C   C89       1.0  0.13478999999999997  0.31698  0.93718  1.0000
  C   C90       1.0  0.36952000000000024  0.56396  0.19579999999999997  1.0000
  C   C91       1.0  0.3596200000000001  0.50718  0.14404  1.0000
  C   C92       1.0  0.34708999999999995  0.53863  0.06389  1.0000
  C   C93       1.0  0.34302  0.62974  0.04156  1.0000
  C   C94       1.0  0.35235  0.68254  0.09698  1.0000
  C   C95       1.0  0.18443  0.51083  0.01686  1.0000
  C   C96       1.0  0.32959  0.48198  0.00775  1.0000
  N   N1        1.0  0.9888400000000002  0.84188  0.14279  1.0000
  N   N2        1.0  0.5408200000000002  0.15299  0.82658  1.0000
  N   N3        1.0  0.8680200000000001  0.65622  0.14281  1.0000
  N   N4        1.0  0.6327000000000002  0.34887  0.82657  1.0000
  N   N5        1.0  0.52379  0.3442  0.64467  1.0000
  N   N6        1.0  0.9817099999999999  0.65088  0.32472  1.0000
  N   N7        1.0  0.8293500000000001  0.15765  0.64458  1.0000
  N   N8        1.0  0.6955600000000002  0.84727  0.32475  1.0000
  N   N9        1.0  0.4762099999999999  0.6558  0.35532  1.0000
  N   N10       1.0  0.018289999999999952  0.34912  0.67527  1.0000
  N   N11       1.0  0.17064999999999986  0.8423500000000002  0.35542  1.0000
  N   N12       1.0  0.30444  0.15273  0.6752399999999998  1.0000
  N   N13       1.0  0.01115999999999994  0.15812  0.85721  1.0000
  N   N14       1.0  0.45918  0.84701  0.17341  1.0000
  N   N15       1.0  0.13198000000000004  0.34378000000000003  0.85719  1.0000
  N   N16       1.0  0.36730000000000007  0.65113  0.17342999999999995  1.0000
