data_image0
_chemical_formula_structural       K8Cd4H24C64N8O48
_chemical_formula_sum              "K8 Cd4 H24 C64 N8 O48"
_cell_length_a       10.51158
_cell_length_b       10.4519
_cell_length_c       22.14953
_cell_angle_alpha    89.9999
_cell_angle_beta     89.98463999999998
_cell_angle_gamma    89.62295999999999

_symmetry_space_group_name_H-M    'P 1'
_symmetry_Int_Tables_number       1

loop_
  _symmetry_equiv_pos_as_xyz
  'x,y,z'

loop_
  _atom_site_type_symbol
  _atom_site_label
  _atom_site_symmetry_multiplicity
  _atom_site_fract_x
  _atom_site_fract_y
  _atom_site_fract_z
  _atom_site_occupancy
  K   K1        1.0  0.4051100000000001  0.89214  0.88464  1.0000
  K   K2        1.0  0.8999800000000001  0.8512500000000001  0.88621  1.0000
  K   K3        1.0  0.59529  0.1076  0.3849400000000001  1.0000
  K   K4        1.0  0.09993  0.14875  0.38631  1.0000
  K   K5        1.0  0.11127000000000001  0.40709  0.1318  1.0000
  K   K6        1.0  0.13898  0.8956800000000001  0.13807  1.0000
  K   K7        1.0  0.88874  0.59298  0.63178  1.0000
  K   K8        1.0  0.86103  0.10426000000000002  0.63805  1.0000
  Cd  Cd1       1.0  0.11741000000000001  0.74358  0.00211  1.0000
  Cd  Cd2       1.0  0.88262  0.25645  0.5021500000000001  1.0000
  Cd  Cd3       1.0  0.25682  0.11830000000000002  0.25129  1.0000
  Cd  Cd4       1.0  0.74267  0.8817  0.7511  1.0000
  H   H1        1.0  0.0598  0.45697  0.84253  1.0000
  H   H2        1.0  0.08465  0.04546  0.8390000000000001  1.0000
  H   H3        1.0  0.12222000000000001  0.24796  0.00753  1.0000
  H   H4        1.0  0.8181000000000002  0.75032  0.1696  1.0000
  H   H5        1.0  0.40870000000000006  0.73655  0.16446  1.0000
  H   H6        1.0  0.62329  0.75031  0.99862  1.0000
  H   H7        1.0  0.94019  0.54304  0.34253  1.0000
  H   H8        1.0  0.9153200000000001  0.95456  0.33901  1.0000
  H   H9        1.0  0.8777700000000002  0.75203  0.50755  1.0000
  H   H10       1.0  0.18186  0.24968  0.66963  1.0000
  H   H11       1.0  0.59126  0.26347  0.66444  1.0000
  H   H12       1.0  0.37678  0.24971  0.49863  1.0000
  H   H13       1.0  0.54626  0.06043  0.0954  1.0000
  H   H14       1.0  0.95424  0.09235  0.08842  1.0000
  H   H15       1.0  0.7585000000000001  0.12089  0.25914  1.0000
  H   H16       1.0  0.24496000000000007  0.82044  0.41996000000000006  1.0000
  H   H17       1.0  0.26214  0.40795000000000003  0.4116  1.0000
  H   H18       1.0  0.24949000000000002  0.63052  0.24787  1.0000
  H   H19       1.0  0.45337  0.9396000000000001  0.59504  1.0000
  H   H20       1.0  0.045250000000000005  0.90761  0.58847  1.0000
  H   H21       1.0  0.24208  0.8791500000000001  0.7589700000000001  1.0000
  H   H22       1.0  0.75504  0.17959  0.91994  1.0000
  H   H23       1.0  0.73786  0.59208  0.9116000000000001  1.0000
  H   H24       1.0  0.75051  0.36955  0.74785  1.0000
  C   C1        1.0  0.09657  0.49145999999999995  0.96217  1.0000
  C   C2        1.0  0.09208  0.36653  0.9289100000000001  1.0000
  C   C3        1.0  0.07243  0.36719  0.86646  1.0000
  C   C4        1.0  0.06873  0.25095  0.8360300000000002  1.0000
  C   C5        1.0  0.08722  0.13361  0.86511  1.0000
  C   C6        1.0  0.10774000000000003  0.13341  0.92768  1.0000
  C   C7        1.0  0.1084  0.24998000000000004  0.95895  1.0000
  C   C8        1.0  0.12594  0.01059  0.9624700000000002  1.0000
  C   C9        1.0  0.85913  0.74909  0.04727000000000001  1.0000
  C   C10       1.0  0.7341  0.74885  0.08041  1.0000
  C   C11       1.0  0.7305000000000001  0.74838  0.14362  1.0000
  C   C12       1.0  0.61236  0.74276  0.17203  1.0000
  C   C13       1.0  0.49828000000000006  0.74066  0.14016  1.0000
  C   C14       1.0  0.50197  0.74614  0.07702  1.0000
  C   C15       1.0  0.61987  0.74912  0.04766  1.0000
  C   C16       1.0  0.37993000000000005  0.74665  0.04161000000000001  1.0000
  C   C17       1.0  0.9034300000000001  0.50854  0.46218  1.0000
  C   C18       1.0  0.9079200000000001  0.63348  0.42893000000000003  1.0000
  C   C19       1.0  0.9275600000000002  0.63282  0.36647  1.0000
  C   C20       1.0  0.93125  0.74906  0.33603  1.0000
  C   C21       1.0  0.91277  0.8663999999999998  0.36512  1.0000
  C   C22       1.0  0.89225  0.86659  0.4277000000000001  1.0000
  C   C23       1.0  0.8915900000000001  0.75002  0.45897000000000004  1.0000
  C   C24       1.0  0.8740400000000002  0.98941  0.46249000000000007  1.0000
  C   C25       1.0  0.1409  0.25092  0.5473  1.0000
  C   C26       1.0  0.26591  0.25116  0.58043  1.0000
  C   C27       1.0  0.26948  0.25163  0.64364  1.0000
  C   C28       1.0  0.38759  0.25726  0.67204  1.0000
  C   C29       1.0  0.50168  0.25936  0.6401600000000001  1.0000
  C   C30       1.0  0.49804  0.25389  0.57702  1.0000
  C   C31       1.0  0.38017000000000006  0.25089  0.54766  1.0000
  C   C32       1.0  0.62014  0.25344  0.54164  1.0000
  C   C33       1.0  0.51585  0.09671  0.2158  1.0000
  C   C34       1.0  0.6387400000000001  0.09184  0.18111  1.0000
  C   C35       1.0  0.63619  0.07364  0.11858000000000003  1.0000
  C   C36       1.0  0.7508  0.07252  0.08710000000000001  1.0000
  C   C37       1.0  0.8677400000000001  0.09235  0.11542  1.0000
  C   C38       1.0  0.8697900000000001  0.1112  0.17815  1.0000
  C   C39       1.0  0.75524  0.10838000000000002  0.21046000000000004  1.0000
  C   C40       1.0  0.9928300000000001  0.13076  0.21184000000000003  1.0000
  C   C41       1.0  0.24919  0.8667400000000001  0.29971  1.0000
  C   C42       1.0  0.24971000000000002  0.73879  0.33057  1.0000
  C   C43       1.0  0.24828  0.73265  0.3936800000000001  1.0000
  C   C44       1.0  0.25409  0.61276  0.42094  1.0000
  C   C45       1.0  0.25799  0.49915000000000004  0.38815  1.0000
  C   C46       1.0  0.25328  0.50557  0.32511000000000007  1.0000
  C   C47       1.0  0.25049  0.62531  0.29679  1.0000
  C   C48       1.0  0.25169  0.38388999999999995  0.28915  1.0000
  C   C49       1.0  0.48424  0.9029800000000001  0.7155400000000001  1.0000
  C   C50       1.0  0.36136  0.90805  0.6809600000000001  1.0000
  C   C51       1.0  0.36367000000000005  0.9263499999999999  0.61843  1.0000
  C   C52       1.0  0.24895000000000003  0.9275199999999999  0.58704  1.0000
  C   C53       1.0  0.13196  0.90771  0.61536  1.0000
  C   C54       1.0  0.13016  0.88888  0.6781100000000001  1.0000
  C   C55       1.0  0.24487  0.89165  0.71031  1.0000
  C   C56       1.0  0.0071299999999999975  0.8692800000000002  0.7119  1.0000
  C   C57       1.0  0.7505800000000001  0.13327  0.7996400000000001  1.0000
  C   C58       1.0  0.7503  0.26122  0.83053  1.0000
  C   C59       1.0  0.75175  0.26736  0.89365  1.0000
  C   C60       1.0  0.74595  0.38727  0.9209100000000001  1.0000
  C   C61       1.0  0.74203  0.50089  0.8881300000000001  1.0000
  C   C62       1.0  0.74674  0.49445000000000006  0.8250900000000001  1.0000
  C   C63       1.0  0.7495300000000001  0.37471  0.7967700000000001  1.0000
  C   C64       1.0  0.74822  0.61599  0.78902  1.0000
  N   N1        1.0  0.04276000000000001  0.25278  0.7709700000000002  1.0000
  N   N2        1.0  0.60556  0.73873  0.23827  1.0000
  N   N3        1.0  0.95722  0.74722  0.27097  1.0000
  N   N4        1.0  0.39442  0.26127  0.73827  1.0000
  N   N5        1.0  0.74671  0.050010000000000006  0.02172  1.0000
  N   N6        1.0  0.2554  0.60269  0.48703  1.0000
  N   N7        1.0  0.25291  0.95001  0.52161  1.0000
  N   N8        1.0  0.7446000000000002  0.39732999999999996  0.9870100000000003  1.0000
  O   O1        1.0  0.10419  0.49249  0.019310000000000004  1.0000
  O   O2        1.0  0.09411  0.59306  0.92973  1.0000
  O   O3        1.0  0.13267  0.01285  0.019020000000000002  1.0000
  O   O4        1.0  0.13195  0.90679  0.93038  1.0000
  O   O5        1.0  0.03186  0.35822  0.7452100000000003  1.0000
  O   O6        1.0  0.03151  0.14833  0.7448900000000002  1.0000
  O   O7        1.0  0.85775  0.74027  0.99042  1.0000
  O   O8        1.0  0.9620700000000001  0.75925  0.07848  1.0000
  O   O9        1.0  0.38169  0.76027  0.9850800000000001  1.0000
  O   O10       1.0  0.27637  0.73314  0.07248  1.0000
  O   O11       1.0  0.51402  0.68259  0.26133  1.0000
  O   O12       1.0  0.69172  0.79296  0.26698  1.0000
  O   O13       1.0  0.89584  0.50751  0.51933  1.0000
  O   O14       1.0  0.90589  0.40695000000000003  0.42974  1.0000
  O   O15       1.0  0.86728  0.9871500000000001  0.51904  1.0000
  O   O16       1.0  0.86803  0.0932  0.4304  1.0000
  O   O17       1.0  0.96816  0.64179  0.24520000000000003  1.0000
  O   O18       1.0  0.96844  0.8516800000000001  0.24490000000000003  1.0000
  O   O19       1.0  0.14232  0.25975  0.49045  1.0000
  O   O20       1.0  0.03791  0.24075  0.5785  1.0000
  O   O21       1.0  0.61846  0.23992000000000002  0.4851  1.0000
  O   O22       1.0  0.72365  0.26686  0.57252  1.0000
  O   O23       1.0  0.48596  0.31742  0.7613000000000001  1.0000
  O   O24       1.0  0.3083  0.20699000000000004  0.7670100000000002  1.0000
  O   O25       1.0  0.5185  0.10046  0.27287  1.0000
  O   O26       1.0  0.41353000000000006  0.09843  0.18414000000000003  1.0000
  O   O27       1.0  0.9933800000000002  0.13729  0.26852  1.0000
  O   O28       1.0  0.0945  0.13679  0.17876  1.0000
  O   O29       1.0  0.64042  0.04463  0.9969900000000003  1.0000
  O   O30       1.0  0.84935  0.03762  0.99438  1.0000
  O   O31       1.0  0.25384000000000007  0.87101  0.24249  1.0000
  O   O32       1.0  0.24380000000000002  0.96783  0.33264  1.0000
  O   O33       1.0  0.23767  0.38730000000000003  0.23273000000000002  1.0000
  O   O34       1.0  0.26445  0.27937  0.31987  1.0000
  O   O35       1.0  0.31827000000000005  0.51398  0.50956  1.0000
  O   O36       1.0  0.19188000000000002  0.68271  0.51598  1.0000
  O   O37       1.0  0.48167  0.8995  0.7726400000000002  1.0000
  O   O38       1.0  0.58624  0.90128  0.68357  1.0000
  O   O39       1.0  0.006659999999999999  0.86275  0.76858  1.0000
  O   O40       1.0  0.90538  0.8632000000000001  0.6788700000000001  1.0000
  O   O41       1.0  0.35914  0.95536  0.4968300000000001  1.0000
  O   O42       1.0  0.15032  0.96243  0.4942800000000001  1.0000
  O   O43       1.0  0.74538  0.129  0.74243  1.0000
  O   O44       1.0  0.75615  0.03217  0.83255  1.0000
  O   O45       1.0  0.7623400000000001  0.61222  0.73262  1.0000
  O   O46       1.0  0.73519  0.72068  0.81959  1.0000
  O   O47       1.0  0.68171  0.48603  0.00955  1.0000
  O   O48       1.0  0.80812  0.31731  0.01594  1.0000
