data_image0
_chemical_formula_structural       Cd2H60C72N24
_chemical_formula_sum              "Cd2 H60 C72 N24"
_cell_length_a       8.51277
_cell_length_b       13.62385
_cell_length_c       22.00371
_cell_angle_alpha    90.0
_cell_angle_beta     90.0
_cell_angle_gamma    103.71943

_symmetry_space_group_name_H-M    'P 1'
_symmetry_Int_Tables_number       1

loop_
  _symmetry_equiv_pos_as_xyz
  'x,y,z'

loop_
  _atom_site_type_symbol
  _atom_site_label
  _atom_site_symmetry_multiplicity
  _atom_site_fract_x
  _atom_site_fract_y
  _atom_site_fract_z
  _atom_site_occupancy
  Cd  Cd1       1.0  0.5  0.0  0.0  1.0000
  Cd  Cd2       1.0  0.0  0.5  0.5  1.0000
  H   H1        1.0  0.5515  0.88376  0.86125  1.0000
  H   H2        1.0  0.79203  0.86553  0.0268  1.0000
  H   H3        1.0  0.88429  0.73557  0.94355  1.0000
  H   H4        1.0  0.9883500000000001  0.74628  0.8402700000000001  1.0000
  H   H5        1.0  0.48048  0.7241  0.80707  1.0000
  H   H6        1.0  0.65395  0.25744  0.02839  1.0000
  H   H7        1.0  0.8197  0.07922  0.89828  1.0000
  H   H8        1.0  0.023550000000000005  0.27198  0.8958700000000002  1.0000
  H   H9        1.0  0.030010000000000002  0.44245  0.8941999999999999  1.0000
  H   H10       1.0  0.84722  0.38234  0.0778  1.0000
  H   H11       1.0  0.0001599999999999865  0.6306299999999999  0.63893  1.0000
  H   H12       1.0  0.6298300000000002  0.39806  0.56726  1.0000
  H   H13       1.0  0.5141200000000002  0.47169  0.67194  1.0000
  H   H14       1.0  0.0023300000000000152  0.64632  0.7479600000000001  1.0000
  H   H15       1.0  0.49611  0.62779  0.71342  1.0000
  H   H16       1.0  0.9484999999999999  0.61624  0.36125  1.0000
  H   H17       1.0  0.70797  0.63447  0.5268  1.0000
  H   H18       1.0  0.61571  0.76442  0.44355000000000006  1.0000
  H   H19       1.0  0.51165  0.75371  0.34027  1.0000
  H   H20       1.0  0.01953  0.7759  0.30707  1.0000
  H   H21       1.0  0.84605  0.24256  0.52839  1.0000
  H   H22       1.0  0.68029  0.42078  0.39828  1.0000
  H   H23       1.0  0.47645  0.22802  0.39586999999999994  1.0000
  H   H24       1.0  0.46999  0.05755  0.3942  1.0000
  H   H25       1.0  0.65278  0.11766  0.5778  1.0000
  H   H26       1.0  0.49983999999999995  0.86937  0.13893  1.0000
  H   H27       1.0  0.87017  0.10194  0.06726  1.0000
  H   H28       1.0  0.9858800000000001  0.0283  0.17194  1.0000
  H   H29       1.0  0.49767000000000006  0.85367  0.24796  1.0000
  H   H30       1.0  0.003890000000000027  0.8722  0.21342  1.0000
  H   H31       1.0  0.44850000000000007  0.11624  0.13875  1.0000
  H   H32       1.0  0.20797  0.13447  0.9732000000000001  1.0000
  H   H33       1.0  0.11571000000000002  0.26443  0.05646  1.0000
  H   H34       1.0  0.011649999999999999  0.25372  0.15973  1.0000
  H   H35       1.0  0.5195200000000001  0.2759  0.19293000000000002  1.0000
  H   H36       1.0  0.3460500000000001  0.7425599999999999  0.97162  1.0000
  H   H37       1.0  0.18030000000000004  0.92078  0.10172  1.0000
  H   H38       1.0  0.9764500000000002  0.72801  0.10413  1.0000
  H   H39       1.0  0.96999  0.55755  0.1058  1.0000
  H   H40       1.0  0.15278000000000003  0.61766  0.92221  1.0000
  H   H41       1.0  0.99984  0.36937  0.36107  1.0000
  H   H42       1.0  0.37017  0.60194  0.43274  1.0000
  H   H43       1.0  0.4858799999999999  0.5283  0.32806  1.0000
  H   H44       1.0  0.9976700000000001  0.35368  0.25204  1.0000
  H   H45       1.0  0.50389  0.37221  0.28658  1.0000
  H   H46       1.0  0.05149999999999999  0.38376  0.63875  1.0000
  H   H47       1.0  0.29203  0.3655300000000001  0.47320000000000007  1.0000
  H   H48       1.0  0.38429  0.23557000000000003  0.55646  1.0000
  H   H49       1.0  0.48835  0.24628  0.65973  1.0000
  H   H50       1.0  0.9804700000000001  0.2241  0.69293  1.0000
  H   H51       1.0  0.15395000000000006  0.75743  0.47162000000000004  1.0000
  H   H52       1.0  0.31971  0.57922  0.60172  1.0000
  H   H53       1.0  0.52355  0.77198  0.60413  1.0000
  H   H54       1.0  0.53001  0.94245  0.6058  1.0000
  H   H55       1.0  0.34722  0.88234  0.4222  1.0000
  H   H56       1.0  0.50016  0.13063  0.86107  1.0000
  H   H57       1.0  0.12983  0.89805  0.9327400000000001  1.0000
  H   H58       1.0  0.01411999999999997  0.97169  0.82806  1.0000
  H   H59       1.0  0.50233  0.14632  0.75204  1.0000
  H   H60       1.0  0.99611  0.12779  0.78658  1.0000
  C   C1        1.0  0.62695  0.86081  0.89543  1.0000
  C   C2        1.0  0.75647  0.8499499999999999  0.97987  1.0000
  C   C3        1.0  0.80668  0.78748  0.93883  1.0000
  C   C4        1.0  0.73319  0.74117  0.8305  1.0000
  C   C5        1.0  0.8806800000000001  0.71925  0.81283  1.0000
  C   C6        1.0  0.59478  0.70813  0.79371  1.0000
  C   C7        1.0  0.7274  0.23427  0.9936  1.0000
  C   C8        1.0  0.81535  0.14581  0.92447  1.0000
  C   C9        1.0  0.9167500000000002  0.24111  0.9225900000000001  1.0000
  C   C10       1.0  0.93045  0.39885  0.9837  1.0000
  C   C11       1.0  0.01938999999999999  0.4670099999999999  0.94074  1.0000
  C   C12       1.0  0.9117300000000002  0.43371999999999994  0.04338  1.0000
  C   C13       1.0  0.88676  0.57484  0.6345  1.0000
  C   C14       1.0  0.69015  0.45616  0.59855  1.0000
  C   C15       1.0  0.62932  0.49414  0.64901  1.0000
  C   C16       1.0  0.7496400000000002  0.62911  0.72435  1.0000
  C   C17       1.0  0.8888600000000001  0.6641199999999999  0.7605  1.0000
  C   C18       1.0  0.60305  0.65294  0.74147  1.0000
  C   C19       1.0  0.8730500000000001  0.63919  0.39543  1.0000
  C   C20       1.0  0.74354  0.65005  0.4798700000000001  1.0000
  C   C21       1.0  0.69332  0.71252  0.43883  1.0000
  C   C22       1.0  0.76681  0.75883  0.3305  1.0000
  C   C23       1.0  0.61932  0.78074  0.31283  1.0000
  C   C24       1.0  0.90522  0.79187  0.29371  1.0000
  C   C25       1.0  0.7726  0.26573  0.49359  1.0000
  C   C26       1.0  0.68465  0.35418999999999995  0.42447  1.0000
  C   C27       1.0  0.58325  0.25889  0.42259  1.0000
  C   C28       1.0  0.56955  0.10114999999999999  0.48369999999999996  1.0000
  C   C29       1.0  0.4806099999999999  0.03299  0.44074  1.0000
  C   C30       1.0  0.58827  0.06628  0.54338  1.0000
  C   C31       1.0  0.61324  0.92515  0.1345  1.0000
  C   C32       1.0  0.80984  0.04384  0.09855  1.0000
  C   C33       1.0  0.8706800000000002  0.00586  0.14901  1.0000
  C   C34       1.0  0.75036  0.87089  0.22435  1.0000
  C   C35       1.0  0.61114  0.83587  0.2605  1.0000
  C   C36       1.0  0.89695  0.84706  0.24147  1.0000
  C   C37       1.0  0.37305  0.13919  0.10457  1.0000
  C   C38       1.0  0.24353  0.15005  0.02013  1.0000
  C   C39       1.0  0.19332  0.21252  0.06117  1.0000
  C   C40       1.0  0.26681  0.25883  0.1695  1.0000
  C   C41       1.0  0.11931999999999998  0.28075  0.18717  1.0000
  C   C42       1.0  0.40522  0.29187  0.20629000000000003  1.0000
  C   C43       1.0  0.27259999999999995  0.7657299999999999  0.00641  1.0000
  C   C44       1.0  0.18465  0.85419  0.07553  1.0000
  C   C45       1.0  0.08325  0.75888  0.07741  1.0000
  C   C46       1.0  0.06955000000000001  0.60115  0.0163  1.0000
  C   C47       1.0  0.9806100000000001  0.53299  0.05926  1.0000
  C   C48       1.0  0.08827000000000004  0.56628  0.9566200000000001  1.0000
  C   C49       1.0  0.11324  0.42515  0.3655  1.0000
  C   C50       1.0  0.3098500000000001  0.54384  0.40146  1.0000
  C   C51       1.0  0.37068  0.50586  0.35099  1.0000
  C   C52       1.0  0.25036  0.37089  0.27565  1.0000
  C   C53       1.0  0.11114000000000003  0.33587  0.23950000000000002  1.0000
  C   C54       1.0  0.39695  0.34706  0.25853  1.0000
  C   C55       1.0  0.12694999999999998  0.36080999999999996  0.60457  1.0000
  C   C56       1.0  0.25647  0.34995  0.52013  1.0000
  C   C57       1.0  0.30668000000000006  0.28748  0.56117  1.0000
  C   C58       1.0  0.23318999999999998  0.24117  0.6695  1.0000
  C   C59       1.0  0.38068  0.21925  0.68717  1.0000
  C   C60       1.0  0.09477999999999999  0.20812999999999998  0.70629  1.0000
  C   C61       1.0  0.22739999999999994  0.73427  0.50641  1.0000
  C   C62       1.0  0.3153500000000001  0.6458000000000002  0.57553  1.0000
  C   C63       1.0  0.41675  0.74111  0.57741  1.0000
  C   C64       1.0  0.4304500000000001  0.89885  0.5163  1.0000
  C   C65       1.0  0.5193900000000002  0.96701  0.55926  1.0000
  C   C66       1.0  0.41173  0.93371  0.45662  1.0000
  C   C67       1.0  0.38676  0.07485  0.8655  1.0000
  C   C68       1.0  0.19015999999999997  0.9561599999999999  0.9014599999999999  1.0000
  C   C69       1.0  0.12932000000000005  0.99413  0.85099  1.0000
  C   C70       1.0  0.24964000000000003  0.12911  0.77565  1.0000
  C   C71       1.0  0.38886000000000015  0.16412  0.7395000000000002  1.0000
  C   C72       1.0  0.10305000000000002  0.15294000000000002  0.75853  1.0000
  N   N1        1.0  0.6452900000000003  0.89463  0.95272  1.0000
  N   N2        1.0  0.72366  0.7946  0.88476  1.0000
  N   N3        1.0  0.69899  0.14233  0.96834  1.0000
  N   N4        1.0  0.86101  0.29779  0.96738  1.0000
  N   N5        1.0  0.84945  0.506  0.59016  1.0000
  N   N6        1.0  0.7556500000000002  0.57016  0.67213  1.0000
  N   N7        1.0  0.85471  0.60536  0.45272000000000007  1.0000
  N   N8        1.0  0.7763499999999999  0.70539  0.38476  1.0000
  N   N9        1.0  0.801  0.35766999999999993  0.46834000000000003  1.0000
  N   N10       1.0  0.6389800000000002  0.20221  0.46738  1.0000
  N   N11       1.0  0.65055  0.994  0.09016  1.0000
  N   N12       1.0  0.7443499999999998  0.9298299999999999  0.17213  1.0000
  N   N13       1.0  0.35471  0.10536  0.04728  1.0000
  N   N14       1.0  0.27635  0.20539999999999997  0.11524000000000001  1.0000
  N   N15       1.0  0.30101000000000006  0.8576600000000001  0.03166  1.0000
  N   N16       1.0  0.13899000000000009  0.7022100000000001  0.03262  1.0000
  N   N17       1.0  0.15055  0.494  0.40984  1.0000
  N   N18       1.0  0.24435  0.42983999999999994  0.32787  1.0000
  N   N19       1.0  0.14529  0.39463  0.54728  1.0000
  N   N20       1.0  0.22366  0.2946  0.61524  1.0000
  N   N21       1.0  0.199  0.6423299999999998  0.53166  1.0000
  N   N22       1.0  0.36101999999999995  0.7977899999999999  0.53262  1.0000
  N   N23       1.0  0.3494500000000001  0.005999999999999999  0.9098400000000001  1.0000
  N   N24       1.0  0.25565  0.07016  0.82787  1.0000
