data_image0
_chemical_formula_structural       Eu4H52C84N8O24
_chemical_formula_sum              "Eu4 H52 C84 N8 O24"
_cell_length_a       13.78944
_cell_length_b       15.202770000000001
_cell_length_c       15.706630000000002
_cell_angle_alpha    93.7519
_cell_angle_beta     112.84793
_cell_angle_gamma    90.43736

_symmetry_space_group_name_H-M    'P 1'
_symmetry_Int_Tables_number       1

loop_
  _symmetry_equiv_pos_as_xyz
  'x,y,z'

loop_
  _atom_site_type_symbol
  _atom_site_label
  _atom_site_symmetry_multiplicity
  _atom_site_fract_x
  _atom_site_fract_y
  _atom_site_fract_z
  _atom_site_occupancy
  Eu  Eu1       1.0  0.49868  0.00983  0.12836  1.0000
  Eu  Eu2       1.0  0.88878  0.4749999999999999  0.8761500000000001  1.0000
  Eu  Eu3       1.0  0.50122  0.9900199999999998  0.87175  1.0000
  Eu  Eu4       1.0  0.11098  0.5246  0.12396  1.0000
  H   H1        1.0  0.85628  0.9715099999999998  0.3724400000000001  1.0000
  H   H2        1.0  0.98511  0.9074999999999998  0.51532  1.0000
  H   H3        1.0  0.72623  0.7907599999999999  0.56195  1.0000
  H   H4        1.0  0.59865  0.8523099999999998  0.41827  1.0000
  H   H5        1.0  0.23799  0.7660099999999997  0.02607  1.0000
  H   H6        1.0  0.98155  0.7002099999999998  0.76696  1.0000
  H   H7        1.0  0.21165  0.9056099999999998  0.78848  1.0000
  H   H8        1.0  0.32513999999999993  0.17250999999999994  0.16355  1.0000
  H   H9        1.0  0.15750000000000003  0.1809  0.18915  1.0000
  H   H10       1.0  0.09711000000000003  0.049370000000000004  0.24813000000000004  1.0000
  H   H11       1.0  0.21134  0.9171499999999998  0.28182  1.0000
  H   H12       1.0  0.37777  0.9213099999999997  0.25383  1.0000
  H   H13       1.0  0.70926  0.56594  0.54708  1.0000
  H   H14       1.0  0.7146  0.6271699999999999  0.40457  1.0000
  H   H15       1.0  0.05265999999999998  0.6141299999999997  0.51887  1.0000
  H   H16       1.0  0.0461500000000001  0.5509799999999998  0.6594800000000002  1.0000
  H   H17       1.0  0.88684  0.59032  0.19081  1.0000
  H   H18       1.0  0.68174  0.79849  0.20993  1.0000
  H   H19       1.0  0.71669  0.7341299999999997  0.9533  1.0000
  H   H20       1.0  0.7251900000000001  0.2767799999999999  0.8361500000000002  1.0000
  H   H21       1.0  0.5382400000000002  0.22759999999999994  0.7991500000000001  1.0000
  H   H22       1.0  0.39726999999999996  0.3394999999999999  0.74677  1.0000
  H   H23       1.0  0.45038  0.4947299999999999  0.73256  1.0000
  H   H24       1.0  0.6405100000000001  0.53173  0.7708000000000002  1.0000
  H   H25       1.0  0.8896900000000001  0.7766199999999998  0.66956  1.0000
  H   H26       1.0  0.96116  0.6554999999999997  0.3584  1.0000
  H   H27       1.0  0.14380000000000015  0.028620000000000007  0.6274300000000003  1.0000
  H   H28       1.0  0.014790000000000003  0.09242999999999997  0.48438  1.0000
  H   H29       1.0  0.27384  0.2093  0.43773  1.0000
  H   H30       1.0  0.40123  0.14806999999999995  0.58171  1.0000
  H   H31       1.0  0.76079  0.23410999999999996  0.97411  1.0000
  H   H32       1.0  0.01818  0.29926999999999987  0.23244  1.0000
  H   H33       1.0  0.7880100000000001  0.0938  0.21153000000000005  1.0000
  H   H34       1.0  0.6746399999999999  0.82754  0.8364100000000001  1.0000
  H   H35       1.0  0.84236  0.8192199999999997  0.81086  1.0000
  H   H36       1.0  0.90271  0.95072  0.75189  1.0000
  H   H37       1.0  0.78846  0.08289999999999997  0.71813  1.0000
  H   H38       1.0  0.62194  0.07877000000000002  0.7461500000000001  1.0000
  H   H39       1.0  0.29079  0.43386999999999987  0.45281  1.0000
  H   H40       1.0  0.28548  0.37287  0.59547  1.0000
  H   H41       1.0  0.94743  0.3860299999999999  0.48123000000000005  1.0000
  H   H42       1.0  0.9539499999999999  0.4488899999999999  0.34046  1.0000
  H   H43       1.0  0.11328000000000002  0.4094199999999999  0.80934  1.0000
  H   H44       1.0  0.31859000000000004  0.20142999999999994  0.7899400000000001  1.0000
  H   H45       1.0  0.28352  0.2652799999999999  0.04655  1.0000
  H   H46       1.0  0.27441  0.7231899999999998  0.16328  1.0000
  H   H47       1.0  0.46144  0.7724499999999997  0.20074  1.0000
  H   H48       1.0  0.60245  0.6605099999999998  0.25327  1.0000
  H   H49       1.0  0.5491999999999999  0.5052899999999998  0.26741  1.0000
  H   H50       1.0  0.35901000000000005  0.4682699999999999  0.22864000000000007  1.0000
  H   H51       1.0  0.11006  0.22345  0.33021  1.0000
  H   H52       1.0  0.03895000000000001  0.3444699999999999  0.64162  1.0000
  C   C1        1.0  0.64256  0.9567499999999998  0.30573  1.0000
  C   C2        1.0  0.7200900000000001  0.9162799999999998  0.38795000000000013  1.0000
  C   C3        1.0  0.8293  0.9310999999999998  0.41426  1.0000
  C   C4        1.0  0.9005  0.89583  0.4930700000000001  1.0000
  C   C5        1.0  0.86349  0.8455699999999998  0.54757  1.0000
  C   C6        1.0  0.75413  0.8292799999999998  0.51936  1.0000
  C   C7        1.0  0.68313  0.8638299999999999  0.44018  1.0000
  C   C8        1.0  0.9314100000000002  0.81447  0.6360400000000003  1.0000
  C   C9        1.0  0.3313400000000001  0.8934799999999998  0.9740500000000002  1.0000
  C   C10       1.0  0.23488000000000012  0.8405899999999997  0.9131900000000002  1.0000
  C   C11       1.0  0.19619  0.7767  0.95341  1.0000
  C   C12       1.0  0.10536000000000012  0.72603  0.9000400000000002  1.0000
  C   C13       1.0  0.05140000000000004  0.7413799999999999  0.8069000000000001  1.0000
  C   C14       1.0  0.08669999999999994  0.8085499999999999  0.76646  1.0000
  C   C15       1.0  0.1817400000000001  0.8558699999999999  0.8198900000000002  1.0000
  C   C16       1.0  0.06495  0.65586  0.94257  1.0000
  C   C17       1.0  0.29771  0.11808  0.19107  1.0000
  C   C18       1.0  0.20384  0.12201999999999998  0.20507  1.0000
  C   C19       1.0  0.17066  0.049039999999999986  0.23762  1.0000
  C   C20       1.0  0.23366000000000003  0.9755299999999998  0.2562  1.0000
  C   C21       1.0  0.32646  0.9771999999999997  0.24054  1.0000
  C   C22       1.0  0.87154  0.5134  0.69317  1.0000
  C   C23       1.0  0.87724  0.5532799999999999  0.61066  1.0000
  C   C24       1.0  0.78347  0.57643  0.53941  1.0000
  C   C25       1.0  0.78653  0.6104399999999998  0.46078  1.0000
  C   C26       1.0  0.88351  0.62354  0.45182  1.0000
  C   C27       1.0  0.9774500000000002  0.60361  0.52486  1.0000
  C   C28       1.0  0.97422  0.56825  0.60347  1.0000
  C   C29       1.0  0.8853  0.65383  0.3661100000000001  1.0000
  C   C30       1.0  0.84261  0.5987499999999998  0.00644  1.0000
  C   C31       1.0  0.80622  0.65773  0.06695000000000001  1.0000
  C   C32       1.0  0.83385  0.6427599999999999  0.16023  1.0000
  C   C33       1.0  0.78857  0.69381  0.21275  1.0000
  C   C34       1.0  0.71881  0.76028  0.17069000000000006  1.0000
  C   C35       1.0  0.69533  0.77731  0.07869  1.0000
  C   C36       1.0  0.7377499999999999  0.72483  0.026250000000000006  1.0000
  C   C37       1.0  0.62058  0.84911  0.03773  1.0000
  C   C38       1.0  0.66146  0.3225399999999999  0.81186  1.0000
  C   C39       1.0  0.55744  0.29551  0.79156  1.0000
  C   C40       1.0  0.47939  0.35777  0.76262  1.0000
  C   C41       1.0  0.50845  0.4439999999999999  0.7543900000000002  1.0000
  C   C42       1.0  0.6143  0.4652499999999999  0.7757100000000002  1.0000
  C   C43       1.0  0.3574100000000001  0.04522  0.6948600000000003  1.0000
  C   C44       1.0  0.27969  0.08433  0.61192  1.0000
  C   C45       1.0  0.1706  0.06902999999999997  0.5855  1.0000
  C   C46       1.0  0.0994  0.10413  0.5066  1.0000
  C   C47       1.0  0.13645000000000002  0.15441999999999995  0.45212000000000013  1.0000
  C   C48       1.0  0.2457900000000001  0.17077999999999993  0.4802400000000001  1.0000
  C   C49       1.0  0.31673  0.13649999999999995  0.55957  1.0000
  C   C50       1.0  0.06841000000000004  0.18553  0.3637600000000001  1.0000
  C   C51       1.0  0.66851  0.10513999999999997  0.025410000000000005  1.0000
  C   C52       1.0  0.7642499999999999  0.15898999999999994  0.08674  1.0000
  C   C53       1.0  0.80279  0.22331000000000004  0.04676000000000002  1.0000
  C   C54       1.0  0.89393  0.27378  0.10028000000000001  1.0000
  C   C55       1.0  0.94807  0.25814999999999994  0.19319000000000006  1.0000
  C   C56       1.0  0.91279  0.19097999999999996  0.23359000000000005  1.0000
  C   C57       1.0  0.81771  0.14364999999999994  0.18009  1.0000
  C   C58       1.0  0.93535  0.3437899999999999  0.05824  1.0000
  C   C59       1.0  0.70205  0.88199  0.80889  1.0000
  C   C60       1.0  0.7959500000000002  0.8780699999999998  0.7949400000000002  1.0000
  C   C61       1.0  0.82913  0.9510399999999998  0.7623500000000001  1.0000
  C   C62       1.0  0.76609  0.024539999999999992  0.74374  1.0000
  C   C63       1.0  0.67325  0.02285999999999999  0.75937  1.0000
  C   C64       1.0  0.12841  0.48656  0.30682  1.0000
  C   C65       1.0  0.12279  0.44651999999999986  0.38928  1.0000
  C   C66       1.0  0.21657  0.42343999999999987  0.46051  1.0000
  C   C67       1.0  0.21358  0.38958  0.53921  1.0000
  C   C68       1.0  0.11663  0.37658999999999987  0.54827  1.0000
  C   C69       1.0  0.02265  0.39642  0.47522  1.0000
  C   C70       1.0  0.025830000000000047  0.4316299999999999  0.3965300000000001  1.0000
  C   C71       1.0  0.11486000000000011  0.34624  0.6339600000000002  1.0000
  C   C72       1.0  0.15774  0.40097999999999995  0.99377  1.0000
  C   C73       1.0  0.19383  0.3419699999999999  0.93305  1.0000
  C   C74       1.0  0.16631000000000004  0.35697000000000007  0.83983  1.0000
  C   C75       1.0  0.21165000000000006  0.30603  0.78727  1.0000
  C   C76       1.0  0.2814800000000001  0.23952  0.8292600000000002  1.0000
  C   C77       1.0  0.3046  0.22238  0.92118  1.0000
  C   C78       1.0  0.2622000000000001  0.27479999999999993  0.9736300000000002  1.0000
  C   C79       1.0  0.3789500000000001  0.15057  0.9627000000000002  1.0000
  C   C80       1.0  0.33815  0.6774699999999998  0.18768  1.0000
  C   C81       1.0  0.44225  0.7045  0.20825  1.0000
  C   C82       1.0  0.5203  0.64226  0.23729  1.0000
  C   C83       1.0  0.49116  0.55602  0.24541000000000004  1.0000
  C   C84       1.0  0.38527000000000006  0.53475  0.22385  1.0000
  N   N1        1.0  0.03131000000000006  0.8346799999999999  0.67655  1.0000
  N   N2        1.0  0.3585  0.046929999999999986  0.20784  1.0000
  N   N3        1.0  0.7993299999999999  0.67656  0.30155  1.0000
  N   N4        1.0  0.69051  0.40589  0.8047  1.0000
  N   N5        1.0  0.96854  0.16498  0.32347  1.0000
  N   N6        1.0  0.64119  0.9531199999999997  0.79207  1.0000
  N   N7        1.0  0.20078  0.3234399999999999  0.69848  1.0000
  N   N8        1.0  0.30907  0.5940899999999998  0.19472  1.0000
  O   O1        1.0  0.54828  0.9236499999999997  0.26951  1.0000
  O   O2        1.0  0.67075  0.021999999999999992  0.27246  1.0000
  O   O3        1.0  0.3545400000000001  0.89786  0.06098  1.0000
  O   O4        1.0  0.38519999999999993  0.93343  0.93706  1.0000
  O   O5        1.0  0.985  0.6109  0.88705  1.0000
  O   O6        1.0  0.11211  0.64726  0.029150000000000002  1.0000
  O   O7        1.0  0.94129  0.4595399999999998  0.73676  1.0000
  O   O8        1.0  0.7971599999999999  0.53538  0.71838  1.0000
  O   O9        1.0  0.92403  0.5526799999999997  0.04339  1.0000
  O   O10       1.0  0.78923  0.59368  0.91965  1.0000
  O   O11       1.0  0.57771  0.8837099999999998  0.08943  1.0000
  O   O12       1.0  0.60508  0.8698699999999998  0.95625  1.0000
  O   O13       1.0  0.45024000000000014  0.08094  0.7321700000000002  1.0000
  O   O14       1.0  0.33077000000000006  0.9786599999999998  0.7274700000000002  1.0000
  O   O15       1.0  0.64416  0.10264999999999999  0.9383600000000002  1.0000
  O   O16       1.0  0.61614  0.06199  0.06153000000000001  1.0000
  O   O17       1.0  0.01721  0.38729999999999987  0.11278  1.0000
  O   O18       1.0  0.88634  0.35338999999999987  0.9720600000000003  1.0000
  O   O19       1.0  0.05844  0.5402  0.26313  1.0000
  O   O20       1.0  0.20293  0.46472999999999987  0.28168  1.0000
  O   O21       1.0  0.07573000000000009  0.44651  0.9570300000000003  1.0000
  O   O22       1.0  0.21209  0.40657999999999994  0.08036000000000001  1.0000
  O   O23       1.0  0.4229100000000001  0.11589999999999998  0.9120400000000001  1.0000
  O   O24       1.0  0.39348  0.12983  0.04404000000000001  1.0000
