data_image0
_chemical_formula_structural       Li8Zn8H24C72O48
_chemical_formula_sum              "Li8 Zn8 H24 C72 O48"
_cell_length_a       10.96676
_cell_length_b       16.78217
_cell_length_c       16.78217
_cell_angle_alpha    89.97997
_cell_angle_beta     90.01593
_cell_angle_gamma    89.98407

_space_group_name_H-M_alt    "P 1"
_space_group_IT_number       1

loop_
  _space_group_symop_operation_xyz
  'x, y, z'

loop_
  _atom_site_type_symbol
  _atom_site_label
  _atom_site_symmetry_multiplicity
  _atom_site_fract_x
  _atom_site_fract_y
  _atom_site_fract_z
  _atom_site_occupancy
  Li  Li1       1.0  0.07606000000000002  0.75754  0.43125  1.0000
  Li  Li2       1.0  0.5749200000000001  0.24257999999999996  0.56819  1.0000
  Li  Li3       1.0  0.82447  0.06780999999999998  0.25684  1.0000
  Li  Li4       1.0  0.32563  0.93146  0.74147  1.0000
  Li  Li5       1.0  0.6743700000000001  0.74147  0.93146  1.0000
  Li  Li6       1.0  0.17553  0.25684  0.06781  1.0000
  Li  Li7       1.0  0.92394  0.43125  0.75754  1.0000
  Li  Li8       1.0  0.42508  0.56819  0.24258  1.0000
  Zn  Zn1       1.0  0.15023  0.84693  0.58585  1.0000
  Zn  Zn2       1.0  0.65178  0.15292  0.41426  1.0000
  Zn  Zn3       1.0  0.9008500000000002  0.91421  0.34704  1.0000
  Zn  Zn4       1.0  0.40299  0.08648  0.65307  1.0000
  Zn  Zn5       1.0  0.5970100000000002  0.6530699999999998  0.08648  1.0000
  Zn  Zn6       1.0  0.09915  0.34705  0.91421  1.0000
  Zn  Zn7       1.0  0.8497700000000002  0.5858599999999999  0.84693  1.0000
  Zn  Zn8       1.0  0.34822000000000003  0.41427  0.15292  1.0000
  H   H1        1.0  0.9146600000000003  0.74404  0.63294  1.0000
  H   H2        1.0  0.62203  0.83314  0.77904  1.0000
  H   H3        1.0  0.71196  0.95263  0.56027  1.0000
  H   H4        1.0  0.41512  0.25512  0.36687  1.0000
  H   H5        1.0  0.12128000000000001  0.16729  0.22084  1.0000
  H   H6        1.0  0.21053000000000005  0.04739  0.4395  1.0000
  H   H7        1.0  0.66562  0.86664  0.24576000000000003  1.0000
  H   H8        1.0  0.37148  0.72101  0.33355  1.0000
  H   H9        1.0  0.45936  0.94026  0.45246  1.0000
  H   H10       1.0  0.16513000000000005  0.13290999999999994  0.75549  1.0000
  H   H11       1.0  0.87123  0.27869  0.66736  1.0000
  H   H12       1.0  0.9616100000000001  0.06052  0.54717  1.0000
  H   H13       1.0  0.8348800000000002  0.75549  0.13291  1.0000
  H   H14       1.0  0.12877  0.6673599999999997  0.27869  1.0000
  H   H15       1.0  0.03839  0.54717  0.06051999999999999  1.0000
  H   H16       1.0  0.33438000000000007  0.24575999999999998  0.86664  1.0000
  H   H17       1.0  0.6285200000000001  0.33355  0.72101  1.0000
  H   H18       1.0  0.5406400000000001  0.45245999999999986  0.94026  1.0000
  H   H19       1.0  0.08535000000000001  0.63294  0.74404  1.0000
  H   H20       1.0  0.3779700000000001  0.77904  0.83314  1.0000
  H   H21       1.0  0.28804  0.5602799999999998  0.95263  1.0000
  H   H22       1.0  0.58488  0.36687  0.25512  1.0000
  H   H23       1.0  0.8787200000000002  0.22083999999999995  0.16729  1.0000
  H   H24       1.0  0.7894700000000001  0.4394999999999999  0.04739  1.0000
  C   C1        1.0  0.8923200000000002  0.85302  0.51356  1.0000
  C   C2        1.0  0.7893800000000002  0.71427  0.76878  1.0000
  C   C3        1.0  0.55634  0.9575  0.68807  1.0000
  C   C4        1.0  0.8216000000000002  0.84944  0.58911  1.0000
  C   C5        1.0  0.8432200000000002  0.78774  0.64348  1.0000
  C   C6        1.0  0.77091  0.78133  0.7119  1.0000
  C   C7        1.0  0.6792800000000001  0.8377199999999998  0.72632  1.0000
  C   C8        1.0  0.65837  0.90004  0.6724499999999999  1.0000
  C   C9        1.0  0.72901  0.90535  0.60322  1.0000
  C   C10       1.0  0.3924600000000001  0.14674  0.48618  1.0000
  C   C11       1.0  0.28940000000000005  0.28578999999999993  0.2308  1.0000
  C   C12       1.0  0.05519000000000001  0.042779999999999985  0.31204  1.0000
  C   C13       1.0  0.32123000000000007  0.1503  0.41073  1.0000
  C   C14       1.0  0.34306000000000003  0.21188999999999997  0.35623  1.0000
  C   C15       1.0  0.27072  0.21863  0.28777  1.0000
  C   C16       1.0  0.17867  0.16245  0.27348  1.0000
  C   C17       1.0  0.15743  0.10022  0.32752  1.0000
  C   C18       1.0  0.22814  0.09471999999999997  0.3967  1.0000
  C   C19       1.0  0.64205  0.98648  0.35343  1.0000
  C   C20       1.0  0.54035  0.73087  0.21537  1.0000
  C   C21       1.0  0.30519  0.81215  0.45743  1.0000
  C   C22       1.0  0.57102  0.91104  0.35007  1.0000
  C   C23       1.0  0.5934200000000001  0.8562299999999998  0.28892  1.0000
  C   C24       1.0  0.52122  0.78775  0.28236  1.0000
  C   C25       1.0  0.4288600000000001  0.7736399999999998  0.33827  1.0000
  C   C26       1.0  0.4073600000000001  0.8279  0.4002  1.0000
  C   C27       1.0  0.47763000000000005  0.89722  0.40547  1.0000
  C   C28       1.0  0.1435  0.01408  0.6466  1.0000
  C   C29       1.0  0.03812000000000001  0.26851  0.78607  1.0000
  C   C30       1.0  0.8057000000000001  0.18779  0.54269  1.0000
  C   C31       1.0  0.07205  0.08936  0.65021  1.0000
  C   C32       1.0  0.09328  0.14355999999999994  0.7121  1.0000
  C   C33       1.0  0.02037  0.21167  0.71888  1.0000
  C   C34       1.0  0.9286300000000002  0.22607999999999995  0.66252  1.0000
  C   C35       1.0  0.9079200000000002  0.17230999999999994  0.60009  1.0000
  C   C36       1.0  0.97898  0.10329  0.59455  1.0000
  C   C37       1.0  0.8565000000000002  0.6466  0.01408  1.0000
  C   C38       1.0  0.9618800000000002  0.7860699999999998  0.26851  1.0000
  C   C39       1.0  0.19430000000000003  0.5426899999999998  0.18779  1.0000
  C   C40       1.0  0.92795  0.65021  0.08936  1.0000
  C   C41       1.0  0.9067200000000002  0.7121  0.14355999999999997  1.0000
  C   C42       1.0  0.97963  0.7188799999999997  0.21167  1.0000
  C   C43       1.0  0.07137  0.6625199999999998  0.22608  1.0000
  C   C44       1.0  0.09209000000000003  0.6000899999999998  0.17231  1.0000
  C   C45       1.0  0.02103  0.59455  0.10329  1.0000
  C   C46       1.0  0.35795  0.35343  0.98648  1.0000
  C   C47       1.0  0.45966  0.21537999999999993  0.73087  1.0000
  C   C48       1.0  0.69482  0.45744  0.81214  1.0000
  C   C49       1.0  0.4289800000000001  0.35007  0.91104  1.0000
  C   C50       1.0  0.40658000000000005  0.28892999999999996  0.85623  1.0000
  C   C51       1.0  0.47878000000000004  0.28237  0.78775  1.0000
  C   C52       1.0  0.57114  0.3382699999999999  0.77364  1.0000
  C   C53       1.0  0.59264  0.4002099999999999  0.8279  1.0000
  C   C54       1.0  0.52237  0.40548  0.89722  1.0000
  C   C55       1.0  0.10768000000000003  0.51357  0.85302  1.0000
  C   C56       1.0  0.21062000000000006  0.76878  0.71427  1.0000
  C   C57       1.0  0.44366  0.68807  0.9575  1.0000
  C   C58       1.0  0.1784  0.5891099999999998  0.84944  1.0000
  C   C59       1.0  0.15679  0.6434799999999998  0.78774  1.0000
  C   C60       1.0  0.22909000000000004  0.7119  0.78133  1.0000
  C   C61       1.0  0.32073  0.72633  0.83772  1.0000
  C   C62       1.0  0.34163000000000004  0.67246  0.90004  1.0000
  C   C63       1.0  0.27099  0.60322  0.90535  1.0000
  C   C64       1.0  0.60754  0.48618  0.14674  1.0000
  C   C65       1.0  0.7106000000000001  0.2308  0.28578  1.0000
  C   C66       1.0  0.9448100000000001  0.31204  0.04278  1.0000
  C   C67       1.0  0.67877  0.4107299999999999  0.1503  1.0000
  C   C68       1.0  0.65694  0.3562299999999999  0.21189  1.0000
  C   C69       1.0  0.72928  0.28777  0.21862999999999994  1.0000
  C   C70       1.0  0.8213300000000001  0.27348  0.16245  1.0000
  C   C71       1.0  0.8425700000000002  0.32752  0.10022  1.0000
  C   C72       1.0  0.7718600000000002  0.3966999999999999  0.09472  1.0000
  O   O1        1.0  0.9997300000000001  0.8216599999999997  0.51133  1.0000
  O   O2        1.0  0.8387600000000002  0.88478  0.4543  1.0000
  O   O3        1.0  0.8609600000000002  0.65645  0.75007  1.0000
  O   O4        1.0  0.7334800000000001  0.7145799999999998  0.83489  1.0000
  O   O5        1.0  0.4916100000000001  0.9485699999999998  0.74974  1.0000
  O   O6        1.0  0.5394  0.012429999999999997  0.6351999999999999  1.0000
  O   O7        1.0  0.49968  0.17835  0.48833  1.0000
  O   O8        1.0  0.3396600000000001  0.11482  0.54561  1.0000
  O   O9        1.0  0.35834  0.34464  0.25041  1.0000
  O   O10       1.0  0.23640000000000003  0.2847699999999999  0.1636  1.0000
  O   O11       1.0  0.99133  0.05155  0.24997  1.0000
  O   O12       1.0  0.03717000000000001  0.9882  0.36506  1.0000
  O   O13       1.0  0.7495000000000003  0.9884499999999999  0.32204  1.0000
  O   O14       1.0  0.5887  0.04594  0.38495  1.0000
  O   O15       1.0  0.61224  0.74984  0.15791  1.0000
  O   O16       1.0  0.48469000000000007  0.6646  0.21497  1.0000
  O   O17       1.0  0.24216000000000004  0.7497599999999998  0.44865  1.0000
  O   O18       1.0  0.28617000000000004  0.86521  0.5118  1.0000
  O   O19       1.0  0.25063  0.011839999999999996  0.67825  1.0000
  O   O20       1.0  0.09053000000000001  0.9548099999999999  0.61462  1.0000
  O   O21       1.0  0.10948000000000001  0.25000999999999995  0.84415  1.0000
  O   O22       1.0  0.98181  0.33445  0.78548  1.0000
  O   O23       1.0  0.7411000000000001  0.24956  0.55149  1.0000
  O   O24       1.0  0.78833  0.13484  0.48796  1.0000
  O   O25       1.0  0.7493700000000001  0.67825  0.01183  1.0000
  O   O26       1.0  0.90947  0.61462  0.95481  1.0000
  O   O27       1.0  0.8905200000000002  0.84415  0.25  1.0000
  O   O28       1.0  0.01819  0.78549  0.33445  1.0000
  O   O29       1.0  0.2589  0.55149  0.24956  1.0000
  O   O30       1.0  0.21167  0.48795999999999995  0.13484  1.0000
  O   O31       1.0  0.2505  0.3220399999999999  0.9884500000000002  1.0000
  O   O32       1.0  0.41130000000000005  0.38495  0.04594  1.0000
  O   O33       1.0  0.38776000000000005  0.15790999999999994  0.74984  1.0000
  O   O34       1.0  0.51531  0.21496999999999994  0.6646  1.0000
  O   O35       1.0  0.75785  0.4486499999999999  0.74975  1.0000
  O   O36       1.0  0.71383  0.5117999999999998  0.8652  1.0000
  O   O37       1.0  0.00027000000000000006  0.5113299999999998  0.82166  1.0000
  O   O38       1.0  0.16125000000000006  0.4543  0.88478  1.0000
  O   O39       1.0  0.13904000000000002  0.75007  0.65644  1.0000
  O   O40       1.0  0.26653  0.83489  0.71458  1.0000
  O   O41       1.0  0.50839  0.74974  0.94857  1.0000
  O   O42       1.0  0.4606100000000001  0.6351999999999999  0.01243  1.0000
  O   O43       1.0  0.50033  0.48832999999999993  0.17835  1.0000
  O   O44       1.0  0.66034  0.54561  0.11482  1.0000
  O   O45       1.0  0.64166  0.2504099999999999  0.34464  1.0000
  O   O46       1.0  0.7636  0.1636  0.28477  1.0000
  O   O47       1.0  0.008670000000000002  0.24997  0.05155  1.0000
  O   O48       1.0  0.9628400000000001  0.3650599999999999  0.9882  1.0000
