data_image0
_chemical_formula_structural       Eu8H48C96Cl4O48
_chemical_formula_sum              "Eu8 H48 C96 Cl4 O48"
_cell_length_a       12.28258
_cell_length_b       15.15337
_cell_length_c       19.899449999999998
_cell_angle_alpha    90.27591000000001
_cell_angle_beta     89.93846
_cell_angle_gamma    100.26961

_space_group_name_H-M_alt    "P 1"
_space_group_IT_number       1

loop_
  _space_group_symop_operation_xyz
  'x, y, z'

loop_
  _atom_site_type_symbol
  _atom_site_label
  _atom_site_symmetry_multiplicity
  _atom_site_fract_x
  _atom_site_fract_y
  _atom_site_fract_z
  _atom_site_occupancy
  Eu  Eu1       1.0  0.18002000000000004  0.4440100000000001  0.72964  1.0000
  Eu  Eu2       1.0  0.91876  0.23542  0.76918  1.0000
  Eu  Eu3       1.0  0.31917  0.05467  0.23077  1.0000
  Eu  Eu4       1.0  0.58194  0.26462  0.27188  1.0000
  Eu  Eu5       1.0  0.81755  0.55558  0.26871  1.0000
  Eu  Eu6       1.0  0.08179000000000006  0.7651400000000003  0.22745  1.0000
  Eu  Eu7       1.0  0.6807999999999998  0.9454100000000002  0.76913  1.0000
  Eu  Eu8       1.0  0.42091  0.73723  0.7293  1.0000
  H   H1        1.0  0.7468200000000002  0.24719000000000005  0.44543999999999995  1.0000
  H   H2        1.0  0.82537  0.22849  0.56065  1.0000
  H   H3        1.0  0.11503000000000001  0.4213600000000001  0.5107  1.0000
  H   H4        1.0  0.035839999999999976  0.44087  0.39652  1.0000
  H   H5        1.0  0.62589  0.6060300000000002  0.67784  1.0000
  H   H6        1.0  0.69063  0.4583100000000001  0.67365  1.0000
  H   H7        1.0  0.98275  0.5729  0.78521  1.0000
  H   H8        1.0  0.91833  0.7204400000000002  0.78868  1.0000
  H   H9        1.0  0.56307  0.6493  0.5538  1.0000
  H   H10       1.0  0.35746  0.38834  0.55719  1.0000
  H   H11       1.0  0.12613000000000002  0.5693900000000002  0.90929  1.0000
  H   H12       1.0  0.91045  0.33977  0.9906  1.0000
  H   H13       1.0  0.7529299999999999  0.25267  0.94741  1.0000
  H   H14       1.0  0.6741799999999999  0.27034000000000014  0.06287  1.0000
  H   H15       1.0  0.38438999999999995  0.078  0.01074  1.0000
  H   H16       1.0  0.46436  0.058990000000000015  0.8965000000000001  1.0000
  H   H17       1.0  0.8767  0.8960500000000002  0.17882  1.0000
  H   H18       1.0  0.8087099999999999  0.042550000000000004  0.17246  1.0000
  H   H19       1.0  0.51872  0.92886  0.28563  1.0000
  H   H20       1.0  0.58503  0.78192  0.29001  1.0000
  H   H21       1.0  0.93645  0.8513800000000002  0.05211  1.0000
  H   H22       1.0  0.14555  0.11071  0.05744  1.0000
  H   H23       1.0  0.37202  0.93161  0.40904000000000007  1.0000
  H   H24       1.0  0.58896  0.16093  0.49095999999999995  1.0000
  H   H25       1.0  0.25373000000000007  0.7519800000000002  0.55248  1.0000
  H   H26       1.0  0.17315999999999998  0.77015  0.43763  1.0000
  H   H27       1.0  0.88391  0.57772  0.48993999999999993  1.0000
  H   H28       1.0  0.96599  0.55854  0.60362  1.0000
  H   H29       1.0  0.37631  0.39779  0.32133  1.0000
  H   H30       1.0  0.30733  0.54396  0.32694  1.0000
  H   H31       1.0  0.01717  0.42651  0.21477000000000002  1.0000
  H   H32       1.0  0.08451000000000002  0.28002000000000005  0.21101999999999999  1.0000
  H   H33       1.0  0.43788  0.35105  0.44618  1.0000
  H   H34       1.0  0.644  0.61167  0.44299  1.0000
  H   H35       1.0  0.8716399999999997  0.43131  0.09061  1.0000
  H   H36       1.0  0.08817  0.66067  0.00963  1.0000
  H   H37       1.0  0.24857000000000007  0.7466700000000002  0.05247  1.0000
  H   H38       1.0  0.32789  0.72919  0.93705  1.0000
  H   H39       1.0  0.61654  0.9227200000000002  0.98932  1.0000
  H   H40       1.0  0.53642  0.9409200000000002  0.10372  1.0000
  H   H41       1.0  0.1252  0.10394  0.8221299999999999  1.0000
  H   H42       1.0  0.19107000000000007  0.9567500000000002  0.8270499999999998  1.0000
  H   H43       1.0  0.48162999999999995  0.07006000000000003  0.71413  1.0000
  H   H44       1.0  0.41635  0.21702000000000005  0.71014  1.0000
  H   H45       1.0  0.06442  0.14952  0.94751  1.0000
  H   H46       1.0  0.85607  0.8898900000000002  0.94196  1.0000
  H   H47       1.0  0.62751  0.06985000000000002  0.59041  1.0000
  H   H48       1.0  0.41085  0.8403400000000002  0.50837  1.0000
  C   C1        1.0  0.88692  0.3450800000000001  0.41496  1.0000
  C   C2        1.0  0.82689  0.28481  0.46066  1.0000
  C   C3        1.0  0.87047  0.27428  0.52407  1.0000
  C   C4        1.0  0.9746300000000001  0.3233400000000001  0.5417  1.0000
  C   C5        1.0  0.03482  0.38345  0.4959  1.0000
  C   C6        1.0  0.99076  0.3945900000000001  0.43268999999999996  1.0000
  C   C7        1.0  0.8369499999999999  0.35852  0.3476  1.0000
  C   C8        1.0  0.02072000000000002  0.31224000000000013  0.60948  1.0000
  C   C9        1.0  0.76803  0.67125  0.73404  1.0000
  C   C10       1.0  0.70396  0.5980100000000003  0.70069  1.0000
  C   C11       1.0  0.7399299999999999  0.5161  0.69837  1.0000
  C   C12       1.0  0.8402799999999999  0.5066  0.72927  1.0000
  C   C13       1.0  0.90524  0.58045  0.76154  1.0000
  C   C14       1.0  0.8695200000000001  0.6626100000000001  0.76367  1.0000
  C   C15       1.0  0.72686  0.7576500000000003  0.73953  1.0000
  C   C16       1.0  0.8715299999999999  0.41614  0.73088  1.0000
  C   C17       1.0  0.45634000000000013  0.52069  0.56153  1.0000
  C   C18       1.0  0.537  0.58426  0.52989  1.0000
  C   C19       1.0  0.42003  0.4364300000000001  0.5316  1.0000
  C   C20       1.0  0.40794  0.5424700000000001  0.62696  1.0000
  C   C21       1.0  0.019430000000000017  0.4496400000000001  0.9441099999999999  1.0000
  C   C22       1.0  0.07062  0.54007  0.94914  1.0000
  C   C23       1.0  0.9482799999999999  0.41006  0.99518  1.0000
  C   C24       1.0  0.03883000000000002  0.3963900000000001  0.88352  1.0000
  C   C25       1.0  0.61314  0.15478000000000006  0.9158799999999999  1.0000
  C   C26       1.0  0.6729199999999999  0.21472  0.9623299999999999  1.0000
  C   C27       1.0  0.62901  0.2248  0.02588  1.0000
  C   C28       1.0  0.52457  0.17569000000000007  0.04288  1.0000
  C   C29       1.0  0.46479  0.11582  0.9964199999999999  1.0000
  C   C30       1.0  0.50932  0.10504  0.9331500000000001  1.0000
  C   C31       1.0  0.66304  0.14213000000000006  0.84813  1.0000
  C   C32       1.0  0.4772799999999999  0.18672000000000005  0.11032  1.0000
  C   C33       1.0  0.73515  0.83134  0.23523  1.0000
  C   C34       1.0  0.7983199999999999  0.9040100000000001  0.20137000000000002  1.0000
  C   C35       1.0  0.7608  0.9851000000000002  0.19801  1.0000
  C   C36       1.0  0.66024  0.9940600000000003  0.22894  1.0000
  C   C37       1.0  0.59633  0.9209600000000001  0.26209  1.0000
  C   C38       1.0  0.63318  0.83945  0.26473  1.0000
  C   C39       1.0  0.77752  0.74552  0.24104  1.0000
  C   C40       1.0  0.62588  0.08309  0.22928  1.0000
  C   C41       1.0  0.04529999999999999  0.97902  0.06097  1.0000
  C   C42       1.0  0.96361  0.91633  0.02878  1.0000
  C   C43       1.0  0.08229  0.06314  0.03164  1.0000
  C   C44       1.0  0.09267000000000004  0.9560500000000002  0.1265  1.0000
  C   C45       1.0  0.47886999999999996  0.05141  0.44425999999999993  1.0000
  C   C46       1.0  0.42773  0.961  0.4489  1.0000
  C   C47       1.0  0.55062  0.0908  0.49529  1.0000
  C   C48       1.0  0.45934  0.10429  0.38341  1.0000
  C   C49       1.0  0.1143  0.65418  0.58383  1.0000
  C   C50       1.0  0.17343000000000003  0.7142700000000002  0.53769  1.0000
  C   C51       1.0  0.12866000000000002  0.7245700000000003  0.47459999999999997  1.0000
  C   C52       1.0  0.02399000000000002  0.6753800000000001  0.45788  1.0000
  C   C53       1.0  0.96454  0.6155700000000002  0.50411  1.0000
  C   C54       1.0  0.010049999999999991  0.60463  0.56698  1.0000
  C   C55       1.0  0.16543  0.64189  0.65108  1.0000
  C   C56       1.0  0.97685  0.68677  0.39075  1.0000
  C   C57       1.0  0.2348  0.33111  0.26545  1.0000
  C   C58       1.0  0.29762  0.40489  0.29885  1.0000
  C   C59       1.0  0.25933000000000006  0.4858200000000001  0.30185  1.0000
  C   C60       1.0  0.15843  0.49369  0.27091  1.0000
  C   C61       1.0  0.09496999999999998  0.41947  0.23831  1.0000
  C   C62       1.0  0.13255000000000003  0.3382000000000001  0.236  1.0000
  C   C63       1.0  0.2775899999999999  0.24519  0.2601  1.0000
  C   C64       1.0  0.12363000000000006  0.5826700000000002  0.26941  1.0000
  C   C65       1.0  0.54505  0.4794600000000001  0.43865  1.0000
  C   C66       1.0  0.46427  0.41593000000000013  0.47025  1.0000
  C   C67       1.0  0.58143  0.5636600000000003  0.46862  1.0000
  C   C68       1.0  0.5932400000000001  0.4576900000000002  0.37299  1.0000
  C   C69       1.0  0.9785799999999999  0.5509  0.0558  1.0000
  C   C70       1.0  0.9273099999999999  0.4605  0.05077  1.0000
  C   C71       1.0  0.05000999999999998  0.59044  0.00487  1.0000
  C   C72       1.0  0.95861  0.60396  0.11677999999999998  1.0000
  C   C73       1.0  0.38823  0.84474  0.08399  1.0000
  C   C74       1.0  0.32856  0.7847500000000002  0.03762  1.0000
  C   C75       1.0  0.37258  0.775  0.97406  1.0000
  C   C76       1.0  0.47662  0.8247700000000002  0.95702  1.0000
  C   C77       1.0  0.53631  0.88455  0.00357  1.0000
  C   C78       1.0  0.49188000000000004  0.8948600000000002  0.06691  1.0000
  C   C79       1.0  0.33838  0.8577300000000002  0.15158  1.0000
  C   C80       1.0  0.5232  0.8147  0.8890899999999999  1.0000
  C   C81       1.0  0.26645  0.16835000000000006  0.7653  1.0000
  C   C82       1.0  0.20319  0.09573  0.79922  1.0000
  C   C83       1.0  0.23972999999999997  0.014170000000000004  0.80191  1.0000
  C   C84       1.0  0.3397  0.00453  0.77067  1.0000
  C   C85       1.0  0.40424999999999994  0.07783  0.73799  1.0000
  C   C86       1.0  0.36799  0.15969000000000005  0.73556  1.0000
  C   C87       1.0  0.22406  0.25404  0.75918  1.0000
  C   C88       1.0  0.37148  0.91447  0.76926  1.0000
  C   C89       1.0  0.9561199999999999  0.02172  0.93853  1.0000
  C   C90       1.0  0.03767000000000001  0.08444000000000002  0.97074  1.0000
  C   C91       1.0  0.91921  0.93753  0.9678  1.0000
  C   C92       1.0  0.90836  0.04470000000000001  0.87325  1.0000
  C   C93       1.0  0.52047  0.9500800000000003  0.55517  1.0000
  C   C94       1.0  0.57163  0.040490000000000005  0.55059  1.0000
  C   C95       1.0  0.44886  0.91059  0.50411  1.0000
  C   C96       1.0  0.54011  0.89663  0.61523  1.0000
  Cl  Cl1       1.0  0.29143  0.59435  0.80654  1.0000
  Cl  Cl2       1.0  0.20422  0.90443  0.30583  1.0000
  Cl  Cl3       1.0  0.70544  0.40366000000000013  0.19396  1.0000
  Cl  Cl4       1.0  0.79403  0.09250000000000001  0.69159  1.0000
  O   O1        1.0  0.8791799999999999  0.4304  0.31685  1.0000
  O   O2        1.0  0.75784  0.2996500000000001  0.32703  1.0000
  O   O3        1.0  0.96898  0.25382  0.64959  1.0000
  O   O4        1.0  0.11184000000000002  0.3614400000000001  0.62685  1.0000
  O   O5        1.0  0.79532  0.82996  0.75084  1.0000
  O   O6        1.0  0.62355  0.7589600000000002  0.7339  1.0000
  O   O7        1.0  0.79656  0.34712  0.72727  1.0000
  O   O8        1.0  0.97331  0.40679  0.73829  1.0000
  O   O9        1.0  0.32735  0.4871000000000001  0.65047  1.0000
  O   O10       1.0  0.4496400000000001  0.6154500000000003  0.65692  1.0000
  O   O11       1.0  0.9685200000000002  0.3260500000000001  0.86947  1.0000
  O   O12       1.0  0.12435  0.42365  0.8479100000000002  1.0000
  O   O13       1.0  0.6187  0.07184  0.8152999999999999  1.0000
  O   O14       1.0  0.74391  0.19963000000000006  0.82873  1.0000
  O   O15       1.0  0.52795  0.24555  0.1511  1.0000
  O   O16       1.0  0.3857499999999999  0.13880000000000006  0.12797  1.0000
  O   O17       1.0  0.7087399999999999  0.6736  0.25234  1.0000
  O   O18       1.0  0.88101  0.7451200000000002  0.23552000000000003  1.0000
  O   O19       1.0  0.69877  0.15310000000000007  0.222  1.0000
  O   O20       1.0  0.52419  0.08991  0.23935  1.0000
  O   O21       1.0  0.17434  0.00947  0.15112  1.0000
  O   O22       1.0  0.04753999999999997  0.88343  0.15515  1.0000
  O   O23       1.0  0.53049  0.17464000000000002  0.37056  1.0000
  O   O24       1.0  0.3749799999999999  0.07582  0.34755  1.0000
  O   O25       1.0  0.12153000000000004  0.5714600000000002  0.6834  1.0000
  O   O26       1.0  0.24627  0.69993  0.6699  1.0000
  O   O27       1.0  0.03068  0.74255  0.34942  1.0000
  O   O28       1.0  0.88269  0.6426  0.37349  1.0000
  O   O29       1.0  0.20942000000000002  0.17279000000000005  0.24903  1.0000
  O   O30       1.0  0.38112  0.24532000000000004  0.26597  1.0000
  O   O31       1.0  0.19673000000000007  0.6527800000000002  0.27613  1.0000
  O   O32       1.0  0.02210000000000001  0.58943  0.25905  1.0000
  O   O33       1.0  0.67395  0.51299  0.34962  1.0000
  O   O34       1.0  0.55017  0.38482  0.34337  1.0000
  O   O35       1.0  0.03108000000000005  0.6735300000000002  0.13044  1.0000
  O   O36       1.0  0.87282  0.57639  0.15145  1.0000
  O   O37       1.0  0.38138000000000005  0.9290800000000002  0.18315  1.0000
  O   O38       1.0  0.2587400000000001  0.7992100000000002  0.17151  1.0000
  O   O39       1.0  0.47265  0.7553300000000002  0.8488  1.0000
  O   O40       1.0  0.6134900000000001  0.8652100000000003  0.8719399999999999  1.0000
  O   O41       1.0  0.29184  0.32637  0.74756  1.0000
  O   O42       1.0  0.12053999999999997  0.25469  0.7645  1.0000
  O   O43       1.0  0.29769  0.8447500000000001  0.77434  1.0000
  O   O44       1.0  0.47354  0.9065100000000003  0.76031  1.0000
  O   O45       1.0  0.82658  0.99105  0.84879  1.0000
  O   O46       1.0  0.95207  0.1174  0.84426  1.0000
  O   O47       1.0  0.47077  0.8255800000000002  0.62837  1.0000
  O   O48       1.0  0.62475  0.92418  0.65158  1.0000
