data_image0
_chemical_formula_structural       Co4H68C100N12O16
_chemical_formula_sum              "Co4 H68 C100 N12 O16"
_cell_length_a       9.85452
_cell_length_b       11.390859999999998
_cell_length_c       26.14676
_cell_angle_alpha    81.95914
_cell_angle_beta     79.05461
_cell_angle_gamma    64.33331

_space_group_name_H-M_alt    "P 1"
_space_group_IT_number       1

loop_
  _space_group_symop_operation_xyz
  'x, y, z'

loop_
  _atom_site_type_symbol
  _atom_site_label
  _atom_site_symmetry_multiplicity
  _atom_site_fract_x
  _atom_site_fract_y
  _atom_site_fract_z
  _atom_site_occupancy
  Co  Co1       1.0  0.5825400000000001  0.8983199999999998  0.8255699999999998  1.0000
  Co  Co2       1.0  0.6937900000000001  0.3987299999999999  0.32489  1.0000
  Co  Co3       1.0  0.3062199999999999  0.6012600000000001  0.6751199999999999  1.0000
  Co  Co4       1.0  0.41747  0.10166999999999998  0.17443999999999998  1.0000
  H   H1        1.0  0.12189000000000015  0.26039  0.8261799999999998  1.0000
  H   H2        1.0  0.09500000000000011  0.89326  0.83259  1.0000
  H   H3        1.0  0.6945799999999999  0.24757  0.8168699999999998  1.0000
  H   H4        1.0  0.8961100000000004  0.6890100000000001  0.7816299999999998  1.0000
  H   H5        1.0  0.02849000000000006  0.44827999999999996  0.7841399999999998  1.0000
  H   H6        1.0  0.5930900000000001  0.43818  0.84473  1.0000
  H   H7        1.0  0.47997000000000006  0.6792499999999999  0.83946  1.0000
  H   H8        1.0  0.61543  0.03203000000000002  0.5564299999999999  1.0000
  H   H9        1.0  0.6447500000000005  0.77428  0.7173499999999998  1.0000
  H   H10       1.0  0.6536700000000001  0.8511199999999998  0.62421  1.0000
  H   H11       1.0  0.5105300000000002  0.24094  0.6723399999999998  1.0000
  H   H12       1.0  0.5165800000000002  0.14423  0.76373  1.0000
  H   H13       1.0  0.5861700000000001  0.28764  0.59464  1.0000
  H   H14       1.0  0.72541  0.47558  0.42912  1.0000
  H   H15       1.0  0.6857700000000001  0.41063999999999995  0.52411  1.0000
  H   H16       1.0  0.5343200000000001  0.13769  0.48223  1.0000
  H   H17       1.0  0.5780299999999999  0.21557  0.38979  1.0000
  H   H18       1.0  0.79121  0.76069  0.32616999999999996  1.0000
  H   H19       1.0  0.17895  0.39354000000000006  0.3324999999999999  1.0000
  H   H20       1.0  0.24082000000000012  0.7477199999999999  0.3169199999999999  1.0000
  H   H21       1.0  0.6333200000000003  0.18945999999999996  0.28160999999999997  1.0000
  H   H22       1.0  0.7387800000000001  0.9487499999999998  0.28423999999999994  1.0000
  H   H23       1.0  0.12368999999999993  0.93802  0.34478999999999993  1.0000
  H   H24       1.0  0.0012600000000000217  0.17918999999999996  0.33938  1.0000
  H   H25       1.0  0.79614  0.5321  0.05627  1.0000
  H   H26       1.0  0.8638199999999999  0.27437  0.21707  1.0000
  H   H27       1.0  0.87112  0.35130999999999996  0.12388999999999999  1.0000
  H   H28       1.0  0.5762500000000003  0.74109  0.17217999999999994  1.0000
  H   H29       1.0  0.5753  0.6442399999999999  0.2636  1.0000
  H   H30       1.0  0.53141  0.78767  0.09476  1.0000
  H   H31       1.0  0.37016000000000004  0.9755499999999999  0.9293799999999999  1.0000
  H   H32       1.0  0.3793  0.9104499999999999  0.024379999999999992  1.0000
  H   H33       1.0  0.8459300000000002  0.63734  0.9823499999999997  1.0000
  H   H34       1.0  0.8172300000000002  0.71532  0.8898999999999998  1.0000
  H   H35       1.0  0.20880000000000004  0.23929999999999998  0.67383  1.0000
  H   H36       1.0  0.8210599999999998  0.60645  0.66751  1.0000
  H   H37       1.0  0.7591900000000003  0.25227  0.68308  1.0000
  H   H38       1.0  0.36669000000000007  0.8105299999999999  0.7183999999999999  1.0000
  H   H39       1.0  0.2612300000000002  0.051240000000000036  0.7157599999999997  1.0000
  H   H40       1.0  0.8763199999999999  0.061970000000000025  0.6552099999999998  1.0000
  H   H41       1.0  0.9987500000000001  0.8207999999999999  0.6606199999999998  1.0000
  H   H42       1.0  0.20387000000000016  0.46789  0.9437299999999997  1.0000
  H   H43       1.0  0.13619000000000017  0.7256199999999999  0.7829299999999999  1.0000
  H   H44       1.0  0.12888000000000002  0.6486800000000001  0.8761099999999998  1.0000
  H   H45       1.0  0.4237500000000001  0.2589  0.8278199999999999  1.0000
  H   H46       1.0  0.4247100000000002  0.35574999999999996  0.7364099999999998  1.0000
  H   H47       1.0  0.4686000000000001  0.21232  0.90524  1.0000
  H   H48       1.0  0.62984  0.02444  0.07063  1.0000
  H   H49       1.0  0.6207100000000001  0.08954000000000002  0.9756199999999998  1.0000
  H   H50       1.0  0.15406999999999996  0.36265  0.01765  1.0000
  H   H51       1.0  0.18277  0.28467  0.11011  1.0000
  H   H52       1.0  0.8781200000000001  0.7395999999999999  0.17382  1.0000
  H   H53       1.0  0.905  0.10672999999999999  0.16741  1.0000
  H   H54       1.0  0.30541999999999997  0.75242  0.18313  1.0000
  H   H55       1.0  0.10388999999999997  0.31098  0.21837  1.0000
  H   H56       1.0  0.9715200000000002  0.55171  0.21586  1.0000
  H   H57       1.0  0.40692000000000006  0.56181  0.15527  1.0000
  H   H58       1.0  0.52004  0.32073999999999997  0.16053999999999996  1.0000
  H   H59       1.0  0.3845799999999999  0.9679599999999999  0.44357  1.0000
  H   H60       1.0  0.35525000000000007  0.22570999999999997  0.28265999999999997  1.0000
  H   H61       1.0  0.34633000000000014  0.14887000000000003  0.3757899999999999  1.0000
  H   H62       1.0  0.48948000000000025  0.7590399999999998  0.32766  1.0000
  H   H63       1.0  0.48343000000000014  0.8557599999999999  0.23627  1.0000
  H   H64       1.0  0.4138300000000001  0.71235  0.40537  1.0000
  H   H65       1.0  0.2746000000000001  0.52441  0.57089  1.0000
  H   H66       1.0  0.31422999999999995  0.5893500000000002  0.4759  1.0000
  H   H67       1.0  0.46569  0.86229  0.51778  1.0000
  H   H68       1.0  0.42198  0.78442  0.6102099999999998  1.0000
  C   C1        1.0  0.8976400000000001  0.2745  0.8204999999999999  1.0000
  C   C2        1.0  0.05271  0.20798  0.8254  1.0000
  C   C3        1.0  0.12309000000000006  0.07150000000000005  0.8299799999999998  1.0000
  C   C4        1.0  0.03920000000000018  0.9992299999999998  0.82974  1.0000
  C   C5        1.0  0.8841700000000001  0.06367000000000006  0.8256399999999998  1.0000
  C   C6        1.0  0.8145900000000003  0.20034999999999997  0.82101  1.0000
  C   C7        1.0  0.8337600000000004  0.62933  0.7955999999999999  1.0000
  C   C8        1.0  0.90689  0.49389999999999995  0.79756  1.0000
  C   C9        1.0  0.8237600000000003  0.41874  0.8158499999999997  1.0000
  C   C10       1.0  0.6661800000000002  0.48836  0.8302299999999998  1.0000
  C   C11       1.0  0.6010899999999998  0.6237299999999999  0.82773  1.0000
  C   C12       1.0  0.59786  0.10127999999999995  0.58458  1.0000
  C   C13       1.0  0.6201199999999999  0.87626  0.7059699999999998  1.0000
  C   C14       1.0  0.62317  0.92079  0.65358  1.0000
  C   C15       1.0  0.58817  0.05356000000000001  0.6391599999999998  1.0000
  C   C16       1.0  0.54589  0.13624999999999995  0.68023  1.0000
  C   C17       1.0  0.5467999999999998  0.08389  0.73125  1.0000
  C   C18       1.0  0.59528  0.22012  0.56697  1.0000
  C   C19       1.0  0.28902  0.004459999999999989  0.83313  1.0000
  C   C20       1.0  0.6856800000000002  0.39956  0.44271  1.0000
  C   C21       1.0  0.66291  0.36299000000000003  0.49555999999999994  1.0000
  C   C22       1.0  0.61197  0.2637900000000001  0.5119799999999999  1.0000
  C   C23       1.0  0.5800700000000003  0.21079999999999996  0.47254  1.0000
  C   C24       1.0  0.60413  0.25354  0.42076  1.0000
  C   C25       1.0  0.7929699999999997  0.9873  0.82587  1.0000
  C   C26       1.0  0.00713000000000012  0.7746999999999999  0.32060999999999995  1.0000
  C   C27       1.0  0.91369  0.70826  0.32529  1.0000
  C   C28       1.0  0.97558  0.57178  0.32953  1.0000
  C   C29       1.0  0.13191999999999998  0.4994799999999999  0.32965  1.0000
  C   C30       1.0  0.2263900000000001  0.5638399999999999  0.32596  1.0000
  C   C31       1.0  0.16385  0.7005  0.3212199999999999  1.0000
  C   C32       1.0  0.7413500000000001  0.1296  0.2955499999999999  1.0000
  C   C33       1.0  0.80148  0.9941899999999999  0.2975999999999999  1.0000
  C   C34       1.0  0.94138  0.9189099999999999  0.3159199999999999  1.0000
  C   C35       1.0  0.015050000000000037  0.98837  0.3302399999999999  1.0000
  C   C36       1.0  0.94743  0.12374999999999997  0.32766  1.0000
  C   C37       1.0  0.7164000000000001  0.60131  0.08449999999999998  1.0000
  C   C38       1.0  0.7976100000000002  0.37627  0.20568999999999998  1.0000
  C   C39       1.0  0.8026199999999999  0.4208599999999999  0.15333  1.0000
  C   C40       1.0  0.71925  0.55363  0.13901  1.0000
  C   C41       1.0  0.63763  0.63639  0.18006999999999995  1.0000
  C   C42       1.0  0.6377100000000001  0.58395  0.23106  1.0000
  C   C43       1.0  0.6175600000000001  0.7201899999999999  0.06703999999999999  1.0000
  C   C44       1.0  0.87462  0.50417  0.33199  1.0000
  C   C45       1.0  0.4723200000000004  0.8996099999999999  0.9429699999999999  1.0000
  C   C46       1.0  0.47853  0.86294  0.9957799999999999  1.0000
  C   C47       1.0  0.61229  0.7637799999999999  0.012119999999999999  1.0000
  C   C48       1.0  0.73685  0.7105999999999999  0.97266  1.0000
  C   C49       1.0  0.72213  0.75341  0.92092  1.0000
  C   C50       1.0  0.3938  0.4878  0.3262399999999999  1.0000
  C   C51       1.0  0.9928800000000001  0.22529000000000002  0.6793999999999998  1.0000
  C   C52       1.0  0.08631000000000008  0.29172999999999993  0.6747199999999999  1.0000
  C   C53       1.0  0.024430000000000136  0.4282099999999999  0.6704699999999998  1.0000
  C   C54       1.0  0.86809  0.50051  0.67036  1.0000
  C   C55       1.0  0.77362  0.43615  0.67404  1.0000
  C   C56       1.0  0.8361499999999998  0.29949000000000003  0.6787799999999999  1.0000
  C   C57       1.0  0.25866000000000017  0.8703899999999999  0.70445  1.0000
  C   C58       1.0  0.19852999999999998  0.005799999999999984  0.70241  1.0000
  C   C59       1.0  0.05863000000000001  0.08107  0.68409  1.0000
  C   C60       1.0  0.98496  0.011619999999999998  0.66976  1.0000
  C   C61       1.0  0.052580000000000265  0.8762399999999999  0.6723399999999998  1.0000
  C   C62       1.0  0.28361000000000014  0.39866999999999997  0.9154999999999998  1.0000
  C   C63       1.0  0.20240000000000016  0.6237099999999999  0.79431  1.0000
  C   C64       1.0  0.19738999999999998  0.57913  0.8466699999999999  1.0000
  C   C65       1.0  0.2807600000000001  0.44636  0.8609899999999999  1.0000
  C   C66       1.0  0.36238000000000004  0.3635999999999999  0.81993  1.0000
  C   C67       1.0  0.36230000000000023  0.41603  0.76894  1.0000
  C   C68       1.0  0.38245  0.27979  0.93296  1.0000
  C   C69       1.0  0.12538000000000005  0.49581  0.6680099999999998  1.0000
  C   C70       1.0  0.52769  0.10037  0.057029999999999983  1.0000
  C   C71       1.0  0.52147  0.13704999999999998  0.00422  1.0000
  C   C72       1.0  0.38772000000000006  0.23621  0.98789  1.0000
  C   C73       1.0  0.26315999999999995  0.28939  0.02734  1.0000
  C   C74       1.0  0.27787000000000006  0.24657999999999997  0.07908999999999997  1.0000
  C   C75       1.0  0.60621  0.51219  0.67377  1.0000
  C   C76       1.0  0.10236000000000017  0.7254899999999999  0.1795  1.0000
  C   C77       1.0  0.9472999999999999  0.79201  0.17460999999999996  1.0000
  C   C78       1.0  0.8769200000000007  0.92849  0.17002  1.0000
  C   C79       1.0  0.96081  0.0007600000000000012  0.17026  1.0000
  C   C80       1.0  0.11584000000000005  0.9363199999999999  0.17435999999999996  1.0000
  C   C81       1.0  0.18542000000000017  0.7996399999999999  0.17898999999999995  1.0000
  C   C82       1.0  0.16625000000000004  0.37066  0.20440999999999995  1.0000
  C   C83       1.0  0.09312000000000004  0.50609  0.20244  1.0000
  C   C84       1.0  0.17625000000000007  0.5812499999999999  0.18414999999999995  1.0000
  C   C85       1.0  0.33382999999999996  0.51163  0.16977  1.0000
  C   C86       1.0  0.39892000000000005  0.37626  0.17227  1.0000
  C   C87       1.0  0.4021399999999999  0.8987100000000001  0.4154199999999999  1.0000
  C   C88       1.0  0.37989  0.12373  0.29402999999999996  1.0000
  C   C89       1.0  0.37684  0.07919  0.3464199999999999  1.0000
  C   C90       1.0  0.41183000000000014  0.94643  0.3608399999999999  1.0000
  C   C91       1.0  0.45412  0.8637399999999998  0.31977  1.0000
  C   C92       1.0  0.45321000000000006  0.9161  0.26875  1.0000
  C   C93       1.0  0.4047300000000002  0.7798699999999998  0.4330299999999999  1.0000
  C   C94       1.0  0.71099  0.99553  0.16686999999999994  1.0000
  C   C95       1.0  0.31433  0.6004299999999999  0.5573  1.0000
  C   C96       1.0  0.3370999999999999  0.637  0.50445  1.0000
  C   C97       1.0  0.38804  0.7361999999999999  0.48802  1.0000
  C   C98       1.0  0.4199300000000001  0.78919  0.52747  1.0000
  C   C99       1.0  0.3958800000000002  0.7464499999999998  0.57925  1.0000
  C   C100      1.0  0.20704000000000003  0.012690000000000009  0.17412999999999995  1.0000
  N   N1        1.0  0.68282  0.69517  0.8113699999999999  1.0000
  N   N2        1.0  0.5844500000000005  0.95549  0.7449999999999998  1.0000
  N   N3        1.0  0.65841  0.34561  0.4051299999999999  1.0000
  N   N4        1.0  0.81073  0.19527999999999998  0.31127  1.0000
  N   N5        1.0  0.7146199999999999  0.4555  0.24471  1.0000
  N   N6        1.0  0.5914600000000004  0.8457999999999999  0.9053699999999998  1.0000
  N   N7        1.0  0.1892700000000001  0.8047099999999999  0.68874  1.0000
  N   N8        1.0  0.28539000000000003  0.54449  0.7552999999999999  1.0000
  N   N9        1.0  0.40854  0.15419  0.09462999999999998  1.0000
  N   N10       1.0  0.31719  0.30482  0.18862999999999994  1.0000
  N   N11       1.0  0.41556  0.04449999999999999  0.25501  1.0000
  N   N12       1.0  0.3415999999999999  0.65438  0.59488  1.0000
  O   O1        1.0  0.3613000000000001  0.07211  0.83646  1.0000
  O   O2        1.0  0.3594700000000001  0.8808399999999998  0.8310899999999999  1.0000
  O   O3        1.0  0.64754  0.048620000000000024  0.8342099999999999  1.0000
  O   O4        1.0  0.8579900000000001  0.86666  0.81809  1.0000
  O   O5        1.0  0.73109  0.57137  0.33512999999999993  1.0000
  O   O6        1.0  0.93122  0.3806  0.32972  1.0000
  O   O7        1.0  0.46816000000000013  0.54877  0.3359099999999999  1.0000
  O   O8        1.0  0.4589600000000001  0.36809999999999987  0.31687  1.0000
  O   O9        1.0  0.26892000000000016  0.42861  0.6648799999999998  1.0000
  O   O10       1.0  0.06879000000000018  0.6193799999999999  0.6702799999999998  1.0000
  O   O11       1.0  0.53185  0.45122  0.6641  1.0000
  O   O12       1.0  0.5410500000000003  0.63189  0.6831299999999998  1.0000
  O   O13       1.0  0.6387000000000002  0.9278699999999999  0.16353999999999994  1.0000
  O   O14       1.0  0.64054  0.11914999999999999  0.16891  1.0000
  O   O15       1.0  0.3524699999999999  0.95137  0.16579999999999998  1.0000
  O   O16       1.0  0.14201  0.13333  0.18191999999999994  1.0000
