data_image0
_chemical_formula_structural       Cd6Si4H64C112O32
_chemical_formula_sum              "Cd6 Si4 H64 C112 O32"
_cell_length_a       15.70893
_cell_length_b       15.95163
_cell_length_c       23.217999999999996
_cell_angle_alpha    90.00466
_cell_angle_beta     89.99863000000002
_cell_angle_gamma    119.39741

_symmetry_space_group_name_H-M    'P 1'
_symmetry_Int_Tables_number       1

loop_
  _symmetry_equiv_pos_as_xyz
  'x,y,z'

loop_
  _atom_site_type_symbol
  _atom_site_label
  _atom_site_symmetry_multiplicity
  _atom_site_fract_x
  _atom_site_fract_y
  _atom_site_fract_z
  _atom_site_occupancy
  Cd  Cd1       1.0  0.32145  0.17704  0.36397000000000007  1.0000
  Cd  Cd2       1.0  0.67845  0.82289  0.86383  1.0000
  Cd  Cd3       1.0  0.8558600000000001  0.17678  0.13615  1.0000
  Cd  Cd4       1.0  0.14365999999999987  0.8218099999999998  0.63693  1.0000
  Cd  Cd5       1.0  0.23228999999999994  0.0008400000000000001  0.5003600000000001  1.0000
  Cd  Cd6       1.0  0.76802  0.9996  5e-05  1.0000
  Si  Si1       1.0  0.83153  0.194  0.5503600000000001  1.0000
  Si  Si2       1.0  0.16855  0.8061  0.05043000000000001  1.0000
  Si  Si3       1.0  0.36238  0.19384999999999994  0.94949  1.0000
  Si  Si4       1.0  0.63763  0.8061399999999997  0.4495  1.0000
  H   H1        1.0  0.99225  0.16738  0.58987  1.0000
  H   H2        1.0  0.11764  0.1398  0.54253  1.0000
  H   H3        1.0  0.9953599999999998  0.13918  0.37684  1.0000
  H   H4        1.0  0.86524  0.15947  0.4233200000000001  1.0000
  H   H5        1.0  0.79796  0.31415  0.63586  1.0000
  H   H6        1.0  0.88265  0.48985  0.6571  1.0000
  H   H7        1.0  0.08775999999999999  0.54115  0.52082  1.0000
  H   H8        1.0  0.007330000000000015  0.36477  0.50086  1.0000
  H   H9        1.0  0.68654  0.99218  0.58009  1.0000
  H   H10       1.0  0.64771  0.89634  0.67035  1.0000
  H   H11       1.0  0.86941  0.14104  0.76065  1.0000
  H   H12       1.0  0.90749  0.23961  0.67117  1.0000
  H   H13       1.0  0.6237  0.10607999999999998  0.58648  1.0000
  H   H14       1.0  0.4733  0.08389  0.53889  1.0000
  H   H15       1.0  0.63211  0.20256  0.3822  1.0000
  H   H16       1.0  0.78473  0.22878999999999997  0.42928  1.0000
  H   H17       1.0  0.007950000000000025  0.8329  0.08993000000000001  1.0000
  H   H18       1.0  0.88244  0.86029  0.042550000000000004  1.0000
  H   H19       1.0  0.004520000000000011  0.86064  0.8768800000000001  1.0000
  H   H20       1.0  0.13480000000000003  0.84052  0.9233400000000003  1.0000
  H   H21       1.0  0.20091999999999988  0.68451  0.136  1.0000
  H   H22       1.0  0.11617999999999999  0.50857  0.15616  1.0000
  H   H23       1.0  0.9122099999999999  0.45979  0.0195  1.0000
  H   H24       1.0  0.99282  0.63637  0.0007800000000000001  1.0000
  H   H25       1.0  0.31357  0.00798  0.08011  1.0000
  H   H26       1.0  0.35238  0.10387  0.1704  1.0000
  H   H27       1.0  0.13073000000000004  0.85916  0.26066  1.0000
  H   H28       1.0  0.09268  0.76051  0.17116000000000003  1.0000
  H   H29       1.0  0.37634  0.89389  0.08652000000000001  1.0000
  H   H30       1.0  0.5267  0.9161  0.03887000000000001  1.0000
  H   H31       1.0  0.3678299999999999  0.79747  0.8822  1.0000
  H   H32       1.0  0.2152199999999999  0.77132  0.9293100000000002  1.0000
  H   H33       1.0  0.17503  0.1674  0.9101  1.0000
  H   H34       1.0  0.022199999999999987  0.1396  0.9574500000000001  1.0000
  H   H35       1.0  0.1443  0.13911  0.12312000000000002  1.0000
  H   H36       1.0  0.29442  0.15949  0.07644000000000001  1.0000
  H   H37       1.0  0.51626  0.3149499999999999  0.86384  1.0000
  H   H38       1.0  0.60749  0.4909999999999999  0.8438800000000001  1.0000
  H   H39       1.0  0.45259000000000005  0.54041  0.9805600000000001  1.0000
  H   H40       1.0  0.35658  0.3637399999999999  0.9990600000000001  1.0000
  H   H41       1.0  0.30547  0.99194  0.92001  1.0000
  H   H42       1.0  0.24857  0.89576  0.8297700000000002  1.0000
  H   H43       1.0  0.27135  0.14044  0.7392000000000001  1.0000
  H   H44       1.0  0.33205999999999997  0.23942999999999995  0.8286100000000001  1.0000
  H   H45       1.0  0.4825299999999999  0.10588  0.9135  1.0000
  H   H46       1.0  0.61071  0.08362  0.9610900000000002  1.0000
  H   H47       1.0  0.5701  0.20258  0.11782000000000002  1.0000
  H   H48       1.0  0.44385  0.22891999999999996  0.07058000000000002  1.0000
  H   H49       1.0  0.8250299999999997  0.8325599999999999  0.41016  1.0000
  H   H50       1.0  0.9778  0.86041  0.45758000000000004  1.0000
  H   H51       1.0  0.85563  0.86091  0.62321  1.0000
  H   H52       1.0  0.70554  0.84054  0.57648  1.0000
  H   H53       1.0  0.48382  0.68507  0.36383  1.0000
  H   H54       1.0  0.39248  0.50899  0.34389  1.0000
  H   H55       1.0  0.54731  0.45951999999999993  0.48055  1.0000
  H   H56       1.0  0.6434  0.6362  0.49908  1.0000
  H   H57       1.0  0.69446  0.00807  0.4199400000000001  1.0000
  H   H58       1.0  0.75119  0.10401  0.32967  1.0000
  H   H59       1.0  0.72843  0.85911  0.23922  1.0000
  H   H60       1.0  0.6680999999999999  0.7603899999999998  0.32868  1.0000
  H   H61       1.0  0.5173999999999999  0.8940399999999998  0.41355000000000003  1.0000
  H   H62       1.0  0.38926  0.91634  0.46113  1.0000
  H   H63       1.0  0.42993  0.79746  0.61788  1.0000
  H   H64       1.0  0.5561  0.77103  0.5706300000000001  1.0000
  C   C1        1.0  0.9189599999999999  0.16649999999999995  0.51032  1.0000
  C   C2        1.0  0.99135  0.16009  0.5431800000000001  1.0000
  C   C3        1.0  0.062190000000000016  0.14453  0.5169  1.0000
  C   C4        1.0  0.06396  0.13731  0.45675  1.0000
  C   C5        1.0  0.99263  0.14367  0.42347  1.0000
  C   C6        1.0  0.9203499999999998  0.15648999999999996  0.45017  1.0000
  C   C7        1.0  0.14507  0.13055  0.42766  1.0000
  C   C8        1.0  0.89693  0.32646  0.5669400000000001  1.0000
  C   C9        1.0  0.8617299999999999  0.36309  0.61072  1.0000
  C   C10       1.0  0.90801  0.46103999999999995  0.6228000000000001  1.0000
  C   C11       1.0  0.99013  0.5251  0.5903500000000002  1.0000
  C   C12       1.0  0.02474999999999996  0.4902599999999999  0.5457  1.0000
  C   C13       1.0  0.9789799999999999  0.39181  0.53462  1.0000
  C   C14       1.0  0.041770000000000036  0.62904  0.60493  1.0000
  C   C15       1.0  0.79965  0.12353  0.61914  1.0000
  C   C16       1.0  0.72689  0.02583  0.6193600000000001  1.0000
  C   C17       1.0  0.70486  0.97129  0.66956  1.0000
  C   C18       1.0  0.75655  0.013139999999999999  0.72055  1.0000
  C   C19       1.0  0.8300100000000001  0.10991  0.7208400000000001  1.0000
  C   C20       1.0  0.8508899999999999  0.16438  0.6706  1.0000
  C   C21       1.0  0.73392  0.95419  0.77379  1.0000
  C   C22       1.0  0.7161  0.16677  0.5113500000000001  1.0000
  C   C23       1.0  0.62687  0.12703  0.54159  1.0000
  C   C24       1.0  0.54165  0.11424999999999998  0.51509  1.0000
  C   C25       1.0  0.54343  0.14137  0.4575  1.0000
  C   C26       1.0  0.63161  0.18115999999999996  0.42672  1.0000
  C   C27       1.0  0.71671  0.19442  0.4535200000000001  1.0000
  C   C28       1.0  0.45356  0.1329  0.4297000000000001  1.0000
  C   C29       1.0  0.08119  0.83367  0.01037  1.0000
  C   C30       1.0  0.008789999999999928  0.8400599999999999  0.043230000000000005  1.0000
  C   C31       1.0  0.93786  0.85549  0.01694  1.0000
  C   C32       1.0  0.9360099999999997  0.8625999999999999  0.9567800000000001  1.0000
  C   C33       1.0  0.007329999999999988  0.85624  0.92351  1.0000
  C   C34       1.0  0.07971  0.84353  0.9502000000000002  1.0000
  C   C35       1.0  0.8548  0.86939  0.9278100000000001  1.0000
  C   C36       1.0  0.10288  0.67351  0.06689  1.0000
  C   C37       1.0  0.13741000000000006  0.636  0.11053  1.0000
  C   C38       1.0  0.09091000000000005  0.53784  0.12204000000000001  1.0000
  C   C39       1.0  0.009179999999999987  0.47432  0.08908  1.0000
  C   C40       1.0  0.97494  0.51013  0.04477000000000001  1.0000
  C   C41       1.0  0.02090999999999991  0.6087199999999999  0.034300000000000004  1.0000
  C   C42       1.0  0.95732  0.36987  0.1024  1.0000
  C   C43       1.0  0.2005  0.87663  0.11917  1.0000
  C   C44       1.0  0.2732399999999998  0.9743499999999998  0.11939  1.0000
  C   C45       1.0  0.29523999999999995  0.0289  0.16959000000000002  1.0000
  C   C46       1.0  0.24356  0.987  0.22057000000000004  1.0000
  C   C47       1.0  0.17008000000000004  0.89025  0.22084  1.0000
  C   C48       1.0  0.14923000000000003  0.83577  0.1706  1.0000
  C   C49       1.0  0.26612  0.04584  0.27387  1.0000
  C   C50       1.0  0.2839  0.8332499999999999  0.011380000000000001  1.0000
  C   C51       1.0  0.37313  0.87296  0.041620000000000004  1.0000
  C   C52       1.0  0.45834  0.88574  0.01511  1.0000
  C   C53       1.0  0.45654  0.85864  0.9575  1.0000
  C   C54       1.0  0.36835  0.81886  0.92673  1.0000
  C   C55       1.0  0.28326  0.80562  0.95353  1.0000
  C   C56       1.0  0.5464799999999999  0.86717  0.9297000000000002  1.0000
  C   C57       1.0  0.24756  0.16648  0.98954  1.0000
  C   C58       1.0  0.16869  0.15997  0.95676  1.0000
  C   C59       1.0  0.08235  0.1443  0.9830800000000002  1.0000
  C   C60       1.0  0.07352  0.1371  0.043230000000000005  1.0000
  C   C61       1.0  0.15124  0.14352  0.07647  1.0000
  C   C62       1.0  0.23625  0.15642  0.049680000000000016  1.0000
  C   C63       1.0  0.98587  0.13063  0.07231  1.0000
  C   C64       1.0  0.42931  0.3263499999999999  0.9329300000000001  1.0000
  C   C65       1.0  0.50137  0.36365  0.88935  1.0000
  C   C66       1.0  0.55304  0.46187  0.87799  1.0000
  C   C67       1.0  0.53485  0.52557  0.91097  1.0000
  C   C68       1.0  0.46493  0.48992  0.95528  1.0000
  C   C69       1.0  0.41232  0.39131999999999995  0.9656000000000002  1.0000
  C   C70       1.0  0.58695  0.63002  0.89763  1.0000
  C   C71       1.0  0.32391  0.12329  0.8807600000000001  1.0000
  C   C72       1.0  0.29882999999999993  0.02545  0.8806200000000001  1.0000
  C   C73       1.0  0.26641000000000004  0.97081  0.83044  1.0000
  C   C74       1.0  0.2567199999999999  0.01272  0.77939  1.0000
  C   C75       1.0  0.27982  0.10950999999999997  0.77907  1.0000
  C   C76       1.0  0.3134499999999999  0.16412  0.82927  1.0000
  C   C77       1.0  0.22094999999999995  0.95411  0.72599  1.0000
  C   C78       1.0  0.45062  0.16667  0.9886100000000002  1.0000
  C   C79       1.0  0.50023  0.12688  0.95839  1.0000
  C   C80       1.0  0.5727199999999998  0.11411999999999997  0.98488  1.0000
  C   C81       1.0  0.59796  0.14126  0.0425  1.0000
  C   C82       1.0  0.5494799999999997  0.18115999999999996  0.07327  1.0000
  C   C83       1.0  0.4776  0.19443  0.04643  1.0000
  C   C84       1.0  0.67942  0.1325  0.07015000000000002  1.0000
  C   C85       1.0  0.75243  0.83351  0.4896000000000001  1.0000
  C   C86       1.0  0.8312999999999999  0.8399799999999997  0.45683000000000007  1.0000
  C   C87       1.0  0.91759  0.8556199999999998  0.48319  1.0000
  C   C88       1.0  0.92645  0.8628  0.54335  1.0000
  C   C89       1.0  0.8487  0.85639  0.5765600000000001  1.0000
  C   C90       1.0  0.76371  0.84356  0.54974  1.0000
  C   C91       1.0  0.01422999999999991  0.8692399999999998  0.57234  1.0000
  C   C92       1.0  0.5707  0.67363  0.43295000000000006  1.0000
  C   C93       1.0  0.4986599999999998  0.6363599999999998  0.38936000000000004  1.0000
  C   C94       1.0  0.44688999999999984  0.53812  0.37802  1.0000
  C   C95       1.0  0.46499  0.47439  0.4110000000000001  1.0000
  C   C96       1.0  0.53496  0.51002  0.4553  1.0000
  C   C97       1.0  0.58766  0.60864  0.46561000000000013  1.0000
  C   C98       1.0  0.41282  0.36992  0.39763  1.0000
  C   C99       1.0  0.67614  0.87661  0.38075  1.0000
  C   C100      1.0  0.70105  0.9744  0.38060000000000005  1.0000
  C   C101      1.0  0.73335  0.028959999999999993  0.33041  1.0000
  C   C102      1.0  0.74302  0.98696  0.27940000000000004  1.0000
  C   C103      1.0  0.71998  0.89017  0.27905  1.0000
  C   C104      1.0  0.68655  0.8356599999999998  0.3292800000000001  1.0000
  C   C105      1.0  0.77923  0.04585  0.22615  1.0000
  C   C106      1.0  0.5493399999999999  0.8332799999999999  0.48865000000000003  1.0000
  C   C107      1.0  0.49971  0.87306  0.45844  1.0000
  C   C108      1.0  0.42723999999999984  0.8858399999999998  0.48493000000000014  1.0000
  C   C109      1.0  0.40205  0.85876  0.5425500000000001  1.0000
  C   C110      1.0  0.45050999999999997  0.81884  0.57332  1.0000
  C   C111      1.0  0.5223599999999998  0.8055299999999997  0.54648  1.0000
  C   C112      1.0  0.32069  0.8676699999999999  0.5702  1.0000
  O   O1        1.0  0.19392  0.09778  0.45491  1.0000
  O   O2        1.0  0.16837  0.16338  0.37701  1.0000
  O   O3        1.0  0.08328000000000003  0.69188  0.56558  1.0000
  O   O4        1.0  0.04451999999999995  0.6546099999999999  0.65735  1.0000
  O   O5        1.0  0.7583399999999999  0.9929499999999998  0.8231100000000001  1.0000
  O   O6        1.0  0.68874  0.86201  0.76838  1.0000
  O   O7        1.0  0.46216000000000007  0.17038  0.3802900000000001  1.0000
  O   O8        1.0  0.37256  0.09108999999999999  0.45729  1.0000
  O   O9        1.0  0.806  0.90187  0.95538  1.0000
  O   O10       1.0  0.83151  0.83687  0.87708  1.0000
  O   O11       1.0  0.9182399999999998  0.30811  0.06242000000000001  1.0000
  O   O12       1.0  0.95174  0.34310999999999997  0.15485000000000002  1.0000
  O   O13       1.0  0.24188  0.006899999999999999  0.32315000000000005  1.0000
  O   O14       1.0  0.31099  0.138  0.26847  1.0000
  O   O15       1.0  0.53782  0.82963  0.8802900000000001  1.0000
  O   O16       1.0  0.62742  0.9089899999999997  0.95728  1.0000
  O   O17       1.0  0.90405  0.09645  0.04533  1.0000
  O   O18       1.0  0.99598  0.16462  0.12275  1.0000
  O   O19       1.0  0.60897  0.69178  0.9375600000000002  1.0000
  O   O20       1.0  0.60866  0.65683  0.84522  1.0000
  O   O21       1.0  0.23426  0.99304  0.67684  1.0000
  O   O22       1.0  0.17493  0.86181  0.7315600000000001  1.0000
  O   O23       1.0  0.70862  0.16967  0.11957000000000001  1.0000
  O   O24       1.0  0.71836  0.09070999999999999  0.04224  1.0000
  O   O25       1.0  0.09601  0.90403  0.5453200000000001  1.0000
  O   O26       1.0  0.004180000000000015  0.83455  0.6225900000000001  1.0000
  O   O27       1.0  0.39123  0.30818  0.43754  1.0000
  O   O28       1.0  0.39059  0.34297  0.34527  1.0000
  O   O29       1.0  0.76587  0.00703  0.17688  1.0000
  O   O30       1.0  0.82553  0.13804  0.23156  1.0000
  O   O31       1.0  0.29193999999999987  0.8309399999999998  0.61977  1.0000
  O   O32       1.0  0.28151  0.9090999999999999  0.5422  1.0000
