data_image0
_chemical_formula_structural       Mn2H60C84N24F24
_chemical_formula_sum              "Mn2 H60 C84 N24 F24"
_cell_length_a       13.03092
_cell_length_b       14.65659
_cell_length_c       19.05316
_cell_angle_alpha    75.86713
_cell_angle_beta     70.06474000000001
_cell_angle_gamma    63.70871000000001

_space_group_name_H-M_alt    "P 1"
_space_group_IT_number       1

loop_
  _space_group_symop_operation_xyz
  'x, y, z'

loop_
  _atom_site_type_symbol
  _atom_site_label
  _atom_site_symmetry_multiplicity
  _atom_site_fract_x
  _atom_site_fract_y
  _atom_site_fract_z
  _atom_site_occupancy
  Mn  Mn1       1.0  0.9999900000000002  3e-05  6e-05  1.0000
  Mn  Mn2       1.0  5.0000000000021524e-05  0.5  0.49997  1.0000
  H   H1        1.0  0.22058000000000016  0.77648  0.923  1.0000
  H   H2        1.0  0.9529300000000005  0.015109999999999997  0.83207  1.0000
  H   H3        1.0  0.06960000000000004  0.85711  0.74097  1.0000
  H   H4        1.0  0.20097000000000004  0.6434  0.80227  1.0000
  H   H5        1.0  0.3101400000000001  0.65037  0.83464  1.0000
  H   H6        1.0  0.47675000000000006  0.73694  0.44498  1.0000
  H   H7        1.0  0.53135  0.81258  0.47013  1.0000
  H   H8        1.0  0.6284700000000001  0.57908  0.38793  1.0000
  H   H9        1.0  0.86586  0.46435999999999994  0.3818900000000001  1.0000
  H   H10       1.0  0.7274100000000001  0.68952  0.52931  1.0000
  H   H11       1.0  0.009849999999999963  0.19769999999999993  0.8619500000000002  1.0000
  H   H12       1.0  0.8101300000000002  0.35479  0.82454  1.0000
  H   H13       1.0  0.70682  0.13802  0.99037  1.0000
  H   H14       1.0  0.5493500000000002  0.27688  0.9357300000000001  1.0000
  H   H15       1.0  0.5897500000000001  0.3558400000000001  0.85288  1.0000
  H   H16       1.0  0.9199399999999999  0.72413  0.57727  1.0000
  H   H17       1.0  0.8015699999999999  0.48407  0.6677  1.0000
  H   H18       1.0  0.6677000000000003  0.64243  0.75823  1.0000
  H   H19       1.0  0.64649  0.85644  0.6980800000000003  1.0000
  H   H20       1.0  0.79481  0.85006  0.66555  1.0000
  H   H21       1.0  0.65932  0.76148  0.05657  1.0000
  H   H22       1.0  0.81437  0.68661  0.03099  1.0000
  H   H23       1.0  0.5962200000000001  0.92085  0.11261  1.0000
  H   H24       1.0  0.7129800000000002  0.03652  0.11775  1.0000
  H   H25       1.0  0.9461799999999998  0.81024  0.97143  1.0000
  H   H26       1.0  0.0696899999999999  0.30275000000000013  0.63772  1.0000
  H   H27       1.0  0.9893700000000004  0.14537  0.67561  1.0000
  H   H28       1.0  0.8352799999999999  0.36176  0.50944  1.0000
  H   H29       1.0  0.7618  0.22283999999999995  0.56395  1.0000
  H   H30       1.0  0.7980500000000003  0.14377999999999996  0.6466900000000002  1.0000
  H   H31       1.0  0.7794  0.22348  0.077  1.0000
  H   H32       1.0  0.04701000000000007  0.98493  0.168  1.0000
  H   H33       1.0  0.9304200000000001  0.14272999999999997  0.25911  1.0000
  H   H34       1.0  0.7994400000000003  0.35688  0.19729000000000005  1.0000
  H   H35       1.0  0.6901700000000001  0.34994  0.16506000000000004  1.0000
  H   H36       1.0  0.52323  0.26305  0.5553  1.0000
  H   H37       1.0  0.46894  0.18742000000000003  0.52988  1.0000
  H   H38       1.0  0.3717599999999998  0.42103  0.61188  1.0000
  H   H39       1.0  0.13416000000000008  0.5354499999999999  0.61818  1.0000
  H   H40       1.0  0.27288000000000007  0.31054  0.47051  1.0000
  H   H41       1.0  0.9901400000000004  0.8023799999999999  0.13808  1.0000
  H   H42       1.0  0.18985  0.64522  0.17542  1.0000
  H   H43       1.0  0.29317000000000004  0.86202  0.009620000000000004  1.0000
  H   H44       1.0  0.4506299999999998  0.72317  0.06427000000000001  1.0000
  H   H45       1.0  0.4103  0.64417  0.14708  1.0000
  H   H46       1.0  0.07968999999999996  0.27617  0.4228900000000001  1.0000
  H   H47       1.0  0.19855  0.51591  0.33223  1.0000
  H   H48       1.0  0.3320500000000002  0.35764000000000007  0.2418  1.0000
  H   H49       1.0  0.35333  0.14331  0.3023  1.0000
  H   H50       1.0  0.20515999999999995  0.14993999999999996  0.3347100000000001  1.0000
  H   H51       1.0  0.34058000000000005  0.23846000000000003  0.94376  1.0000
  H   H52       1.0  0.18556999999999993  0.31359  0.96893  1.0000
  H   H53       1.0  0.40380000000000005  0.07913  0.88758  1.0000
  H   H54       1.0  0.28693000000000013  0.9635699999999999  0.88228  1.0000
  H   H55       1.0  0.05385000000000006  0.18971  0.02873  1.0000
  H   H56       1.0  0.93045  0.69713  0.36226000000000014  1.0000
  H   H57       1.0  0.010610000000000014  0.8545799999999998  0.32443  1.0000
  H   H58       1.0  0.16476999999999992  0.6382  0.4905900000000001  1.0000
  H   H59       1.0  0.23823000000000008  0.77712  0.4360600000000001  1.0000
  H   H60       1.0  0.20191999999999996  0.85626  0.3533800000000001  1.0000
  C   C1        1.0  0.16234000000000012  0.8217699999999998  0.88708  1.0000
  C   C2        1.0  0.02633999999999994  0.94256  0.83734  1.0000
  C   C3        1.0  0.08243999999999989  0.86489  0.7920400000000002  1.0000
  C   C4        1.0  0.2524300000000003  0.6882699999999999  0.79649  1.0000
  C   C5        1.0  0.32245000000000007  0.69831  0.71704  1.0000
  C   C6        1.0  0.40632  0.74356  0.69571  1.0000
  C   C7        1.0  0.4674999999999998  0.7579800000000001  0.62185  1.0000
  C   C8        1.0  0.4525000000000002  0.72706  0.56234  1.0000
  C   C9        1.0  0.37074999999999997  0.67973  0.5841000000000001  1.0000
  C   C10       1.0  0.30688  0.66789  0.65765  1.0000
  C   C11       1.0  0.52178  0.73922  0.48318  1.0000
  C   C12       1.0  0.6851000000000002  0.5844799999999999  0.41567  1.0000
  C   C13       1.0  0.8026300000000001  0.52771  0.41405  1.0000
  C   C14       1.0  0.73556  0.6429999999999999  0.48998  1.0000
  C   C15       1.0  0.91748  0.20845999999999995  0.8835200000000002  1.0000
  C   C16       1.0  0.81992  0.28632  0.86386  1.0000
  C   C17       1.0  0.7643900000000001  0.17351999999999995  0.95076  1.0000
  C   C18       1.0  0.59575  0.32874  0.9108500000000002  1.0000
  C   C19       1.0  0.5455700000000001  0.4162  0.95539  1.0000
  C   C20       1.0  0.5302200000000002  0.5176899999999999  0.9221500000000001  1.0000
  C   C21       1.0  0.5145800000000003  0.4026  0.03536  1.0000
  C   C22       1.0  0.8714599999999999  0.67841  0.61298  1.0000
  C   C23       1.0  0.8071600000000004  0.5569899999999999  0.6624  1.0000
  C   C24       1.0  0.73967  0.63481  0.70749  1.0000
  C   C25       1.0  0.7371300000000003  0.8118  0.70367  1.0000
  C   C26       1.0  0.7381200000000001  0.80101  0.78318  1.0000
  C   C27       1.0  0.8456400000000001  0.75457  0.80491  1.0000
  C   C28       1.0  0.8469500000000001  0.74052  0.8788800000000002  1.0000
  C   C29       1.0  0.7414600000000001  0.77169  0.93846  1.0000
  C   C30       1.0  0.6343900000000001  0.81894  0.9162  1.0000
  C   C31       1.0  0.6326599999999999  0.83161  0.84241  1.0000
  C   C32       1.0  0.7442600000000003  0.75965  0.017720000000000003  1.0000
  C   C33       1.0  0.68589  0.9153699999999999  0.08488  1.0000
  C   C34       1.0  0.74491  0.97276  0.08597  1.0000
  C   C35       1.0  0.86873  0.85667  0.01073  1.0000
  C   C36       1.0  0.009620000000000028  0.29161  0.61626  1.0000
  C   C37       1.0  0.9700100000000001  0.2137  0.6361  1.0000
  C   C38       1.0  0.8886800000000001  0.32629  0.54911  1.0000
  C   C39       1.0  0.8349700000000002  0.17097  0.58886  1.0000
  C   C40       1.0  0.9161600000000002  0.08354999999999999  0.54449  1.0000
  C   C41       1.0  0.9685999999999999  0.9821  0.57793  1.0000
  C   C42       1.0  0.9530400000000002  0.09731  0.46449999999999997  1.0000
  C   C43       1.0  0.83771  0.17828999999999998  0.11290000000000001  1.0000
  C   C44       1.0  0.9735900000000001  0.05747  0.16271  1.0000
  C   C45       1.0  0.9176000000000002  0.13520999999999997  0.20795000000000005  1.0000
  C   C46       1.0  0.74788  0.31201  0.20324  1.0000
  C   C47       1.0  0.6778400000000001  0.3021  0.28278  1.0000
  C   C48       1.0  0.5939300000000002  0.25676  0.30433  1.0000
  C   C49       1.0  0.53308  0.24172999999999997  0.37817  1.0000
  C   C50       1.0  0.54797  0.2729  0.43764  1.0000
  C   C51       1.0  0.6294200000000001  0.32067  0.4158500000000001  1.0000
  C   C52       1.0  0.69338  0.33248999999999995  0.34226  1.0000
  C   C53       1.0  0.47863  0.26073999999999997  0.5168100000000001  1.0000
  C   C54       1.0  0.31506  0.41547  0.5843  1.0000
  C   C55       1.0  0.19751999999999997  0.47224  0.58591  1.0000
  C   C56       1.0  0.26469000000000015  0.35695000000000005  0.50994  1.0000
  C   C57       1.0  0.08251999999999997  0.79157  0.11647  1.0000
  C   C58       1.0  0.18008  0.71372  0.13613  1.0000
  C   C59       1.0  0.23562000000000002  0.8265  0.04923  1.0000
  C   C60       1.0  0.40426999999999996  0.67129  0.08913  1.0000
  C   C61       1.0  0.4544500000000002  0.58384  0.04457000000000001  1.0000
  C   C62       1.0  0.46976  0.48236  0.07781  1.0000
  C   C63       1.0  0.4854199999999999  0.5974500000000003  0.96461  1.0000
  C   C64       1.0  0.12849000000000008  0.32161  0.38714000000000004  1.0000
  C   C65       1.0  0.19279  0.4430299999999999  0.33761000000000013  1.0000
  C   C66       1.0  0.2603  0.36511  0.29263  1.0000
  C   C67       1.0  0.26291  0.18809  0.29642  1.0000
  C   C68       1.0  0.26219  0.19864  0.21675  1.0000
  C   C69       1.0  0.15444  0.24529999999999996  0.19529  1.0000
  C   C70       1.0  0.15261000000000002  0.25962  0.12142  1.0000
  C   C71       1.0  0.25786000000000003  0.2286  0.06173  1.0000
  C   C72       1.0  0.36545000000000005  0.18113  0.08331  1.0000
  C   C73       1.0  0.3675900000000001  0.16819  0.15714  1.0000
  C   C74       1.0  0.2554099999999999  0.24050999999999992  0.9824200000000001  1.0000
  C   C75       1.0  0.3140699999999999  0.08470999999999998  0.9151800000000001  1.0000
  C   C76       1.0  0.2550700000000001  0.02733  0.91406  1.0000
  C   C77       1.0  0.1312399999999999  0.14335999999999996  0.9893500000000001  1.0000
  C   C78       1.0  0.99043  0.70833  0.3837800000000001  1.0000
  C   C79       1.0  0.030050000000000052  0.7862299999999999  0.36392  1.0000
  C   C80       1.0  0.11135999999999989  0.67368  0.45093000000000005  1.0000
  C   C81       1.0  0.16503000000000018  0.82899  0.41119  1.0000
  C   C82       1.0  0.08385999999999999  0.9163499999999999  0.4556200000000001  1.0000
  C   C83       1.0  0.031400000000000004  0.017760000000000005  0.42224  1.0000
  C   C84       1.0  0.046940000000000016  0.90262  0.53557  1.0000
  N   N1        1.0  0.07673999999999989  0.91543  0.8967  1.0000
  N   N2        1.0  0.16813000000000003  0.78843  0.82466  1.0000
  N   N3        1.0  0.64389  0.65797  0.46363000000000004  1.0000
  N   N4        1.0  0.8334000000000005  0.5643999999999999  0.46106  1.0000
  N   N5        1.0  0.8823099999999999  0.13831999999999997  0.93819  1.0000
  N   N6        1.0  0.72335  0.26282  0.9067300000000001  1.0000
  N   N7        1.0  0.8898  0.58443  0.60331  1.0000
  N   N8        1.0  0.7811099999999997  0.7116799999999999  0.6751200000000003  1.0000
  N   N9        1.0  0.7659199999999999  0.84127  0.03737000000000001  1.0000
  N   N10       1.0  0.8591300000000002  0.93589  0.03907000000000001  1.0000
  N   N11       1.0  0.9590100000000005  0.36161  0.56155  1.0000
  N   N12       1.0  0.8926800000000005  0.23703999999999997  0.59327  1.0000
  N   N13       1.0  0.9232100000000001  0.08458  0.10334  1.0000
  N   N14       1.0  0.8320200000000002  0.21173  0.17525  1.0000
  N   N15       1.0  0.3563700000000002  0.34202  0.53629  1.0000
  N   N16       1.0  0.16679  0.43552  0.5389  1.0000
  N   N17       1.0  0.11770000000000008  0.86174  0.06183  1.0000
  N   N18       1.0  0.27666  0.73721  0.09328  1.0000
  N   N19       1.0  0.11012999999999998  0.41563  0.39672  1.0000
  N   N20       1.0  0.21890999999999994  0.28822000000000003  0.32502  1.0000
  N   N21       1.0  0.23402999999999996  0.15875999999999996  0.9627400000000002  1.0000
  N   N22       1.0  0.14085999999999993  0.06415  0.9609900000000001  1.0000
  N   N23       1.0  0.04108000000000007  0.6383299999999998  0.43847  1.0000
  N   N24       1.0  0.10738000000000004  0.76291  0.40675  1.0000
  F   F1        1.0  0.5603299999999999  0.5369599999999998  0.84494  1.0000
  F   F2        1.0  0.53016  0.30557  0.07023000000000003  1.0000
  F   F3        1.0  0.22635000000000025  0.62478  0.67371  1.0000
  F   F4        1.0  0.35391  0.64479  0.53006  1.0000
  F   F5        1.0  0.5452400000000001  0.8051099999999999  0.60427  1.0000
  F   F6        1.0  0.4250499999999999  0.7738399999999999  0.7508600000000002  1.0000
  F   F7        1.0  0.93917  0.96293  0.65515  1.0000
  F   F8        1.0  0.9085200000000001  0.19423  0.42871  1.0000
  F   F9        1.0  0.52502  0.8751500000000001  0.82632  1.0000
  F   F10       1.0  0.5284199999999998  0.85098  0.97039  1.0000
  F   F11       1.0  0.9545600000000002  0.6943599999999999  0.89585  1.0000
  F   F12       1.0  0.94991  0.72246  0.74998  1.0000
  F   F13       1.0  0.43970000000000004  0.46305  0.155  1.0000
  F   F14       1.0  0.4698399999999999  0.6944799999999999  0.92979  1.0000
  F   F15       1.0  0.7741700000000002  0.3753099999999999  0.32621000000000006  1.0000
  F   F16       1.0  0.6462100000000002  0.35549  0.47008000000000005  1.0000
  F   F17       1.0  0.45494000000000007  0.1949  0.39565  1.0000
  F   F18       1.0  0.57503  0.22619999999999996  0.24943  1.0000
  F   F19       1.0  0.06081999999999996  0.03702999999999999  0.3450800000000001  1.0000
  F   F20       1.0  0.09132999999999995  0.80555  0.57098  1.0000
  F   F21       1.0  0.47495000000000004  0.12487  0.17362  1.0000
  F   F22       1.0  0.47038000000000013  0.14915  0.028050000000000005  1.0000
  F   F23       1.0  0.04518999999999996  0.30567  0.10425  1.0000
  F   F24       1.0  0.05018000000000005  0.27763  0.25011  1.0000
