data_image0
_chemical_formula_structural       Ag4H72C64N16
_chemical_formula_sum              "Ag4 H72 C64 N16"
_cell_length_a       11.49935
_cell_length_b       11.446569999999998
_cell_length_c       15.43206
_cell_angle_alpha    89.98956
_cell_angle_beta     89.99772999999999
_cell_angle_gamma    90.01297999999998

_space_group_name_H-M_alt    "P 1"
_space_group_IT_number       1

loop_
  _space_group_symop_operation_xyz
  'x, y, z'

loop_
  _atom_site_type_symbol
  _atom_site_label
  _atom_site_symmetry_multiplicity
  _atom_site_fract_x
  _atom_site_fract_y
  _atom_site_fract_z
  _atom_site_occupancy
  Ag  Ag1       1.0  0.9999000000000001  0.9998999999999999  0.14682  1.0000
  Ag  Ag2       1.0  0.50005  0.4998699999999999  0.6467199999999997  1.0000
  Ag  Ag3       1.0  0.99992  0.50002  0.8978599999999998  1.0000
  Ag  Ag4       1.0  0.50006  0.9999799999999999  0.39768999999999993  1.0000
  H   H1        1.0  0.8878299999999999  0.65089  0.05902  1.0000
  H   H2        1.0  0.80825  0.84932  0.08906  1.0000
  H   H3        1.0  0.89529  0.94485  0.8268899999999999  1.0000
  H   H4        1.0  0.97058  0.74487  0.80662  1.0000
  H   H5        1.0  0.68594  0.14905  0.93753  1.0000
  H   H6        1.0  0.76905  0.08022  0.85588  1.0000
  H   H7        1.0  0.8275199999999999  0.19999999999999998  0.9156399999999998  1.0000
  H   H8        1.0  0.7182399999999999  0.20702  0.07696  1.0000
  H   H9        1.0  0.8663299999999999  0.24829999999999994  0.06837  1.0000
  H   H10       1.0  0.79129  0.28043  0.21786999999999995  1.0000
  H   H11       1.0  0.75126  0.1312  0.22598  1.0000
  H   H12       1.0  0.8663599999999999  0.32334  0.36082  1.0000
  H   H13       1.0  0.91842  0.2238  0.43894  1.0000
  H   H14       1.0  0.79638  0.1871  0.37328  1.0000
  H   H15       1.0  0.14848  0.19264  0.20338999999999993  1.0000
  H   H16       1.0  0.34779  0.11734999999999998  0.23370999999999995  1.0000
  H   H17       1.0  0.25589  0.0312  0.48574999999999996  1.0000
  H   H18       1.0  0.0553  0.10285999999999998  0.46558  1.0000
  H   H19       1.0  0.11223000000000001  0.34902999999999995  0.05898999999999999  1.0000
  H   H20       1.0  0.19172999999999998  0.15051  0.08903999999999997  1.0000
  H   H21       1.0  0.10454  0.05521  0.8267899999999998  1.0000
  H   H22       1.0  0.02928  0.25524  0.80664  1.0000
  H   H23       1.0  0.314  0.85069  0.93745  1.0000
  H   H24       1.0  0.23096  0.9196399999999999  0.85583  1.0000
  H   H25       1.0  0.17233  0.8000499999999998  0.91568  1.0000
  H   H26       1.0  0.28184  0.79289  0.07703  1.0000
  H   H27       1.0  0.13383  0.7517  0.06829  1.0000
  H   H28       1.0  0.20873  0.7194899999999999  0.21785999999999994  1.0000
  H   H29       1.0  0.24877  0.8686799999999998  0.22601999999999994  1.0000
  H   H30       1.0  0.13366  0.67667  0.3608599999999999  1.0000
  H   H31       1.0  0.08159  0.77619  0.43894  1.0000
  H   H32       1.0  0.20359  0.81297  0.37328  1.0000
  H   H33       1.0  0.85148  0.80733  0.20339999999999994  1.0000
  H   H34       1.0  0.65217  0.88257  0.23372  1.0000
  H   H35       1.0  0.7440199999999999  0.9687899999999999  0.48570999999999986  1.0000
  H   H36       1.0  0.94464  0.8973699999999999  0.46557  1.0000
  H   H37       1.0  0.38791000000000003  0.84947  0.55872  1.0000
  H   H38       1.0  0.30827  0.65109  0.58906  1.0000
  H   H39       1.0  0.39536  0.55501  0.3270899999999999  1.0000
  H   H40       1.0  0.47064  0.7549799999999999  0.3065  1.0000
  H   H41       1.0  0.18594000000000002  0.35102  0.4377299999999999  1.0000
  H   H42       1.0  0.26908  0.41971  0.3560199999999999  1.0000
  H   H43       1.0  0.32754  0.30014  0.4159699999999999  1.0000
  H   H44       1.0  0.21802  0.29297  0.57732  1.0000
  H   H45       1.0  0.36613  0.25194  0.56834  1.0000
  H   H46       1.0  0.29162  0.21934999999999996  0.71792  1.0000
  H   H47       1.0  0.25148  0.36844  0.7262499999999997  1.0000
  H   H48       1.0  0.36628000000000005  0.17684999999999998  0.8608799999999998  1.0000
  H   H49       1.0  0.41849  0.27616999999999997  0.9390699999999997  1.0000
  H   H50       1.0  0.29659  0.31309  0.8733999999999997  1.0000
  H   H51       1.0  0.64888  0.30753  0.70357  1.0000
  H   H52       1.0  0.84824  0.38268  0.73412  1.0000
  H   H53       1.0  0.75603  0.46885  0.9860299999999997  1.0000
  H   H54       1.0  0.55532  0.39748  0.9656399999999998  1.0000
  H   H55       1.0  0.61229  0.15049  0.5588199999999998  1.0000
  H   H56       1.0  0.69181  0.34892  0.58908  1.0000
  H   H57       1.0  0.60431  0.44505  0.32714  1.0000
  H   H58       1.0  0.52923  0.24502  0.30662999999999996  1.0000
  H   H59       1.0  0.8141  0.6490599999999999  0.43769  1.0000
  H   H60       1.0  0.73085  0.5804  0.35606  1.0000
  H   H61       1.0  0.67241  0.6998699999999999  0.4160899999999999  1.0000
  H   H62       1.0  0.78192  0.70717  0.57734  1.0000
  H   H63       1.0  0.6338  0.748  0.5682299999999998  1.0000
  H   H64       1.0  0.7084  0.7806  0.7179  1.0000
  H   H65       1.0  0.74848  0.63154  0.7262699999999997  1.0000
  H   H66       1.0  0.63385  0.82314  0.8608699999999998  1.0000
  H   H67       1.0  0.58159  0.7237799999999999  0.9390699999999997  1.0000
  H   H68       1.0  0.7034599999999999  0.68686  0.87336  1.0000
  H   H69       1.0  0.35130999999999996  0.69241  0.70352  1.0000
  H   H70       1.0  0.15182  0.61759  0.7341099999999999  1.0000
  H   H71       1.0  0.24387  0.53112  0.9859999999999998  1.0000
  H   H72       1.0  0.4446300000000001  0.6023  0.9656899999999998  1.0000
  C   C1        1.0  0.8895800000000001  0.71864  0.00944  1.0000
  C   C2        1.0  0.8466599999999999  0.82872  0.0267  1.0000
  C   C3        1.0  0.8505599999999999  0.91785  0.9630399999999998  1.0000
  C   C4        1.0  0.89207  0.88324  0.88052  1.0000
  C   C5        1.0  0.9344100000000001  0.7709  0.8689099999999997  1.0000
  C   C6        1.0  0.8211699999999998  0.03723  0.9869599999999998  1.0000
  C   C7        1.0  0.7742800000000001  0.12040999999999999  0.9201199999999998  1.0000
  C   C8        1.0  0.80702  0.18346  0.09765  1.0000
  C   C9        1.0  0.8152  0.19148999999999994  0.19676999999999997  1.0000
  C   C10       1.0  0.9621899999999999  0.1791  0.30656  1.0000
  C   C11       1.0  0.8818700000000002  0.22990999999999998  0.3736099999999999  1.0000
  C   C12       1.0  0.08152  0.14964  0.32972  1.0000
  C   C13       1.0  0.16976  0.15498  0.2659299999999999  1.0000
  C   C14       1.0  0.28039  0.11430999999999998  0.2832599999999999  1.0000
  C   C15       1.0  0.22927  0.06751  0.4235699999999999  1.0000
  C   C16       1.0  0.11663000000000001  0.10801  0.41206  1.0000
  C   C17       1.0  0.11059  0.2813  0.00941  1.0000
  C   C18       1.0  0.15329  0.17111  0.02668999999999999  1.0000
  C   C19       1.0  0.14953  0.08209  0.96296  1.0000
  C   C20       1.0  0.10779  0.11671  0.88049  1.0000
  C   C21       1.0  0.06556  0.22911999999999996  0.8688999999999998  1.0000
  C   C22       1.0  0.17885  0.9627  0.9869499999999998  1.0000
  C   C23       1.0  0.2257  0.8795299999999998  0.9201099999999998  1.0000
  C   C24       1.0  0.19306  0.8165099999999998  0.09768  1.0000
  C   C25       1.0  0.18481999999999998  0.8084499999999999  0.19678  1.0000
  C   C26       1.0  0.03781  0.82093  0.30656  1.0000
  C   C27       1.0  0.11813  0.7700999999999999  0.3736099999999999  1.0000
  C   C28       1.0  0.91849  0.8504  0.32972  1.0000
  C   C29       1.0  0.8302199999999998  0.84503  0.2659299999999999  1.0000
  C   C30       1.0  0.7196  0.88559  0.2832699999999999  1.0000
  C   C31       1.0  0.7707299999999999  0.93255  0.42352  1.0000
  C   C32       1.0  0.88334  0.89212  0.41203  1.0000
  C   C33       1.0  0.38965  0.78163  0.50926  1.0000
  C   C34       1.0  0.34669  0.67154  0.5266799999999998  1.0000
  C   C35       1.0  0.35057000000000005  0.58231  0.46316  1.0000
  C   C36       1.0  0.39205  0.61675  0.3805899999999999  1.0000
  C   C37       1.0  0.43445999999999996  0.72908  0.36881  1.0000
  C   C38       1.0  0.32103  0.46298  0.4871499999999999  1.0000
  C   C39       1.0  0.27429  0.3797  0.42034  1.0000
  C   C40       1.0  0.30688  0.31664  0.59783  1.0000
  C   C41       1.0  0.31545  0.30837  0.6969  1.0000
  C   C42       1.0  0.4624500000000001  0.32101  0.80666  1.0000
  C   C43       1.0  0.3820299999999999  0.27023  0.8736999999999998  1.0000
  C   C44       1.0  0.58173  0.35056  0.82985  1.0000
  C   C45       1.0  0.6701  0.34521  0.7661199999999998  1.0000
  C   C46       1.0  0.78067  0.38577  0.7835699999999998  1.0000
  C   C47       1.0  0.72932  0.43277  0.92379  1.0000
  C   C48       1.0  0.61675  0.39227  0.9121899999999997  1.0000
  C   C49       1.0  0.61044  0.21834999999999993  0.5093599999999998  1.0000
  C   C50       1.0  0.65338  0.32848  0.5267199999999997  1.0000
  C   C51       1.0  0.64945  0.41772  0.4631899999999999  1.0000
  C   C52       1.0  0.60779  0.38329  0.38066  1.0000
  C   C53       1.0  0.56545  0.27092  0.36893  1.0000
  C   C54       1.0  0.67903  0.53703  0.4872  1.0000
  C   C55       1.0  0.72574  0.62035  0.4203899999999999  1.0000
  C   C56       1.0  0.69309  0.68339  0.59782  1.0000
  C   C57       1.0  0.68452  0.69162  0.6968699999999999  1.0000
  C   C58       1.0  0.53759  0.67897  0.80664  1.0000
  C   C59       1.0  0.61803  0.7297499999999999  0.87367  1.0000
  C   C60       1.0  0.41833  0.6493099999999999  0.82986  1.0000
  C   C61       1.0  0.33002  0.65487  0.7661199999999998  1.0000
  C   C62       1.0  0.21938999999999997  0.61434  0.7835299999999997  1.0000
  C   C63       1.0  0.27058  0.56722  0.92376  1.0000
  C   C64       1.0  0.38323  0.60762  0.9122099999999997  1.0000
  N   N1        1.0  0.93737  0.68804  0.93204  1.0000
  N   N2        1.0  0.83821  0.06668  0.06862999999999997  1.0000
  N   N3        1.0  0.93155  0.1603  0.22550999999999993  1.0000
  N   N4        1.0  0.31184  0.06738  0.36070999999999986  1.0000
  N   N5        1.0  0.06259  0.3119  0.93208  1.0000
  N   N6        1.0  0.16194  0.9333399999999997  0.06866  1.0000
  N   N7        1.0  0.06844  0.8396699999999999  0.2255  1.0000
  N   N8        1.0  0.68814  0.9326199999999999  0.36068  1.0000
  N   N9        1.0  0.43738  0.81207  0.4318  1.0000
  N   N10       1.0  0.33784  0.43355999999999995  0.5688699999999999  1.0000
  N   N11       1.0  0.43187000000000003  0.33957  0.72555  1.0000
  N   N12       1.0  0.81199  0.4328699999999999  0.86101  1.0000
  N   N13       1.0  0.56259  0.18792  0.43195  1.0000
  N   N14       1.0  0.66224  0.56642  0.56892  1.0000
  N   N15       1.0  0.56811  0.66043  0.7255199999999999  1.0000
  N   N16       1.0  0.18795999999999996  0.56729  0.86097  1.0000
