data_image0
_chemical_formula_structural       Zn4H60C80N8O18
_chemical_formula_sum              "Zn4 H60 C80 N8 O18"
_cell_length_a       12.4138
_cell_length_b       13.78572
_cell_length_c       13.789450000000002
_cell_angle_alpha    83.15941
_cell_angle_beta     80.21349
_cell_angle_gamma    80.2619

_symmetry_space_group_name_H-M    'P 1'
_symmetry_Int_Tables_number       1

loop_
  _symmetry_equiv_pos_as_xyz
  'x,y,z'

loop_
  _atom_site_type_symbol
  _atom_site_label
  _atom_site_symmetry_multiplicity
  _atom_site_fract_x
  _atom_site_fract_y
  _atom_site_fract_z
  _atom_site_occupancy
  Zn  Zn1       1.0  0.8981800000000001  0.7703  0.8260799999999998  1.0000
  Zn  Zn2       1.0  0.60228  0.17418  0.22864  1.0000
  Zn  Zn3       1.0  0.10184  0.22969  0.17391999999999994  1.0000
  Zn  Zn4       1.0  0.39773000000000003  0.82581  0.77135  1.0000
  H   H1        1.0  0.9594100000000001  0.64938  0.15504  1.0000
  H   H2        1.0  0.053239999999999996  0.6643300000000001  0.2987599999999999  1.0000
  H   H3        1.0  0.32924000000000003  0.75667  0.09654  1.0000
  H   H4        1.0  0.12198000000000002  0.65544  0.7870199999999998  1.0000
  H   H5        1.0  0.23897999999999997  0.5607  0.65719  1.0000
  H   H6        1.0  0.9872700000000001  0.65964  0.47114  1.0000
  H   H7        1.0  0.87638  0.75  0.61258  1.0000
  H   H8        1.0  0.16133000000000006  0.56552  0.40094999999999986  1.0000
  H   H9        1.0  0.16087000000000007  0.46308  0.4894399999999999  1.0000
  H   H10       1.0  0.65165  0.81506  0.89765  1.0000
  H   H11       1.0  0.49495  0.72022  0.9456499999999998  1.0000
  H   H12       1.0  0.72434  0.4566099999999999  0.8741499999999998  1.0000
  H   H13       1.0  0.87432  0.5605700000000001  0.8397799999999997  1.0000
  H   H14       1.0  0.5218400000000001  0.4522499999999999  0.9019999999999998  1.0000
  H   H15       1.0  0.42525000000000013  0.5594999999999999  0.9282899999999997  1.0000
  H   H16       1.0  0.53939  0.84567  0.3486499999999999  1.0000
  H   H17       1.0  0.44479  0.70225  0.33501  1.0000
  H   H18       1.0  0.16904999999999998  0.90468  0.24268999999999993  1.0000
  H   H19       1.0  0.37823  0.21271999999999996  0.34476999999999997  1.0000
  H   H20       1.0  0.2609600000000001  0.34239999999999987  0.43922  1.0000
  H   H21       1.0  0.51257  0.52882  0.34035  1.0000
  H   H22       1.0  0.6234  0.3877199999999999  0.24934  1.0000
  H   H23       1.0  0.33846000000000004  0.5988199999999999  0.43442999999999987  1.0000
  H   H24       1.0  0.33859999999999996  0.51014  0.5367699999999999  1.0000
  H   H25       1.0  0.84764  0.10253999999999999  0.18506  1.0000
  H   H26       1.0  0.004580000000000002  0.05485  0.27952  1.0000
  H   H27       1.0  0.77531  0.12564  0.54361  1.0000
  H   H28       1.0  0.6251899999999998  0.16001000000000004  0.43978999999999996  1.0000
  H   H29       1.0  0.9781200000000001  0.0982  0.54742  1.0000
  H   H30       1.0  0.07448999999999999  0.07175  0.44002  1.0000
  H   H31       1.0  0.04059999999999999  0.35062000000000004  0.84495  1.0000
  H   H32       1.0  0.94678  0.3356699999999999  0.70124  1.0000
  H   H33       1.0  0.67077  0.24332999999999996  0.9034599999999998  1.0000
  H   H34       1.0  0.87803  0.34456  0.21297999999999997  1.0000
  H   H35       1.0  0.76103  0.4393  0.34281  1.0000
  H   H36       1.0  0.01274000000000005  0.34036  0.5288499999999999  1.0000
  H   H37       1.0  0.12363  0.25  0.38742  1.0000
  H   H38       1.0  0.83868  0.43448  0.5990499999999997  1.0000
  H   H39       1.0  0.8391400000000001  0.53692  0.51056  1.0000
  H   H40       1.0  0.34836  0.18493  0.10235  1.0000
  H   H41       1.0  0.50506  0.27978  0.05435  1.0000
  H   H42       1.0  0.2756700000000001  0.54339  0.12584  1.0000
  H   H43       1.0  0.12569000000000008  0.4394299999999999  0.16020999999999996  1.0000
  H   H44       1.0  0.47817  0.54775  0.098  1.0000
  H   H45       1.0  0.57477  0.4405  0.07171  1.0000
  H   H46       1.0  0.46062  0.15433000000000002  0.6513499999999999  1.0000
  H   H47       1.0  0.55523  0.29775  0.66498  1.0000
  H   H48       1.0  0.83096  0.09532  0.7572999999999998  1.0000
  H   H49       1.0  0.62179  0.78728  0.6552299999999998  1.0000
  H   H50       1.0  0.7390500000000002  0.65759  0.56078  1.0000
  H   H51       1.0  0.48745000000000005  0.47118  0.6596499999999997  1.0000
  H   H52       1.0  0.37661000000000017  0.6122699999999998  0.7506499999999998  1.0000
  H   H53       1.0  0.66155  0.40118  0.56556  1.0000
  H   H54       1.0  0.66141  0.4898600000000001  0.46322  1.0000
  H   H55       1.0  0.15237000000000006  0.8974599999999998  0.8149299999999998  1.0000
  H   H56       1.0  0.9954300000000003  0.9451499999999997  0.72047  1.0000
  H   H57       1.0  0.22470000000000004  0.8743599999999999  0.4563899999999999  1.0000
  H   H58       1.0  0.3748200000000001  0.83999  0.56021  1.0000
  H   H59       1.0  0.021890000000000014  0.9017999999999999  0.45257999999999987  1.0000
  H   H60       1.0  0.92552  0.92825  0.5599799999999999  1.0000
  C   C1        1.0  0.19603999999999994  0.72451  0.029199999999999993  1.0000
  C   C2        1.0  0.09019000000000002  0.69582  0.046  1.0000
  C   C3        1.0  0.040560000000000006  0.67255  0.14311999999999997  1.0000
  C   C4        1.0  0.09259  0.6807500000000001  0.22328999999999996  1.0000
  C   C5        1.0  0.19595  0.7120300000000002  0.20572999999999994  1.0000
  C   C6        1.0  0.24789000000000003  0.7338699999999999  0.10943999999999997  1.0000
  C   C7        1.0  0.25992000000000004  0.73538  0.9263799999999998  1.0000
  C   C8        1.0  0.02334000000000001  0.6964  0.9645599999999999  1.0000
  C   C9        1.0  0.09348999999999999  0.65325  0.71686  1.0000
  C   C10       1.0  0.15922999999999998  0.60061  0.64257  1.0000
  C   C11       1.0  0.12264000000000004  0.5991899999999999  0.5521899999999998  1.0000
  C   C12       1.0  0.019360000000000016  0.6551100000000001  0.5405799999999998  1.0000
  C   C13       1.0  0.9569500000000002  0.7054999999999998  0.6179099999999997  1.0000
  C   C14       1.0  0.18671  0.53659  0.4726299999999999  1.0000
  C   C15       1.0  0.6648800000000002  0.7352199999999998  0.89568  1.0000
  C   C16       1.0  0.57742  0.68138  0.9216299999999997  1.0000
  C   C17       1.0  0.59601  0.5793  0.9136999999999998  1.0000
  C   C18       1.0  0.70446  0.5356  0.88127  1.0000
  C   C19       1.0  0.78855  0.59318  0.8599899999999998  1.0000
  C   C20       1.0  0.5048300000000003  0.5175  0.9439799999999999  1.0000
  C   C21       1.0  0.30238000000000004  0.97201  0.27455999999999997  1.0000
  C   C22       1.0  0.4084799999999999  0.9552  0.3026099999999999  1.0000
  C   C23       1.0  0.45798000000000016  0.8580499999999999  0.32601  1.0000
  C   C24       1.0  0.40546  0.77781  0.31877999999999995  1.0000
  C   C25       1.0  0.30176  0.79535  0.28819  1.0000
  C   C26       1.0  0.25016000000000016  0.8916499999999998  0.26591999999999993  1.0000
  C   C27       1.0  0.23916  0.07497  0.26246  1.0000
  C   C28       1.0  0.4745  0.037340000000000005  0.3023299999999999  1.0000
  C   C29       1.0  0.40658000000000005  0.28297999999999995  0.34654  1.0000
  C   C30       1.0  0.34068  0.35719  0.39918999999999993  1.0000
  C   C31       1.0  0.37715000000000004  0.44763  0.4005999999999999  1.0000
  C   C32       1.0  0.4805  0.45934  0.3447  1.0000
  C   C33       1.0  0.54298  0.3821299999999999  0.29412  1.0000
  C   C34       1.0  0.31295  0.52712  0.46324  1.0000
  C   C35       1.0  0.83459  0.1043  0.26493  1.0000
  C   C36       1.0  0.92212  0.07846  0.31862  1.0000
  C   C37       1.0  0.9036200000000001  0.08614  0.42074  1.0000
  C   C38       1.0  0.79515  0.11844  0.46463  1.0000
  C   C39       1.0  0.71097  0.13976  0.40718  1.0000
  C   C40       1.0  0.99501  0.056  0.4823199999999999  1.0000
  C   C41       1.0  0.8039700000000001  0.27548  0.9707999999999998  1.0000
  C   C42       1.0  0.90983  0.30418  0.9539899999999999  1.0000
  C   C43       1.0  0.9594600000000002  0.32745  0.8568799999999999  1.0000
  C   C44       1.0  0.90743  0.31925  0.7767  1.0000
  C   C45       1.0  0.80407  0.28797  0.7942699999999999  1.0000
  C   C46       1.0  0.75212  0.2661199999999999  0.89055  1.0000
  C   C47       1.0  0.7401  0.26462  0.07361999999999999  1.0000
  C   C48       1.0  0.97667  0.3036  0.03543999999999999  1.0000
  C   C49       1.0  0.90652  0.34675  0.28314  1.0000
  C   C50       1.0  0.84079  0.39938  0.35743  1.0000
  C   C51       1.0  0.8773700000000001  0.4008  0.4478  1.0000
  C   C52       1.0  0.98065  0.34488  0.4594199999999999  1.0000
  C   C53       1.0  0.04306000000000001  0.29448999999999986  0.38209  1.0000
  C   C54       1.0  0.8132999999999998  0.46341  0.52737  1.0000
  C   C55       1.0  0.33513000000000004  0.26478  0.10432  1.0000
  C   C56       1.0  0.42259  0.3186199999999999  0.07837  1.0000
  C   C57       1.0  0.4040000000000001  0.4207  0.0863  1.0000
  C   C58       1.0  0.29555000000000003  0.4644  0.11872  1.0000
  C   C59       1.0  0.21146  0.40682  0.14000999999999997  1.0000
  C   C60       1.0  0.4951800000000001  0.48248999999999986  0.05601  1.0000
  C   C61       1.0  0.69763  0.027980000000000012  0.7254399999999998  1.0000
  C   C62       1.0  0.5915299999999999  0.044800000000000006  0.6973899999999998  1.0000
  C   C63       1.0  0.54203  0.14194999999999994  0.67399  1.0000
  C   C64       1.0  0.59455  0.22217999999999996  0.68122  1.0000
  C   C65       1.0  0.69826  0.20465  0.71181  1.0000
  C   C66       1.0  0.7498600000000001  0.10835000000000003  0.7340799999999997  1.0000
  C   C67       1.0  0.7608500000000001  0.9250199999999998  0.73754  1.0000
  C   C68       1.0  0.52551  0.96266  0.69767  1.0000
  C   C69       1.0  0.59344  0.71702  0.65345  1.0000
  C   C70       1.0  0.65933  0.64281  0.60081  1.0000
  C   C71       1.0  0.62286  0.5523599999999997  0.5993899999999999  1.0000
  C   C72       1.0  0.51951  0.5406599999999998  0.6553  1.0000
  C   C73       1.0  0.45703999999999995  0.61787  0.70587  1.0000
  C   C74       1.0  0.68706  0.4728800000000001  0.53676  1.0000
  C   C75       1.0  0.16542  0.89569  0.73507  1.0000
  C   C76       1.0  0.07790000000000004  0.92153  0.68138  1.0000
  C   C77       1.0  0.09640000000000004  0.91386  0.5792599999999999  1.0000
  C   C78       1.0  0.20486  0.88156  0.53536  1.0000
  C   C79       1.0  0.2890399999999999  0.86023  0.59282  1.0000
  C   C80       1.0  0.005000000000000048  0.9439899999999999  0.51768  1.0000
  N   N1        1.0  0.99284  0.70404  0.7053199999999998  1.0000
  N   N2        1.0  0.7693300000000001  0.69183  0.8660099999999997  1.0000
  N   N3        1.0  0.50722  0.29458  0.29555999999999993  1.0000
  N   N4        1.0  0.73012  0.13378  0.30849999999999994  1.0000
  N   N5        1.0  0.007170000000000011  0.29596  0.29467  1.0000
  N   N6        1.0  0.23069  0.30816  0.13399  1.0000
  N   N7        1.0  0.4928000000000001  0.70542  0.7044299999999999  1.0000
  N   N8        1.0  0.26989  0.86622  0.6914899999999998  1.0000
  O   O1        1.0  0.32243  0.8039999999999999  0.9098599999999999  1.0000
  O   O2        1.0  0.25360999999999995  0.67606  0.86615  1.0000
  O   O3        1.0  0.010080000000000058  0.78034  0.9095599999999998  1.0000
  O   O4        1.0  0.9795900000000001  0.62338  0.95686  1.0000
  O   O5        1.0  0.17455999999999997  0.09001999999999999  0.19561  1.0000
  O   O6        1.0  0.24812  0.1374  0.31863  1.0000
  O   O7        1.0  0.49749  0.08536999999999999  0.21559999999999996  1.0000
  O   O8        1.0  0.50765  0.05215  0.3787099999999999  1.0000
  O   O9        1.0  0.67758  0.196  0.09013999999999997  1.0000
  O   O10       1.0  0.7464000000000001  0.32394  0.13384999999999997  1.0000
  O   O11       1.0  0.98993  0.21966  0.09044  1.0000
  O   O12       1.0  0.02042  0.37662  0.043139999999999984  1.0000
  O   O13       1.0  0.82545  0.90998  0.80439  1.0000
  O   O14       1.0  0.7518900000000002  0.86259  0.68136  1.0000
  O   O15       1.0  0.5025200000000002  0.9146299999999998  0.7843999999999998  1.0000
  O   O16       1.0  0.49236  0.94785  0.62129  1.0000
  O   O17       1.0  0.24880000000000005  0.71395  0.28689999999999993  1.0000
  O   O18       1.0  0.7512200000000001  0.2860499999999999  0.7131  1.0000
