data_image0
_chemical_formula_structural       Cd4H64C92N8O20
_chemical_formula_sum              "Cd4 H64 C92 N8 O20"
_cell_length_a       15.85881
_cell_length_b       17.070759999999996
_cell_length_c       16.85913
_cell_angle_alpha    120.19092
_cell_angle_beta     106.74657
_cell_angle_gamma    89.92749

_symmetry_space_group_name_H-M    'P 1'
_symmetry_Int_Tables_number       1

loop_
  _symmetry_equiv_pos_as_xyz
  'x,y,z'

loop_
  _atom_site_type_symbol
  _atom_site_label
  _atom_site_symmetry_multiplicity
  _atom_site_fract_x
  _atom_site_fract_y
  _atom_site_fract_z
  _atom_site_occupancy
  Cd  Cd1       1.0  0.12569000000000005  0.47356999999999994  0.50664  1.0000
  Cd  Cd2       1.0  0.3742600000000001  0.96749  0.49423999999999996  1.0000
  Cd  Cd3       1.0  0.87429  0.52642  0.49335  1.0000
  Cd  Cd4       1.0  0.62573  0.03251000000000002  0.50575  1.0000
  H   H1        1.0  0.06458  0.49968000000000007  0.3239999999999999  1.0000
  H   H2        1.0  0.7036000000000002  9.999999999890866e-06  0.6817499999999997  1.0000
  H   H3        1.0  0.79821  0.08040999999999997  0.8570099999999999  1.0000
  H   H4        1.0  0.6847  0.24482999999999996  0.68905  1.0000
  H   H5        1.0  0.024369999999999975  0.2677599999999999  0.3373699999999999  1.0000
  H   H6        1.0  0.7784900000000003  0.33697  0.86535  1.0000
  H   H7        1.0  0.9732600000000002  0.41894  0.14894  1.0000
  H   H8        1.0  0.9296  0.17578  0.16101  1.0000
  H   H9        1.0  0.86669  0.16304999999999994  0.00808  1.0000
  H   H10       1.0  0.29989  0.22991999999999993  0.4949099999999999  1.0000
  H   H11       1.0  0.4337800000000001  0.4639899999999999  0.5196899999999999  1.0000
  H   H12       1.0  0.71105  0.4236399999999999  0.52467  1.0000
  H   H13       1.0  0.66503  0.31138999999999994  0.49159999999999987  1.0000
  H   H14       1.0  0.58088  0.25473999999999986  0.5350199999999998  1.0000
  H   H15       1.0  0.8003199999999999  0.4457099999999999  0.7968499999999997  1.0000
  H   H16       1.0  0.8688300000000002  0.34417  0.0104  1.0000
  H   H17       1.0  0.4350900000000001  0.17638999999999996  0.67632  1.0000
  H   H18       1.0  0.7988700000000002  0.31889  0.31931  1.0000
  H   H19       1.0  0.7052600000000002  0.22386  0.14412  1.0000
  H   H20       1.0  0.8151  0.55538  0.30976  1.0000
  H   H21       1.0  0.47717  0.93193  0.66423  1.0000
  H   H22       1.0  0.72171  0.47095999999999993  0.13309  1.0000
  H   H23       1.0  0.52788  0.2701100000000001  0.85072  1.0000
  H   H24       1.0  0.57368  0.015579999999999896  0.8398999999999998  1.0000
  H   H25       1.0  0.6365700000000001  0.15524999999999992  0.9924999999999998  1.0000
  H   H26       1.0  0.20119  0.7365299999999998  0.50687  1.0000
  H   H27       1.0  0.06569999999999997  0.9447299999999998  0.48010999999999987  1.0000
  H   H28       1.0  0.7885000000000002  0.8980099999999999  0.4756199999999999  1.0000
  H   H29       1.0  0.83642  0.81901  0.50835  1.0000
  H   H30       1.0  0.91979  0.7199499999999999  0.46472999999999987  1.0000
  H   H31       1.0  0.70243  0.6496099999999998  0.20293  1.0000
  H   H32       1.0  0.6325400000000002  0.33328999999999986  0.9886999999999998  1.0000
  H   H33       1.0  0.9354099999999999  0.5003199999999999  0.6759999999999999  1.0000
  H   H34       1.0  0.29640000000000005  0.9999899999999998  0.31824999999999987  1.0000
  H   H35       1.0  0.20179  0.9195899999999998  0.14299  1.0000
  H   H36       1.0  0.3153  0.75516  0.31093999999999994  1.0000
  H   H37       1.0  0.97562  0.73224  0.66262  1.0000
  H   H38       1.0  0.22151  0.66303  0.13464  1.0000
  H   H39       1.0  0.02674000000000005  0.58107  0.85106  1.0000
  H   H40       1.0  0.07039000000000006  0.82422  0.83899  1.0000
  H   H41       1.0  0.13329999999999997  0.8369499999999999  0.9919099999999997  1.0000
  H   H42       1.0  0.7001  0.7700799999999998  0.50509  1.0000
  H   H43       1.0  0.56619  0.5359999999999999  0.4802899999999999  1.0000
  H   H44       1.0  0.2889399999999999  0.5763699999999999  0.4753199999999999  1.0000
  H   H45       1.0  0.3349700000000001  0.68861  0.50839  1.0000
  H   H46       1.0  0.41912  0.7452700000000001  0.46498  1.0000
  H   H47       1.0  0.19966  0.5543  0.20315  1.0000
  H   H48       1.0  0.13115999999999994  0.6558299999999999  0.9895999999999998  1.0000
  H   H49       1.0  0.5649100000000002  0.8235999999999999  0.3236799999999999  1.0000
  H   H50       1.0  0.20112999999999998  0.68111  0.6806899999999998  1.0000
  H   H51       1.0  0.29473  0.77614  0.85588  1.0000
  H   H52       1.0  0.18489000000000003  0.44461999999999996  0.6902299999999999  1.0000
  H   H53       1.0  0.5228300000000002  0.06806999999999998  0.33576999999999996  1.0000
  H   H54       1.0  0.27828  0.52904  0.8669  1.0000
  H   H55       1.0  0.47212  0.72989  0.14928  1.0000
  H   H56       1.0  0.42631000000000013  0.9844099999999999  0.1601  1.0000
  H   H57       1.0  0.3634300000000001  0.84474  0.00749  1.0000
  H   H58       1.0  0.7988  0.2634699999999999  0.4931299999999999  1.0000
  H   H59       1.0  0.9342900000000002  0.055260000000000045  0.51988  1.0000
  H   H60       1.0  0.21149  0.10199000000000005  0.52438  1.0000
  H   H61       1.0  0.16358  0.18099999999999994  0.49165  1.0000
  H   H62       1.0  0.08019999999999997  0.28006  0.53528  1.0000
  H   H63       1.0  0.29756  0.35039  0.79707  1.0000
  H   H64       1.0  0.36745  0.6667  0.011289999999999998  1.0000
  C   C1        1.0  0.032589999999999994  0.42813999999999997  0.28520999999999996  1.0000
  C   C2        1.0  0.7214800000000001  0.07478999999999986  0.7264099999999998  1.0000
  C   C3        1.0  0.7966399999999999  0.21700999999999993  0.8776099999999999  1.0000
  C   C4        1.0  0.77405  0.12036999999999992  0.8238899999999998  1.0000
  C   C5        1.0  0.71042  0.21164999999999995  0.7298199999999998  1.0000
  C   C6        1.0  0.010269999999999986  0.29824999999999996  0.29259999999999997  1.0000
  C   C7        1.0  0.76292  0.2622999999999999  0.8277699999999999  1.0000
  C   C8        1.0  0.9812900000000002  0.38239  0.18733  1.0000
  C   C9        1.0  0.9581500000000002  0.24763  0.1947  1.0000
  C   C10       1.0  0.8848800000000002  0.23634  0.0375  1.0000
  C   C11       1.0  0.94132  0.2896599999999999  0.13939  1.0000
  C   C12       1.0  0.7217399999999999  0.40683999999999987  0.6421599999999997  1.0000
  C   C13       1.0  0.2737199999999999  0.39017999999999997  0.5025999999999998  1.0000
  C   C14       1.0  0.35849000000000003  0.3510599999999999  0.5074199999999999  1.0000
  C   C15       1.0  0.36032  0.26722  0.50348  1.0000
  C   C16       1.0  0.43613999999999997  0.39957999999999994  0.5183499999999999  1.0000
  C   C17       1.0  0.51646  0.36486999999999997  0.52723  1.0000
  C   C18       1.0  0.44284000000000007  0.14475999999999997  0.5112399999999999  1.0000
  C   C19       1.0  0.67339  0.38574  0.5440999999999999  1.0000
  C   C20       1.0  0.5194400000000002  0.2825199999999998  0.5262599999999997  1.0000
  C   C21       1.0  0.76357  0.42696999999999996  0.72436  1.0000
  C   C22       1.0  0.85294  0.27035999999999993  0.97961  1.0000
  C   C23       1.0  0.4404400000000001  0.23333  0.51309  1.0000
  C   C24       1.0  0.4678200000000001  0.14363999999999993  0.71521  1.0000
  C   C25       1.0  0.7808700000000002  0.3487  0.27402999999999994  1.0000
  C   C26       1.0  0.7053800000000002  0.33923  0.12205  1.0000
  C   C27       1.0  0.72863  0.29669  0.17652  1.0000
  C   C28       1.0  0.7903600000000001  0.48156  0.26928  1.0000
  C   C29       1.0  0.4912400000000002  0.006860000000000003  0.70858  1.0000
  C   C30       1.0  0.73804  0.43413  0.17124  1.0000
  C   C31       1.0  0.51998  0.19544999999999996  0.81278  1.0000
  C   C32       1.0  0.5443100000000002  0.05377999999999996  0.8061599999999999  1.0000
  C   C33       1.0  0.61779  0.19898  0.96271  1.0000
  C   C34       1.0  0.5608899999999999  0.15070999999999987  0.8609599999999997  1.0000
  C   C35       1.0  0.77918  0.7650499999999999  0.35789  1.0000
  C   C36       1.0  0.22663999999999998  0.8893099999999999  0.4993199999999999  1.0000
  C   C37       1.0  0.14191  0.8448800000000001  0.49386  1.0000
  C   C38       1.0  0.14043000000000003  0.7648899999999998  0.4977499999999999  1.0000
  C   C39       1.0  0.06385999999999997  0.88203  0.4821699999999999  1.0000
  C   C40       1.0  0.98369  0.83831  0.47312999999999994  1.0000
  C   C41       1.0  0.057910000000000024  0.63402  0.48888  1.0000
  C   C42       1.0  0.8270100000000002  0.8414699999999999  0.4559999999999999  1.0000
  C   C43       1.0  0.98113  0.75687  0.4740499999999999  1.0000
  C   C44       1.0  0.73821  0.70302  0.2756799999999999  1.0000
  C   C45       1.0  0.6491700000000002  0.29055  0.02003  1.0000
  C   C46       1.0  0.06033999999999997  0.72096  0.48746  1.0000
  C   C47       1.0  0.9674000000000003  0.57186  0.71478  1.0000
  C   C48       1.0  0.27852  0.9251999999999998  0.27359  1.0000
  C   C49       1.0  0.20336  0.78299  0.12238999999999997  1.0000
  C   C50       1.0  0.22594000000000006  0.87963  0.17610999999999993  1.0000
  C   C51       1.0  0.28958  0.78835  0.27017  1.0000
  C   C52       1.0  0.9897199999999999  0.7017499999999998  0.7074  1.0000
  C   C53       1.0  0.23707  0.7377  0.17222  1.0000
  C   C54       1.0  0.018700000000000005  0.61761  0.81266  1.0000
  C   C55       1.0  0.041839999999999954  0.7523699999999998  0.8052999999999998  1.0000
  C   C56       1.0  0.11511999999999996  0.7636699999999997  0.9624899999999997  1.0000
  C   C57       1.0  0.05868000000000005  0.71035  0.8606  1.0000
  C   C58       1.0  0.2782500000000001  0.59316  0.35783  1.0000
  C   C59       1.0  0.72626  0.6097999999999999  0.4973799999999999  1.0000
  C   C60       1.0  0.64148  0.64893  0.49255  1.0000
  C   C61       1.0  0.6396600000000002  0.73277  0.49651  1.0000
  C   C62       1.0  0.56383  0.6004099999999999  0.4816399999999999  1.0000
  C   C63       1.0  0.4835300000000001  0.63514  0.47278  1.0000
  C   C64       1.0  0.55716  0.85524  0.4887499999999999  1.0000
  C   C65       1.0  0.32660999999999996  0.61426  0.4558899999999999  1.0000
  C   C66       1.0  0.4805499999999999  0.71749  0.4737499999999999  1.0000
  C   C67       1.0  0.2364  0.57305  0.27565  1.0000
  C   C68       1.0  0.14705  0.72965  0.020379999999999992  1.0000
  C   C69       1.0  0.5595500000000002  0.7666699999999999  0.4868999999999999  1.0000
  C   C70       1.0  0.5321800000000001  0.85635  0.28478  1.0000
  C   C71       1.0  0.21913000000000005  0.6513  0.72597  1.0000
  C   C72       1.0  0.2946199999999999  0.6607599999999999  0.8779499999999998  1.0000
  C   C73       1.0  0.2713700000000001  0.7033  0.8234799999999999  1.0000
  C   C74       1.0  0.20964000000000002  0.51844  0.7307199999999999  1.0000
  C   C75       1.0  0.50876  0.9931299999999998  0.29142  1.0000
  C   C76       1.0  0.2619500000000001  0.56586  0.82875  1.0000
  C   C77       1.0  0.48001000000000005  0.80454  0.18721  1.0000
  C   C78       1.0  0.45568999999999993  0.94621  0.19382999999999997  1.0000
  C   C79       1.0  0.38221  0.80101  0.03729  1.0000
  C   C80       1.0  0.43911000000000006  0.84929  0.13903999999999997  1.0000
  C   C81       1.0  0.22080999999999992  0.23494999999999988  0.6421099999999997  1.0000
  C   C82       1.0  0.77336  0.11068  0.50067  1.0000
  C   C83       1.0  0.8580900000000002  0.15510999999999997  0.50614  1.0000
  C   C84       1.0  0.85956  0.23511  0.50225  1.0000
  C   C85       1.0  0.93613  0.11796999999999995  0.51783  1.0000
  C   C86       1.0  0.01630000000000005  0.16169  0.52687  1.0000
  C   C87       1.0  0.94208  0.36597999999999997  0.5111199999999999  1.0000
  C   C88       1.0  0.17298000000000005  0.15852999999999998  0.544  1.0000
  C   C89       1.0  0.018860000000000002  0.24312999999999999  0.52595  1.0000
  C   C90       1.0  0.26179  0.29698  0.72431  1.0000
  C   C91       1.0  0.3508299999999999  0.7094399999999997  0.9799599999999999  1.0000
  C   C92       1.0  0.9396500000000002  0.2790399999999999  0.5125399999999999  1.0000
  N   N1        1.0  0.046440000000000016  0.38748  0.33772  1.0000
  N   N2        1.0  0.6899199999999999  0.11919999999999994  0.6796199999999998  1.0000
  N   N3        1.0  0.4540300000000001  0.050839999999999996  0.66323  1.0000
  N   N4        1.0  0.81162  0.43958999999999987  0.3201299999999999  1.0000
  N   N5        1.0  0.95355  0.6125199999999997  0.66227  1.0000
  N   N6        1.0  0.31008  0.8808  0.3203699999999999  1.0000
  N   N7        1.0  0.54596  0.94915  0.33676  1.0000
  N   N8        1.0  0.18837000000000004  0.56041  0.6798699999999999  1.0000
  O   O1        1.0  0.27485999999999994  0.4673099999999999  0.5071899999999999  1.0000
  O   O2        1.0  0.36742000000000014  0.09544  0.48397  1.0000
  O   O3        1.0  0.20401999999999998  0.34661  0.4961299999999999  1.0000
  O   O4        1.0  0.5182999999999999  0.12452  0.5394599999999999  1.0000
  O   O5        1.0  0.5882100000000002  0.41712  0.53566  1.0000
  O   O6        1.0  0.2254  0.9622  0.49537  1.0000
  O   O7        1.0  0.13329  0.6111  0.51507  1.0000
  O   O8        1.0  0.2964200000000001  0.85207  0.5055499999999999  1.0000
  O   O9        1.0  0.9824700000000002  0.5865199999999998  0.4618699999999999  1.0000
  O   O10       1.0  0.9116200000000002  0.8819299999999999  0.46443999999999996  1.0000
  O   O11       1.0  0.72513  0.53267  0.4927999999999999  1.0000
  O   O12       1.0  0.6325700000000002  0.90456  0.51604  1.0000
  O   O13       1.0  0.7959599999999999  0.6533499999999998  0.5038499999999999  1.0000
  O   O14       1.0  0.4817000000000001  0.87548  0.46054  1.0000
  O   O15       1.0  0.4117900000000001  0.58289  0.46435  1.0000
  O   O16       1.0  0.7745900000000002  0.037789999999999914  0.5046199999999998  1.0000
  O   O17       1.0  0.8667000000000002  0.38889999999999986  0.48491999999999996  1.0000
  O   O18       1.0  0.70357  0.14791999999999994  0.4944399999999999  1.0000
  O   O19       1.0  0.01752  0.41348  0.53813  1.0000
  O   O20       1.0  0.08837  0.11806999999999995  0.5355599999999999  1.0000
