data_image0
_chemical_formula_structural       Co4H64C72N8O16
_chemical_formula_sum              "Co4 H64 C72 N8 O16"
_cell_length_a       9.80126
_cell_length_b       13.43819
_cell_length_c       18.75139
_cell_angle_alpha    110.95336
_cell_angle_beta     102.0926
_cell_angle_gamma    89.94907

_symmetry_space_group_name_H-M    'P 1'
_symmetry_Int_Tables_number       1

loop_
  _symmetry_equiv_pos_as_xyz
  'x,y,z'

loop_
  _atom_site_type_symbol
  _atom_site_label
  _atom_site_symmetry_multiplicity
  _atom_site_fract_x
  _atom_site_fract_y
  _atom_site_fract_z
  _atom_site_occupancy
  Co  Co1       1.0  0.84207  0.4051199999999999  0.2876700000000001  1.0000
  Co  Co2       1.0  0.65813  0.11777999999999993  0.71266  1.0000
  Co  Co3       1.0  0.15751  0.59474  0.71258  1.0000
  Co  Co4       1.0  0.34395  0.8816399999999999  0.28757  1.0000
  H   H1        1.0  0.25127  0.46975  0.51427  1.0000
  H   H2        1.0  0.86173  0.32487999999999995  0.48474000000000006  1.0000
  H   H3        1.0  0.9527  0.3246200000000001  0.62339  1.0000
  H   H4        1.0  0.64969  0.22368  0.54736  1.0000
  H   H5        1.0  0.004949999999999998  0.42766  0.43777  1.0000
  H   H6        1.0  0.37206  0.4688  0.30507  1.0000
  H   H7        1.0  0.11864000000000001  0.42885999999999996  0.23756  1.0000
  H   H8        1.0  0.56798  0.20852000000000004  0.40612000000000004  1.0000
  H   H9        1.0  0.54724  0.444  0.42274  1.0000
  H   H10       1.0  0.51559  0.57906  0.4589600000000001  1.0000
  H   H11       1.0  0.8302900000000001  0.37443  0.11378  1.0000
  H   H12       1.0  0.89249  0.19091  0.25367  1.0000
  H   H13       1.0  0.004230000000000002  0.05598999999999999  0.16204  1.0000
  H   H14       1.0  0.93409  0.24107  0.011960000000000004  1.0000
  H   H15       1.0  0.06389  0.08323999999999998  0.97468  1.0000
  H   H16       1.0  0.14846000000000004  0.04049  0.05057  1.0000
  H   H17       1.0  0.24948000000000006  0.95577  0.4859800000000001  1.0000
  H   H18       1.0  0.6374100000000001  0.8409  0.51496  1.0000
  H   H19       1.0  0.54697  0.70076  0.3762  1.0000
  H   H20       1.0  0.85032  0.6773699999999999  0.45274  1.0000
  H   H21       1.0  0.49595000000000006  0.9905799999999998  0.56239  1.0000
  H   H22       1.0  0.1281800000000001  0.16289000000000017  0.6953500000000002  1.0000
  H   H23       1.0  0.38187  0.19101  0.76262  1.0000
  H   H24       1.0  0.9314999999999999  0.8031900000000001  0.5938800000000002  1.0000
  H   H25       1.0  0.95357  0.01984000000000002  0.5772  1.0000
  H   H26       1.0  0.9839800000000001  0.11909000000000007  0.5410900000000002  1.0000
  H   H27       1.0  0.6694300000000001  0.2611300000000001  0.8861100000000002  1.0000
  H   H28       1.0  0.6078400000000002  0.9380799999999999  0.7466400000000001  1.0000
  H   H29       1.0  0.49654  0.8946400000000001  0.8384300000000001  1.0000
  H   H30       1.0  0.5660100000000001  0.22975  0.9882200000000001  1.0000
  H   H31       1.0  0.4365200000000001  0.10914999999999998  0.02564  1.0000
  H   H32       1.0  0.35174000000000005  0.9909299999999999  0.94963  1.0000
  H   H33       1.0  0.74825  0.53069  0.48576  1.0000
  H   H34       1.0  0.13936  0.6755499999999999  0.5153  1.0000
  H   H35       1.0  0.05184999999999997  0.67489  0.37601  1.0000
  H   H36       1.0  0.35378  0.77687  0.45404  1.0000
  H   H37       1.0  0.99445  0.57317  0.56228  1.0000
  H   H38       1.0  0.62761  0.53108  0.69485  1.0000
  H   H39       1.0  0.88083  0.57116  0.7623600000000003  1.0000
  H   H40       1.0  0.4329200000000001  0.7923499999999998  0.59473  1.0000
  H   H41       1.0  0.45225000000000004  0.55643  0.57721  1.0000
  H   H42       1.0  0.48343  0.4213099999999999  0.54103  1.0000
  H   H43       1.0  0.16880000000000006  0.6258  0.88635  1.0000
  H   H44       1.0  0.10685000000000001  0.8094799999999999  0.74658  1.0000
  H   H45       1.0  0.99581  0.9447000000000001  0.8384800000000001  1.0000
  H   H46       1.0  0.06545000000000002  0.75936  0.9883200000000001  1.0000
  H   H47       1.0  0.9360199999999999  0.91729  0.025710000000000007  1.0000
  H   H48       1.0  0.8514700000000001  0.9600599999999998  0.9498200000000001  1.0000
  H   H49       1.0  0.75348  0.04457  0.51396  1.0000
  H   H50       1.0  0.36342  0.15952  0.48489  1.0000
  H   H51       1.0  0.45329  0.29878  0.62318  1.0000
  H   H52       1.0  0.15010999999999997  0.32294  0.54723  1.0000
  H   H53       1.0  0.50702  0.010510000000000009  0.43762  1.0000
  H   H54       1.0  0.87399  0.8372  0.30437000000000003  1.0000
  H   H55       1.0  0.62045  0.8098499999999997  0.23722  1.0000
  H   H56       1.0  0.06859999999999998  0.19601  0.40604  1.0000
  H   H57       1.0  0.04972000000000002  0.9786000000000002  0.42303000000000013  1.0000
  H   H58       1.0  0.017550000000000048  0.87968  0.4590900000000001  1.0000
  H   H59       1.0  0.3316  0.73907  0.11403  1.0000
  H   H60       1.0  0.39261000000000007  0.062020000000000054  0.25369000000000014  1.0000
  H   H61       1.0  0.50312  0.10587  0.1617  1.0000
  H   H62       1.0  0.43426  0.7708799999999999  0.011820000000000004  1.0000
  H   H63       1.0  0.5636900000000001  0.89171  0.9745400000000001  1.0000
  H   H64       1.0  0.6482  0.00993  0.05062  1.0000
  C   C1        1.0  0.22787000000000007  0.4604  0.4528900000000001  1.0000
  C   C2        1.0  0.76475  0.28237  0.48151  1.0000
  C   C3        1.0  0.8498400000000002  0.2869  0.61672  1.0000
  C   C4        1.0  0.7493200000000001  0.26219000000000003  0.5498200000000002  1.0000
  C   C5        1.0  0.08982000000000005  0.43833  0.4113200000000001  1.0000
  C   C6        1.0  0.33328  0.47214  0.41581  1.0000
  C   C7        1.0  0.83137  0.25332  0.68164  1.0000
  C   C8        1.0  0.6838  0.27907000000000004  0.3451200000000001  1.0000
  C   C9        1.0  0.29356  0.4595699999999999  0.33642  1.0000
  C   C10       1.0  0.15304  0.4378799999999999  0.29878  1.0000
  C   C11       1.0  0.66608  0.2531900000000001  0.4135700000000001  1.0000
  C   C12       1.0  0.48396  0.50004  0.4583700000000001  1.0000
  C   C13       1.0  0.86802  0.30161  0.12098  1.0000
  C   C14       1.0  0.90248  0.1992  0.19930000000000006  1.0000
  C   C15       1.0  0.9640700000000001  0.12291999999999999  0.14651  1.0000
  C   C16       1.0  0.9267700000000001  0.22715  0.06484  1.0000
  C   C17       1.0  0.97845  0.13619  0.0775  1.0000
  C   C18       1.0  0.04566  0.054119999999999994  0.0199  1.0000
  C   C19       1.0  0.27283  0.007619999999999986  0.54737  1.0000
  C   C20       1.0  0.7347  0.8018999999999997  0.51853  1.0000
  C   C21       1.0  0.65032  0.67051  0.38346  1.0000
  C   C22       1.0  0.7505000000000001  0.71327  0.4504100000000001  1.0000
  C   C23       1.0  0.41092  0.027399999999999994  0.58885  1.0000
  C   C24       1.0  0.16724  0.05605000000000001  0.58446  1.0000
  C   C25       1.0  0.66935  0.57257  0.31824  1.0000
  C   C26       1.0  0.81653  0.9348500000000001  0.6547000000000002  1.0000
  C   C27       1.0  0.2067600000000001  0.12269000000000017  0.6638700000000002  1.0000
  C   C28       1.0  0.34736  0.13895999999999994  0.7014  1.0000
  C   C29       1.0  0.8334800000000001  0.8405499999999999  0.58639  1.0000
  C   C30       1.0  0.01660000000000003  0.040840000000000015  0.5417  1.0000
  C   C31       1.0  0.6320100000000002  0.18122000000000005  0.8792000000000001  1.0000
  C   C32       1.0  0.59791  0.0005600000000001054  0.8010500000000003  1.0000
  C   C33       1.0  0.5366  0.97704  0.85395  1.0000
  C   C34       1.0  0.5734700000000001  0.16290000000000007  0.9354300000000002  1.0000
  C   C35       1.0  0.5221000000000001  0.05931000000000004  0.9229000000000002  1.0000
  C   C36       1.0  0.45462  0.03481000000000002  0.98043  1.0000
  C   C37       1.0  0.7716300000000001  0.53997  0.54713  1.0000
  C   C38       1.0  0.2366900000000001  0.7182400000000001  0.5191600000000001  1.0000
  C   C39       1.0  0.15497  0.71255  0.38328  1.0000
  C   C40       1.0  0.25389  0.73806  0.45091000000000003  1.0000
  C   C41       1.0  0.9097100000000001  0.56212  0.58871  1.0000
  C   C42       1.0  0.6662000000000001  0.5279800000000001  0.5841200000000002  1.0000
  C   C43       1.0  0.17501  0.74442  0.31788  1.0000
  C   C44       1.0  0.31698  0.72309  0.65634  1.0000
  C   C45       1.0  0.70601  0.5404  0.66347  1.0000
  C   C46       1.0  0.84651  0.5621  0.70113  1.0000
  C   C47       1.0  0.33466  0.7479699999999999  0.58744  1.0000
  C   C48       1.0  0.51543  0.50024  0.5416  1.0000
  C   C49       1.0  0.13131  0.69873  0.87924  1.0000
  C   C50       1.0  0.09705000000000012  0.80122  0.8009700000000002  1.0000
  C   C51       1.0  0.035769999999999975  0.87764  0.85388  1.0000
  C   C52       1.0  0.07283000000000008  0.7732899999999999  0.9354600000000002  1.0000
  C   C53       1.0  0.021349999999999966  0.86433  0.92286  1.0000
  C   C54       1.0  0.9542599999999999  0.94642  0.9805  1.0000
  C   C55       1.0  0.7300100000000002  0.99268  0.4525700000000001  1.0000
  C   C56       1.0  0.26592  0.19836000000000004  0.48144000000000003  1.0000
  C   C57       1.0  0.3501  0.32943  0.61659  1.0000
  C   C58       1.0  0.24994  0.28702  0.54958  1.0000
  C   C59       1.0  0.59192  0.9734599999999998  0.4111  1.0000
  C   C60       1.0  0.83541  0.94376  0.4155  1.0000
  C   C61       1.0  0.33129000000000003  0.42739999999999995  0.68188  1.0000
  C   C62       1.0  0.18372  0.06438  0.34533  1.0000
  C   C63       1.0  0.79565  0.87747  0.336  1.0000
  C   C64       1.0  0.65503  0.86171  0.29848000000000013  1.0000
  C   C65       1.0  0.16697000000000006  0.15906000000000003  0.4136700000000001  1.0000
  C   C66       1.0  0.98592  0.95811  0.45839  1.0000
  C   C67       1.0  0.36868999999999996  0.81906  0.12094  1.0000
  C   C68       1.0  0.40246000000000004  0.9996799999999999  0.19919000000000006  1.0000
  C   C69       1.0  0.46338  0.02341999999999999  0.14625  1.0000
  C   C70       1.0  0.42686  0.8376  0.06467  1.0000
  C   C71       1.0  0.47795000000000004  0.94128  0.07725  1.0000
  C   C72       1.0  0.54538  0.96596  0.01977  1.0000
  N   N1        1.0  0.05131999999999998  0.42772  0.33532  1.0000
  N   N2        1.0  0.8566399999999998  0.28909  0.18807  1.0000
  N   N3        1.0  0.44923  0.09276000000000005  0.66481  1.0000
  N   N4        1.0  0.64347  0.1016100000000001  0.8121900000000002  1.0000
  N   N5        1.0  0.94828  0.5724  0.66466  1.0000
  N   N6        1.0  0.14263  0.7112299999999999  0.81215  1.0000
  N   N7        1.0  0.55332  0.9082  0.3351300000000001  1.0000
  N   N8        1.0  0.35733  0.89852  0.18803  1.0000
  O   O1        1.0  0.9345199999999999  0.24226000000000003  0.72891  1.0000
  O   O2        1.0  0.7924300000000001  0.34738  0.36037000000000013  1.0000
  O   O3        1.0  0.6998800000000001  0.23197000000000012  0.6819200000000002  1.0000
  O   O4        1.0  0.60057  0.23846  0.28021  1.0000
  O   O5        1.0  0.5663  0.51514  0.27023  1.0000
  O   O6        1.0  0.7073600000000001  0.98769  0.6398600000000002  1.0000
  O   O7        1.0  0.80078  0.55033  0.31826  1.0000
  O   O8        1.0  0.9009999999999999  0.9591200000000001  0.71916  1.0000
  O   O9        1.0  0.0725  0.7545  0.26964  1.0000
  O   O10       1.0  0.20707  0.65651  0.642  1.0000
  O   O11       1.0  0.30674  0.7661000000000001  0.31818  1.0000
  O   O12       1.0  0.40126000000000006  0.7632  0.72085  1.0000
  O   O13       1.0  0.4344300000000001  0.48487000000000013  0.7297000000000002  1.0000
  O   O14       1.0  0.29217  0.010900000000000014  0.36039  1.0000
  O   O15       1.0  0.19977999999999999  0.4496  0.68198  1.0000
  O   O16       1.0  0.09973000000000003  0.04045000000000004  0.28075000000000006  1.0000
