data_image0
_chemical_formula_structural       Ba6Cu6H24C60O60
_chemical_formula_sum              "Ba6 Cu6 H24 C60 O60"
_cell_length_a       12.28878
_cell_length_b       16.50111
_cell_length_c       16.48945
_cell_angle_alpha    113.93361
_cell_angle_beta     104.59947
_cell_angle_gamma    104.89055

_symmetry_space_group_name_H-M    'P 1'
_symmetry_Int_Tables_number       1

loop_
  _symmetry_equiv_pos_as_xyz
  'x,y,z'

loop_
  _atom_site_type_symbol
  _atom_site_label
  _atom_site_symmetry_multiplicity
  _atom_site_fract_x
  _atom_site_fract_y
  _atom_site_fract_z
  _atom_site_occupancy
  Ba  Ba1       1.0  0.0004199999999999646  0.6992199999999997  0.30033  1.0000
  Ba  Ba2       1.0  0.30075999999999997  0.59984  0.3022  1.0000
  Ba  Ba3       1.0  0.70134  0.7012  0.40053  1.0000
  Ba  Ba4       1.0  0.0006299999999999288  0.29915999999999976  0.69854  1.0000
  Ba  Ba5       1.0  0.70066  0.4003  0.70146  1.0000
  Ba  Ba6       1.0  0.3012  0.30181  0.60003  1.0000
  Cu  Cu1       1.0  0.26038999999999995  0.9994299999999999  0.36311  1.0000
  Cu  Cu2       1.0  0.26044  0.36619999999999986  0.99969  1.0000
  Cu  Cu3       1.0  0.8953399999999999  0.6322399999999998  0.63239  1.0000
  Cu  Cu4       1.0  0.10438999999999997  0.36859999999999987  0.3687  1.0000
  Cu  Cu5       1.0  0.73854  0.6326099999999998  0.0004  1.0000
  Cu  Cu6       1.0  0.73756  0.00014999999999997955  0.62818  1.0000
  H   H1        1.0  0.71829  0.65127  0.18503  1.0000
  H   H2        1.0  0.69648  0.55977  0.20079  1.0000
  H   H3        1.0  0.06782999999999996  0.53332  0.34814999999999996  1.0000
  H   H4        1.0  0.13779999999999992  0.6403099999999998  0.44096  1.0000
  H   H5        1.0  0.5344699999999999  0.8136399999999998  0.46708  1.0000
  H   H6        1.0  0.4993999999999999  0.7985099999999999  0.36040999999999995  1.0000
  H   H7        1.0  0.465  0.53439  0.18462  1.0000
  H   H8        1.0  0.50206  0.6413799999999997  0.19962  1.0000
  H   H9        1.0  0.281  0.81414  0.34745  1.0000
  H   H10       1.0  0.30363  0.80037  0.4405  1.0000
  H   H11       1.0  0.9320500000000002  0.65401  0.46736  1.0000
  H   H12       1.0  0.8613099999999997  0.5617499999999997  0.36098  1.0000
  H   H13       1.0  0.2812200000000001  0.34829000000000004  0.8144100000000001  1.0000
  H   H14       1.0  0.30336  0.4405199999999999  0.79963  1.0000
  H   H15       1.0  0.9322  0.46742  0.65402  1.0000
  H   H16       1.0  0.86141  0.36081  0.56221  1.0000
  H   H17       1.0  0.46452  0.18470999999999996  0.53354  1.0000
  H   H18       1.0  0.5011800000000001  0.19852999999999998  0.6402  1.0000
  H   H19       1.0  0.5347800000000001  0.46556999999999993  0.8155800000000001  1.0000
  H   H20       1.0  0.49723999999999996  0.3580899999999999  0.79975  1.0000
  H   H21       1.0  0.71928  0.18690999999999994  0.65427  1.0000
  H   H22       1.0  0.69899  0.20176000000000005  0.56269  1.0000
  H   H23       1.0  0.06813999999999998  0.34821  0.53384  1.0000
  H   H24       1.0  0.13792  0.44097000000000003  0.64064  1.0000
  C   C1        1.0  0.51301  0.08928999999999997  0.39594  1.0000
  C   C2        1.0  0.005559999999999904  0.9086799999999998  0.32511  1.0000
  C   C3        1.0  0.42028  0.3053  0.90957  1.0000
  C   C4        1.0  0.09474999999999999  0.4188299999999999  0.09098  1.0000
  C   C5        1.0  0.11583000000000002  0.60476  0.69485  1.0000
  C   C6        1.0  0.6776200000000002  0.6723800000000001  0.5823200000000001  1.0000
  C   C7        1.0  0.88207  0.30723  0.39602  1.0000
  C   C8        1.0  0.31648  0.41475999999999996  0.3236  1.0000
  C   C9        1.0  0.48988000000000004  0.60497  0.90973  1.0000
  C   C10       1.0  0.9952499999999995  0.6744599999999998  0.09128  1.0000
  C   C11       1.0  0.57839  0.09055999999999989  0.69435  1.0000
  C   C12       1.0  0.90298  0.90843  0.58458  1.0000
  C   C13       1.0  0.48842  0.90973  0.6043300000000001  1.0000
  C   C14       1.0  0.9953900000000001  0.09247000000000007  0.6764500000000001  1.0000
  C   C15       1.0  0.57945  0.6951  0.09072000000000001  1.0000
  C   C16       1.0  0.90507  0.5836299999999998  0.91004  1.0000
  C   C17       1.0  0.8828299999999998  0.39626  0.30757  1.0000
  C   C18       1.0  0.3161  0.32405  0.41485  1.0000
  C   C19       1.0  0.11567000000000001  0.69475  0.60454  1.0000
  C   C20       1.0  0.67697  0.58172  0.67252  1.0000
  C   C21       1.0  0.50965  0.3949799999999999  0.08984  1.0000
  C   C22       1.0  0.0038400000000000196  0.3274000000000001  0.90846  1.0000
  C   C23       1.0  0.42357  0.91045  0.30653  1.0000
  C   C24       1.0  0.09618999999999998  0.09009999999999997  0.41628  1.0000
  C   C25       1.0  0.53172  0.99906  0.23108  1.0000
  C   C26       1.0  0.47335999999999995  0.9996999999999999  0.29969  1.0000
  C   C27       1.0  0.4260199999999999  0.9991299999999999  0.20018  1.0000
  C   C28       1.0  0.0015499999999999477  0.9988999999999999  0.32461  1.0000
  C   C29       1.0  0.88417  0.9976799999999998  0.26424  1.0000
  C   C30       1.0  0.96299  0.9983499999999998  0.22726999999999997  1.0000
  C   C31       1.0  0.55141  0.24064999999999995  0.99914  1.0000
  C   C32       1.0  0.4708800000000001  0.3002  0.99947  1.0000
  C   C33       1.0  0.44456  0.20336999999999994  0.99915  1.0000
  C   C34       1.0  0.99509  0.33232  0.99916  1.0000
  C   C35       1.0  0.8984799999999997  0.2671399999999998  0.99801  1.0000
  C   C36       1.0  0.96067  0.21488000000000004  0.99872  1.0000
  C   C37       1.0  0.31432999999999994  0.76092  0.76058  1.0000
  C   C38       1.0  0.17244000000000004  0.70035  0.70017  1.0000
  C   C39       1.0  0.24488999999999997  0.79735  0.7972999999999999  1.0000
  C   C40       1.0  0.67405  0.6725099999999998  0.67279  1.0000
  C   C41       1.0  0.6224399999999999  0.7326299999999998  0.73339  1.0000
  C   C42       1.0  0.7396599999999998  0.7739299999999998  0.77351  1.0000
  C   C43       1.0  0.69343  0.23013  0.2308  1.0000
  C   C44       1.0  0.82612  0.29898  0.29911  1.0000
  C   C45       1.0  0.77211  0.20287  0.20320999999999997  1.0000
  C   C46       1.0  0.31985  0.32490999999999987  0.3249  1.0000
  C   C47       1.0  0.39572000000000007  0.27517999999999987  0.27564  1.0000
  C   C48       1.0  0.27744  0.22745  0.2276  1.0000
  C   C49       1.0  0.4489599999999999  0.7595599999999998  0.00128  1.0000
  C   C50       1.0  0.5293699999999999  0.6998199999999998  0.00039  1.0000
  C   C51       1.0  0.5558  0.79691  0.0009  1.0000
  C   C52       1.0  0.99877  0.67533  0.00119  1.0000
  C   C53       1.0  0.11702000000000001  0.73617  0.00249  1.0000
  C   C54       1.0  0.03775999999999999  0.77257  0.0023  1.0000
  C   C55       1.0  0.4494000000000001  0.0005300000000000131  0.76058  1.0000
  C   C56       1.0  0.52797  0.00031000000000001713  0.69937  1.0000
  C   C57       1.0  0.55684  0.0008700000000000373  0.79657  1.0000
  C   C58       1.0  0.99541  0.000909999999999991  0.67561  1.0000
  C   C59       1.0  0.12124999999999996  0.0023399999999999927  0.72748  1.0000
  C   C60       1.0  0.05009  0.0024100000000000094  0.77396  1.0000
  O   O1        1.0  0.42499  0.10240999999999997  0.42289  1.0000
  O   O2        1.0  0.10666999999999997  0.8955799999999999  0.3286  1.0000
  O   O3        1.0  0.62403  0.14227  0.44485  1.0000
  O   O4        1.0  0.7481  0.63102  0.23345  1.0000
  O   O5        1.0  0.91526  0.85062  0.32252  1.0000
  O   O6        1.0  0.32294  0.32480999999999993  0.89774  1.0000
  O   O7        1.0  0.20866999999999994  0.43536999999999987  0.10439  1.0000
  O   O8        1.0  0.47489  0.2964899999999999  0.8545600000000001  1.0000
  O   O9        1.0  0.11690000000000006  0.60285  0.36963999999999997  1.0000
  O   O10       1.0  0.06295999999999997  0.4728199999999999  0.14954  1.0000
  O   O11       1.0  0.99796  0.57286  0.67409  1.0000
  O   O12       1.0  0.7734200000000001  0.66715  0.56372  1.0000
  O   O13       1.0  0.17800000000000007  0.5579200000000001  0.7034400000000001  1.0000
  O   O14       1.0  0.51294  0.76436  0.39792  1.0000
  O   O15       1.0  0.59048  0.67651  0.52822  1.0000
  O   O16       1.0  0.9982  0.3229  0.42531  1.0000
  O   O17       1.0  0.22622999999999993  0.43976999999999994  0.33635999999999994  1.0000
  O   O18       1.0  0.81897  0.30291  0.44328  1.0000
  O   O19       1.0  0.48651  0.60353  0.23329  1.0000
  O   O20       1.0  0.40036  0.46439  0.31232  1.0000
  O   O21       1.0  0.57572  0.5738  0.89921  1.0000
  O   O22       1.0  0.89443  0.66912  0.10547  1.0000
  O   O23       1.0  0.3797  0.55743  0.85327  1.0000
  O   O24       1.0  0.25202  0.76691  0.36909  1.0000
  O   O25       1.0  0.0871699999999999  0.6788499999999997  0.14912  1.0000
  O   O26       1.0  0.6756  0.10254  0.67444  1.0000
  O   O27       1.0  0.78697  0.89551  0.55843  1.0000
  O   O28       1.0  0.52404  0.1457  0.70383  1.0000
  O   O29       1.0  0.88309  0.63318  0.39802  1.0000
  O   O30       1.0  0.938  0.84827  0.53593  1.0000
  O   O31       1.0  0.57389  0.89839  0.5727  1.0000
  O   O32       1.0  0.89179  0.10421000000000004  0.66309  1.0000
  O   O33       1.0  0.37803  0.85366  0.55779  1.0000
  O   O34       1.0  0.25179  0.3691699999999999  0.76651  1.0000
  O   O35       1.0  0.09186000000000002  0.15356  0.68896  1.0000
  O   O36       1.0  0.67636  0.6751399999999997  0.10207  1.0000
  O   O37       1.0  0.7892600000000001  0.56253  0.89497  1.0000
  O   O38       1.0  0.5255499999999999  0.7043199999999997  0.14630000000000004  1.0000
  O   O39       1.0  0.8836899999999996  0.3980299999999999  0.63367  1.0000
  O   O40       1.0  0.93896  0.53051  0.85275  1.0000
  O   O41       1.0  0.9988500000000002  0.42539  0.32251  1.0000
  O   O42       1.0  0.22574000000000005  0.33667  0.43973  1.0000
  O   O43       1.0  0.8203999999999999  0.4438399999999998  0.30376  1.0000
  O   O44       1.0  0.48648  0.23281  0.60285  1.0000
  O   O45       1.0  0.39951  0.31278  0.46462  1.0000
  O   O46       1.0  0.99792  0.6738099999999998  0.57254  1.0000
  O   O47       1.0  0.7731299999999999  0.5635599999999997  0.66776  1.0000
  O   O48       1.0  0.17817999999999995  0.70362  0.55768  1.0000
  O   O49       1.0  0.51328  0.39647  0.76662  1.0000
  O   O50       1.0  0.58975  0.5273699999999998  0.67678  1.0000
  O   O51       1.0  0.42391  0.42619  0.10075  1.0000
  O   O52       1.0  0.10425999999999996  0.32967999999999986  0.89555  1.0000
  O   O53       1.0  0.6198599999999999  0.4421799999999999  0.14623  1.0000
  O   O54       1.0  0.74979  0.23559  0.63415  1.0000
  O   O55       1.0  0.91262  0.32271  0.84963  1.0000
  O   O56       1.0  0.32189  0.89634  0.32004  1.0000
  O   O57       1.0  0.21127  0.10429  0.43437  1.0000
  O   O58       1.0  0.48313  0.8598099999999997  0.30343  1.0000
  O   O59       1.0  0.11773999999999989  0.3697699999999999  0.60304  1.0000
  O   O60       1.0  0.06345  0.14746999999999996  0.47062  1.0000
