data_image0
_chemical_formula_structural       Cu4H48C84N24
_chemical_formula_sum              "Cu4 H48 C84 N24"
_cell_length_a       8.71529
_cell_length_b       17.681759999999997
_cell_length_c       23.0569
_cell_angle_alpha    96.62065
_cell_angle_beta     90.0023
_cell_angle_gamma    90.00090000000002

_space_group_name_H-M_alt    "P 1"
_space_group_IT_number       1

loop_
  _space_group_symop_operation_xyz
  'x, y, z'

loop_
  _atom_site_type_symbol
  _atom_site_label
  _atom_site_symmetry_multiplicity
  _atom_site_fract_x
  _atom_site_fract_y
  _atom_site_fract_z
  _atom_site_occupancy
  Cu  Cu1       1.0  0.96208  0.4319000000000001  0.24612  1.0000
  Cu  Cu2       1.0  0.46211  0.56808  0.25388000000000005  1.0000
  Cu  Cu3       1.0  0.03792  0.5681000000000003  0.75388  1.0000
  Cu  Cu4       1.0  0.53789  0.43192  0.74612  1.0000
  H   H1        1.0  0.23079999999999998  0.30547  0.49454  1.0000
  H   H2        1.0  0.8358299999999997  0.30416  0.305  1.0000
  H   H3        1.0  0.92659  0.20973  0.37059  1.0000
  H   H4        1.0  0.3433  0.34209  0.3962  1.0000
  H   H5        1.0  0.23831999999999998  0.42780000000000007  0.32626  1.0000
  H   H6        1.0  0.34114999999999995  0.044340000000000004  0.4387900000000001  1.0000
  H   H7        1.0  0.38192  0.26936  0.7234800000000002  1.0000
  H   H8        1.0  0.29234  0.18464  0.63685  1.0000
  H   H9        1.0  0.50186  0.34046000000000004  0.52895  1.0000
  H   H10       1.0  0.5877999999999999  0.41752000000000006  0.62078  1.0000
  H   H11       1.0  0.027389999999999994  0.13733000000000006  0.53563  1.0000
  H   H12       1.0  0.80478  0.06377000000000001  0.5674600000000001  1.0000
  H   H13       1.0  0.7308  0.69452  0.0054600000000000004  1.0000
  H   H14       1.0  0.33586  0.6958200000000001  0.19500000000000003  1.0000
  H   H15       1.0  0.42661  0.79025  0.12941  1.0000
  H   H16       1.0  0.84329  0.6579000000000003  0.10379  1.0000
  H   H17       1.0  0.73834  0.57219  0.17373  1.0000
  H   H18       1.0  0.84114  0.95565  0.06121  1.0000
  H   H19       1.0  0.8819  0.73063  0.77651  1.0000
  H   H20       1.0  0.7923199999999999  0.81536  0.86314  1.0000
  H   H21       1.0  0.00185  0.6595400000000002  0.9710500000000001  1.0000
  H   H22       1.0  0.08778  0.5824900000000002  0.87923  1.0000
  H   H23       1.0  0.52735  0.86267  0.96438  1.0000
  H   H24       1.0  0.30474  0.93623  0.9325500000000002  1.0000
  H   H25       1.0  0.7692  0.69453  0.50546  1.0000
  H   H26       1.0  0.16417  0.6958300000000002  0.6950000000000001  1.0000
  H   H27       1.0  0.07340999999999999  0.7902600000000002  0.6294100000000001  1.0000
  H   H28       1.0  0.6567  0.65791  0.6038  1.0000
  H   H29       1.0  0.76168  0.5722000000000003  0.67374  1.0000
  H   H30       1.0  0.65886  0.9556600000000001  0.56121  1.0000
  H   H31       1.0  0.6180799999999997  0.73063  0.27652  1.0000
  H   H32       1.0  0.70767  0.81536  0.36315000000000003  1.0000
  H   H33       1.0  0.49813999999999997  0.65953  0.47105000000000014  1.0000
  H   H34       1.0  0.4122  0.58248  0.3792200000000001  1.0000
  H   H35       1.0  0.97261  0.86267  0.46437000000000006  1.0000
  H   H36       1.0  0.19523  0.93623  0.43254000000000004  1.0000
  H   H37       1.0  0.26921  0.3054700000000001  0.9945400000000001  1.0000
  H   H38       1.0  0.66414  0.3041800000000001  0.8050000000000002  1.0000
  H   H39       1.0  0.57339  0.20974999999999996  0.87059  1.0000
  H   H40       1.0  0.15671  0.3421  0.8962100000000002  1.0000
  H   H41       1.0  0.26166  0.4278100000000002  0.82627  1.0000
  H   H42       1.0  0.15886  0.04434000000000001  0.9387900000000001  1.0000
  H   H43       1.0  0.11810999999999999  0.26936  0.22349000000000002  1.0000
  H   H44       1.0  0.20768  0.18463  0.13686  1.0000
  H   H45       1.0  0.9981499999999999  0.34046000000000004  0.02895  1.0000
  H   H46       1.0  0.91223  0.4175100000000001  0.12077  1.0000
  H   H47       1.0  0.47266  0.13733000000000006  0.03562  1.0000
  H   H48       1.0  0.69526  0.06377  0.06745  1.0000
  C   C1        1.0  0.94786  0.30982  0.32599000000000006  1.0000
  C   C2        1.0  0.9983699999999999  0.25779  0.36266  1.0000
  C   C3        1.0  0.14244  0.26864  0.38948  1.0000
  C   C4        1.0  0.22941999999999996  0.33191  0.37747  1.0000
  C   C5        1.0  0.17193  0.38001  0.33892  1.0000
  C   C6        1.0  0.20082  0.21586000000000002  0.42929  1.0000
  C   C7        1.0  0.2065  0.13854000000000005  0.41652  1.0000
  C   C8        1.0  0.25984  0.08598  0.46064  1.0000
  C   C9        1.0  0.34113  0.13205  0.51162  1.0000
  C   C10       1.0  0.32891  0.20958000000000007  0.52258  1.0000
  C   C11       1.0  0.40765  0.2832300000000001  0.67977  1.0000
  C   C12       1.0  0.35704  0.23586  0.63116  1.0000
  C   C13       1.0  0.38759  0.25589  0.57518  1.0000
  C   C14       1.0  0.47148999999999996  0.32298  0.57122  1.0000
  C   C15       1.0  0.52015  0.36607  0.62215  1.0000
  C   C16       1.0  0.16198  0.10355000000000004  0.36073000000000005  1.0000
  C   C17       1.0  0.42982999999999993  0.09126  0.54881  1.0000
  C   C18       1.0  0.12514  0.041410000000000016  0.48171  1.0000
  C   C19       1.0  0.015029999999999998  0.07721  0.51979  1.0000
  C   C20       1.0  0.89092  0.03618  0.53806  1.0000
  C   C21       1.0  0.76054  0.47005  0.25218000000000007  1.0000
  C   C22       1.0  0.44789  0.69016  0.17401  1.0000
  C   C23       1.0  0.49837999999999993  0.7422000000000002  0.13734  1.0000
  C   C24       1.0  0.64244  0.73135  0.11051  1.0000
  C   C25       1.0  0.72943  0.66808  0.12253000000000001  1.0000
  C   C26       1.0  0.67195  0.6199700000000002  0.16107000000000002  1.0000
  C   C27       1.0  0.70081  0.7841300000000001  0.07071000000000001  1.0000
  C   C28       1.0  0.70648  0.86145  0.08348000000000001  1.0000
  C   C29       1.0  0.75984  0.9140200000000002  0.03936  1.0000
  C   C30       1.0  0.84112  0.8679500000000002  0.9883800000000001  1.0000
  C   C31       1.0  0.8289099999999998  0.7904300000000001  0.9774200000000002  1.0000
  C   C32       1.0  0.90764  0.71677  0.82023  1.0000
  C   C33       1.0  0.85703  0.76415  0.8688400000000002  1.0000
  C   C34       1.0  0.88758  0.7441100000000003  0.9248200000000002  1.0000
  C   C35       1.0  0.97148  0.6770200000000001  0.9287900000000001  1.0000
  C   C36       1.0  0.02014  0.63394  0.87786  1.0000
  C   C37       1.0  0.66197  0.89643  0.13926000000000002  1.0000
  C   C38       1.0  0.9298299999999999  0.90875  0.95121  1.0000
  C   C39       1.0  0.62513  0.95859  0.01829  1.0000
  C   C40       1.0  0.51501  0.92279  0.9802100000000002  1.0000
  C   C41       1.0  0.3909  0.9638200000000001  0.96195  1.0000
  C   C42       1.0  0.26056  0.52995  0.24782000000000007  1.0000
  C   C43       1.0  0.05213999999999999  0.69018  0.6740100000000001  1.0000
  C   C44       1.0  0.0016399999999999995  0.74221  0.6373400000000001  1.0000
  C   C45       1.0  0.85757  0.7313600000000001  0.61052  1.0000
  C   C46       1.0  0.77058  0.6680900000000001  0.6225300000000001  1.0000
  C   C47       1.0  0.8280699999999998  0.61999  0.6610800000000001  1.0000
  C   C48       1.0  0.7991799999999999  0.78414  0.57071  1.0000
  C   C49       1.0  0.79351  0.86146  0.5834800000000001  1.0000
  C   C50       1.0  0.74016  0.9140200000000002  0.53936  1.0000
  C   C51       1.0  0.65887  0.8679500000000001  0.48838000000000004  1.0000
  C   C52       1.0  0.67109  0.7904200000000002  0.47742000000000007  1.0000
  C   C53       1.0  0.59235  0.7167600000000001  0.32023  1.0000
  C   C54       1.0  0.64296  0.76414  0.36884000000000006  1.0000
  C   C55       1.0  0.6124099999999999  0.7441100000000002  0.4248200000000001  1.0000
  C   C56       1.0  0.52851  0.67701  0.42878  1.0000
  C   C57       1.0  0.47985  0.63393  0.37785000000000013  1.0000
  C   C58       1.0  0.83802  0.89645  0.63927  1.0000
  C   C59       1.0  0.57018  0.90874  0.4511900000000001  1.0000
  C   C60       1.0  0.87487  0.95859  0.51829  1.0000
  C   C61       1.0  0.98497  0.92279  0.4802100000000001  1.0000
  C   C62       1.0  0.10908  0.9638200000000001  0.46194  1.0000
  C   C63       1.0  0.23946  0.52995  0.74782  1.0000
  C   C64       1.0  0.55212  0.3098400000000001  0.82599  1.0000
  C   C65       1.0  0.50162  0.25780000000000003  0.8626600000000001  1.0000
  C   C66       1.0  0.35756  0.26865  0.8894900000000001  1.0000
  C   C67       1.0  0.27058  0.33192000000000005  0.8774700000000001  1.0000
  C   C68       1.0  0.32805  0.38002  0.83893  1.0000
  C   C69       1.0  0.29919  0.21587000000000006  0.9292900000000001  1.0000
  C   C70       1.0  0.29352  0.13855  0.91652  1.0000
  C   C71       1.0  0.24015999999999998  0.08597999999999999  0.9606400000000002  1.0000
  C   C72       1.0  0.15888  0.13204000000000005  0.011620000000000004  1.0000
  C   C73       1.0  0.17109  0.20957  0.022580000000000006  1.0000
  C   C74       1.0  0.09236  0.2832300000000001  0.17977  1.0000
  C   C75       1.0  0.14297  0.23585  0.13116  1.0000
  C   C76       1.0  0.11242  0.25589  0.07518000000000001  1.0000
  C   C77       1.0  0.028519999999999993  0.32298  0.07121  1.0000
  C   C78       1.0  0.97986  0.3660600000000001  0.12214  1.0000
  C   C79       1.0  0.33803  0.10357000000000004  0.8607400000000001  1.0000
  C   C80       1.0  0.07017  0.09125  0.04879000000000001  1.0000
  C   C81       1.0  0.37487  0.04141000000000005  0.9817100000000002  1.0000
  C   C82       1.0  0.48499  0.07721  0.01979  1.0000
  C   C83       1.0  0.6091099999999999  0.03617  0.03805000000000001  1.0000
  C   C84       1.0  0.73944  0.47005  0.75218  1.0000
  N   N1        1.0  0.03275  0.36985  0.31347  1.0000
  N   N2        1.0  0.25908  0.25027  0.4819700000000001  1.0000
  N   N3        1.0  0.48821  0.3478100000000001  0.67617  1.0000
  N   N4        1.0  0.12488999999999999  0.07286  0.3151  1.0000
  N   N5        1.0  0.50298  0.05583  0.57872  1.0000
  N   N6        1.0  0.64062  0.50138  0.25704  1.0000
  N   N7        1.0  0.53277  0.6301300000000002  0.18653  1.0000
  N   N8        1.0  0.7591099999999998  0.74972  0.01804  1.0000
  N   N9        1.0  0.9882  0.6522  0.82384  1.0000
  N   N10       1.0  0.62486  0.9271100000000001  0.18490000000000004  1.0000
  N   N11       1.0  0.0029999999999999996  0.9441700000000001  0.92129  1.0000
  N   N12       1.0  0.14063  0.49861  0.24296000000000004  1.0000
  N   N13       1.0  0.9672499999999999  0.63015  0.6865300000000001  1.0000
  N   N14       1.0  0.74092  0.74972  0.51803  1.0000
  N   N15       1.0  0.51179  0.6521900000000002  0.32383  1.0000
  N   N16       1.0  0.87511  0.9271300000000001  0.6849000000000001  1.0000
  N   N17       1.0  0.49702  0.9441700000000001  0.4212800000000001  1.0000
  N   N18       1.0  0.35938  0.49862  0.74296  1.0000
  N   N19       1.0  0.4672299999999999  0.36987000000000003  0.81347  1.0000
  N   N20       1.0  0.24088999999999997  0.25028  0.98196  1.0000
  N   N21       1.0  0.011799999999999998  0.34780000000000005  0.17616000000000004  1.0000
  N   N22       1.0  0.37514  0.07289000000000002  0.8151000000000002  1.0000
  N   N23       1.0  0.9969999999999999  0.05583  0.07871  1.0000
  N   N24       1.0  0.8593699999999999  0.5013900000000002  0.75704  1.0000
