data_image0
_chemical_formula_structural       Hf6H64C106O24
_chemical_formula_sum              "Hf6 H64 C106 O24"
_cell_length_a       21.61312
_cell_length_b       21.61496
_cell_length_c       24.748910000000002
_cell_angle_alpha    64.13854
_cell_angle_beta     64.1705
_cell_angle_gamma    90.20783

_space_group_name_H-M_alt    "P 1"
_space_group_IT_number       1

loop_
  _space_group_symop_operation_xyz
  'x, y, z'

loop_
  _atom_site_type_symbol
  _atom_site_label
  _atom_site_symmetry_multiplicity
  _atom_site_fract_x
  _atom_site_fract_y
  _atom_site_fract_z
  _atom_site_occupancy
  Hf  Hf1       1.0  0.43933000000000005  0.43932  0.12126000000000002  1.0000
  Hf  Hf2       1.0  0.56068  0.5606799999999998  0.8787400000000001  1.0000
  Hf  Hf3       1.0  0.39439000000000013  0.4997200000000001  0.99972  1.0000
  Hf  Hf4       1.0  0.6056200000000002  0.50028  0.00028000000000000003  1.0000
  Hf  Hf5       1.0  0.50009  0.3944400000000001  0.99969  1.0000
  Hf  Hf6       1.0  0.49992000000000003  0.60556  0.00031  1.0000
  H   H1        1.0  0.85747  0.17572000000000002  0.49853  1.0000
  H   H2        1.0  0.9846600000000001  0.21856999999999996  0.41418  1.0000
  H   H3        1.0  0.9523400000000001  0.42336  0.30715  1.0000
  H   H4        1.0  0.8247800000000001  0.3799299999999999  0.39133  1.0000
  H   H5        1.0  0.08984000000000002  0.30357  0.37718  1.0000
  H   H6        1.0  0.21833  0.34663  0.28919  1.0000
  H   H7        1.0  0.16394  0.44145  0.12859  1.0000
  H   H8        1.0  0.03542999999999998  0.39933  0.21587000000000003  1.0000
  H   H9        1.0  0.64449  0.32529  0.49845000000000006  1.0000
  H   H10       1.0  0.60152  0.36686  0.41431000000000007  1.0000
  H   H11       1.0  0.74066  0.26857999999999993  0.3079  1.0000
  H   H12       1.0  0.78408  0.22780000000000003  0.39197  1.0000
  H   H13       1.0  0.53309  0.31851000000000007  0.37796  1.0000
  H   H14       1.0  0.49198  0.3629900000000001  0.29069  1.0000
  H   H15       1.0  0.70699  0.42944000000000004  0.12922  1.0000
  H   H16       1.0  0.74864  0.38463  0.21591  1.0000
  H   H17       1.0  0.32565000000000005  0.8582000000000001  0.49828999999999996  1.0000
  H   H18       1.0  0.36742000000000014  0.9854700000000002  0.41382  1.0000
  H   H19       1.0  0.26897000000000004  0.9517700000000001  0.30763  1.0000
  H   H20       1.0  0.22795  0.8241400000000001  0.39187  1.0000
  H   H21       1.0  0.3191400000000001  0.08989  0.37723  1.0000
  H   H22       1.0  0.3636599999999999  0.21850999999999998  0.2892700000000001  1.0000
  H   H23       1.0  0.42944  0.16409  0.12864  1.0000
  H   H24       1.0  0.38462  0.035490000000000035  0.21596999999999997  1.0000
  H   H25       1.0  0.17541999999999994  0.64414  0.49862000000000006  1.0000
  H   H26       1.0  0.21789000000000003  0.6010900000000001  0.41463  1.0000
  H   H27       1.0  0.4229200000000001  0.7415099999999999  0.30745  1.0000
  H   H28       1.0  0.37965  0.7848700000000001  0.39143  1.0000
  H   H29       1.0  0.3028  0.533  0.37796  1.0000
  H   H30       1.0  0.3462  0.49204000000000003  0.29065  1.0000
  H   H31       1.0  0.44147  0.70717  0.12928  1.0000
  H   H32       1.0  0.39901000000000003  0.7488  0.21591  1.0000
  H   H33       1.0  0.14254  0.82428  0.50147  1.0000
  H   H34       1.0  0.01534999999999999  0.78143  0.58582  1.0000
  H   H35       1.0  0.04766999999999994  0.57664  0.6928500000000001  1.0000
  H   H36       1.0  0.17523000000000002  0.62007  0.60866  1.0000
  H   H37       1.0  0.9101700000000001  0.69643  0.62282  1.0000
  H   H38       1.0  0.78167  0.65337  0.71081  1.0000
  H   H39       1.0  0.83607  0.5585500000000001  0.87141  1.0000
  H   H40       1.0  0.9645800000000002  0.60067  0.78413  1.0000
  H   H41       1.0  0.35551999999999995  0.67471  0.50155  1.0000
  H   H42       1.0  0.39849000000000007  0.63314  0.58569  1.0000
  H   H43       1.0  0.25935  0.7314200000000001  0.6921  1.0000
  H   H44       1.0  0.21593  0.7722000000000001  0.60803  1.0000
  H   H45       1.0  0.46692  0.6814900000000002  0.62204  1.0000
  H   H46       1.0  0.50802  0.63701  0.70931  1.0000
  H   H47       1.0  0.29301999999999995  0.57056  0.87078  1.0000
  H   H48       1.0  0.2513699999999999  0.61537  0.78409  1.0000
  H   H49       1.0  0.6743500000000001  0.14180000000000004  0.5017  1.0000
  H   H50       1.0  0.6325899999999999  0.014530000000000003  0.58618  1.0000
  H   H51       1.0  0.7310300000000002  0.04823000000000004  0.69237  1.0000
  H   H52       1.0  0.7720600000000001  0.17586000000000002  0.60812  1.0000
  H   H53       1.0  0.6808600000000001  0.91011  0.62277  1.0000
  H   H54       1.0  0.63634  0.7814900000000001  0.71073  1.0000
  H   H55       1.0  0.57057  0.8359100000000002  0.8713600000000001  1.0000
  H   H56       1.0  0.6153900000000001  0.96451  0.78403  1.0000
  H   H57       1.0  0.8245900000000002  0.35586000000000007  0.50138  1.0000
  H   H58       1.0  0.78212  0.39890999999999993  0.58537  1.0000
  H   H59       1.0  0.57709  0.25849  0.69255  1.0000
  H   H60       1.0  0.6203600000000002  0.21512999999999993  0.6085700000000002  1.0000
  H   H61       1.0  0.69721  0.467  0.62203  1.0000
  H   H62       1.0  0.6538100000000001  0.50797  0.7093500000000001  1.0000
  H   H63       1.0  0.55854  0.29283000000000003  0.87072  1.0000
  H   H64       1.0  0.601  0.2511999999999999  0.78409  1.0000
  C   C1        1.0  0.83131  0.2747  0.45187000000000005  1.0000
  C   C2        1.0  0.9781400000000001  0.32401  0.35435  1.0000
  C   C3        1.0  0.87775  0.23038  0.45754  1.0000
  C   C4        1.0  0.9500100000000002  0.25471999999999995  0.40977  1.0000
  C   C5        1.0  0.9316600000000002  0.36894999999999994  0.34901  1.0000
  C   C6        1.0  0.8599200000000001  0.34463  0.39698  1.0000
  C   C7        1.0  0.05393999999999998  0.34887  0.30254  1.0000
  C   C8        1.0  0.10612  0.33336  0.3227  1.0000
  C   C9        1.0  0.17762  0.35742  0.27405  1.0000
  C   C10       1.0  0.19874000000000003  0.3969  0.20379  1.0000
  C   C11       1.0  0.14701000000000003  0.4117500000000001  0.18316  1.0000
  C   C12       1.0  0.0755  0.38842999999999994  0.23199  1.0000
  C   C13       1.0  0.27541  0.42302  0.15218  1.0000
  C   C14       1.0  0.7171999999999998  0.27291  0.45202  1.0000
  C   C15       1.0  0.6678800000000003  0.32114  0.35462  1.0000
  C   C16       1.0  0.66513  0.31160999999999994  0.4575600000000001  1.0000
  C   C17       1.0  0.6406000000000001  0.33511  0.40988  1.0000
  C   C18       1.0  0.7195799999999999  0.28138  0.3495  1.0000
  C   C19       1.0  0.7434100000000005  0.25765  0.39738  1.0000
  C   C20       1.0  0.6436300000000001  0.34796999999999995  0.30301  1.0000
  C   C21       1.0  0.5711700000000001  0.3431700000000001  0.32343  1.0000
  C   C22       1.0  0.5479999999999999  0.36759  0.27505000000000007  1.0000
  C   C23       1.0  0.59694  0.3984200000000001  0.20467  1.0000
  C   C24       1.0  0.6694100000000002  0.40451000000000004  0.18381  1.0000
  C   C25       1.0  0.6923799999999999  0.37913000000000013  0.23237999999999998  1.0000
  C   C26       1.0  0.57198  0.42398  0.15295  1.0000
  C   C27       1.0  0.27314999999999995  0.83135  0.45193  1.0000
  C   C28       1.0  0.32153999999999994  0.9781800000000002  0.35436  1.0000
  C   C29       1.0  0.31197  0.87817  0.4573900000000001  1.0000
  C   C30       1.0  0.33554  0.9504600000000001  0.40961  1.0000
  C   C31       1.0  0.28171999999999997  0.93133  0.34928  1.0000
  C   C32       1.0  0.25792  0.85957  0.39724  1.0000
  C   C33       1.0  0.34845999999999994  0.05402999999999998  0.30257  1.0000
  C   C34       1.0  0.34379  0.10624  0.32274  1.0000
  C   C35       1.0  0.36811000000000005  0.17779  0.27411  1.0000
  C   C36       1.0  0.39866  0.19884999999999997  0.20387  1.0000
  C   C37       1.0  0.40467000000000003  0.14712  0.18321  1.0000
  C   C38       1.0  0.37939000000000006  0.07558  0.23204  1.0000
  C   C39       1.0  0.42402000000000006  0.27548  0.15223  1.0000
  C   C40       1.0  0.27445  0.7173299999999999  0.4519500000000001  1.0000
  C   C41       1.0  0.32351  0.66793  0.35461000000000004  1.0000
  C   C42       1.0  0.23004  0.6649900000000001  0.45764  1.0000
  C   C43       1.0  0.25421  0.64044  0.41  1.0000
  C   C44       1.0  0.3685000000000001  0.7200500000000001  0.34923  1.0000
  C   C45       1.0  0.34433  0.74386  0.39709  1.0000
  C   C46       1.0  0.34843  0.64367  0.30304  1.0000
  C   C47       1.0  0.33291  0.57117  0.32345  1.0000
  C   C48       1.0  0.3571500000000001  0.54806  0.27503  1.0000
  C   C49       1.0  0.3968100000000001  0.59704  0.20465  1.0000
  C   C50       1.0  0.41162  0.66953  0.18385  1.0000
  C   C51       1.0  0.38814  0.69248  0.23242000000000002  1.0000
  C   C52       1.0  0.42304  0.57204  0.15294  1.0000
  C   C53       1.0  0.1687  0.7252999999999998  0.54813  1.0000
  C   C54       1.0  0.02187000000000002  0.67599  0.64565  1.0000
  C   C55       1.0  0.12224999999999996  0.7696199999999999  0.54246  1.0000
  C   C56       1.0  0.05000000000000001  0.7452800000000002  0.59023  1.0000
  C   C57       1.0  0.06834000000000001  0.63105  0.65099  1.0000
  C   C58       1.0  0.14008999999999996  0.65537  0.60302  1.0000
  C   C59       1.0  0.9460700000000001  0.6511300000000002  0.69746  1.0000
  C   C60       1.0  0.8938900000000002  0.6666399999999999  0.6773  1.0000
  C   C61       1.0  0.82239  0.6425799999999999  0.72595  1.0000
  C   C62       1.0  0.80127  0.6030999999999999  0.79621  1.0000
  C   C63       1.0  0.8530000000000001  0.58825  0.81684  1.0000
  C   C64       1.0  0.92451  0.61157  0.76801  1.0000
  C   C65       1.0  0.7246  0.57698  0.84782  1.0000
  C   C66       1.0  0.28281  0.72709  0.54798  1.0000
  C   C67       1.0  0.33213000000000004  0.6788599999999999  0.64538  1.0000
  C   C68       1.0  0.33488  0.68839  0.54244  1.0000
  C   C69       1.0  0.35941000000000006  0.66489  0.59011  1.0000
  C   C70       1.0  0.28042  0.7186199999999999  0.6505  1.0000
  C   C71       1.0  0.2566  0.74235  0.60262  1.0000
  C   C72       1.0  0.35638  0.6520300000000002  0.69699  1.0000
  C   C73       1.0  0.42883000000000004  0.6568299999999999  0.67657  1.0000
  C   C74       1.0  0.4520099999999999  0.63241  0.72495  1.0000
  C   C75       1.0  0.40306  0.60158  0.79533  1.0000
  C   C76       1.0  0.3306000000000001  0.59549  0.81618  1.0000
  C   C77       1.0  0.30763000000000007  0.6208700000000001  0.76762  1.0000
  C   C78       1.0  0.42802999999999997  0.57602  0.8470500000000001  1.0000
  C   C79       1.0  0.72686  0.16865000000000002  0.54807  1.0000
  C   C80       1.0  0.6784700000000002  0.021820000000000016  0.64564  1.0000
  C   C81       1.0  0.68804  0.12182999999999998  0.54261  1.0000
  C   C82       1.0  0.66447  0.049539999999999994  0.59039  1.0000
  C   C83       1.0  0.71829  0.06867000000000001  0.65072  1.0000
  C   C84       1.0  0.74209  0.14042999999999994  0.6027600000000001  1.0000
  C   C85       1.0  0.65155  0.94597  0.69743  1.0000
  C   C86       1.0  0.65622  0.89376  0.6772600000000001  1.0000
  C   C87       1.0  0.6319000000000001  0.82221  0.72589  1.0000
  C   C88       1.0  0.60135  0.80115  0.7961300000000001  1.0000
  C   C89       1.0  0.59534  0.85288  0.8167900000000001  1.0000
  C   C90       1.0  0.6206200000000001  0.92442  0.7679600000000001  1.0000
  C   C91       1.0  0.57599  0.7245200000000002  0.84777  1.0000
  C   C92       1.0  0.7255600000000002  0.2826699999999999  0.54805  1.0000
  C   C93       1.0  0.6765  0.33207  0.64539  1.0000
  C   C94       1.0  0.76997  0.33501  0.54236  1.0000
  C   C95       1.0  0.7458  0.35957  0.59  1.0000
  C   C96       1.0  0.6315099999999999  0.27995  0.65077  1.0000
  C   C97       1.0  0.65568  0.25614  0.60291  1.0000
  C   C98       1.0  0.65158  0.3563299999999999  0.69696  1.0000
  C   C99       1.0  0.6671  0.42882999999999993  0.6765500000000001  1.0000
  C   C100      1.0  0.6428600000000001  0.45194  0.72497  1.0000
  C   C101      1.0  0.6032000000000002  0.40296  0.7953500000000001  1.0000
  C   C102      1.0  0.58839  0.33047  0.81615  1.0000
  C   C103      1.0  0.61186  0.30752000000000007  0.76758  1.0000
  C   C104      1.0  0.5769700000000001  0.42796000000000006  0.8470500000000001  1.0000
  C   C105      1.0  0.7502200000000001  0.24976  0.49999  1.0000
  C   C106      1.0  0.24979000000000007  0.7502400000000001  0.50001  1.0000
  O   O1        1.0  0.31936  0.4117700000000001  0.17475  1.0000
  O   O2        1.0  0.29066  0.45572999999999997  0.08787  1.0000
  O   O3        1.0  0.4106500000000001  0.4104900000000001  0.06199  1.0000
  O   O4        1.0  0.50544  0.41237000000000007  0.17539  1.0000
  O   O5        1.0  0.62116  0.45613999999999993  0.08864  1.0000
  O   O6        1.0  0.5275  0.52768  0.06237000000000001  1.0000
  O   O7        1.0  0.41246  0.3194  0.17481  1.0000
  O   O8        1.0  0.45597  0.29074  0.08792  1.0000
  O   O9        1.0  0.52731  0.41083  0.062090000000000006  1.0000
  O   O10       1.0  0.4118  0.50551  0.17538  1.0000
  O   O11       1.0  0.4557800000000001  0.6212400000000001  0.08859  1.0000
  O   O12       1.0  0.41057  0.52712  0.06212000000000001  1.0000
  O   O13       1.0  0.68065  0.58823  0.82525  1.0000
  O   O14       1.0  0.7093500000000001  0.5442800000000001  0.91213  1.0000
  O   O15       1.0  0.5893600000000002  0.5895099999999999  0.93801  1.0000
  O   O16       1.0  0.49457000000000007  0.58763  0.82461  1.0000
  O   O17       1.0  0.3788500000000001  0.54386  0.91136  1.0000
  O   O18       1.0  0.47251  0.47232  0.93763  1.0000
  O   O19       1.0  0.5875500000000001  0.6806000000000001  0.8251899999999999  1.0000
  O   O20       1.0  0.5440399999999999  0.70926  0.91207  1.0000
  O   O21       1.0  0.47269999999999984  0.5891800000000001  0.9379000000000001  1.0000
  O   O22       1.0  0.5882100000000001  0.49448999999999993  0.8246200000000001  1.0000
  O   O23       1.0  0.5442300000000002  0.37876  0.9114  1.0000
  O   O24       1.0  0.5894399999999999  0.4728799999999999  0.9378800000000002  1.0000
