data_image0
_chemical_formula_structural       Zn12H36C72N18O36
_chemical_formula_sum              "Zn12 H36 C72 N18 O36"
_cell_length_a       17.76838
_cell_length_b       17.77708
_cell_length_c       17.771729999999998
_cell_angle_alpha    78.4806
_cell_angle_beta     78.44566
_cell_angle_gamma    78.45562

_symmetry_space_group_name_H-M    'P 1'
_symmetry_Int_Tables_number       1

loop_
  _symmetry_equiv_pos_as_xyz
  'x,y,z'

loop_
  _atom_site_type_symbol
  _atom_site_label
  _atom_site_symmetry_multiplicity
  _atom_site_fract_x
  _atom_site_fract_y
  _atom_site_fract_z
  _atom_site_occupancy
  Zn  Zn1       1.0  0.027969999999999988  0.50123  0.34247  1.0000
  Zn  Zn2       1.0  0.012880000000000018  0.59143  0.47182  1.0000
  Zn  Zn3       1.0  0.34238000000000013  0.027899999999999984  0.5013300000000002  1.0000
  Zn  Zn4       1.0  0.47174  0.012860000000000002  0.5915  1.0000
  Zn  Zn5       1.0  0.5012400000000002  0.3426  0.02797  1.0000
  Zn  Zn6       1.0  0.5916200000000001  0.47175000000000006  0.012860000000000003  1.0000
  Zn  Zn7       1.0  0.97204  0.49878  0.65753  1.0000
  Zn  Zn8       1.0  0.98712  0.40857000000000004  0.52818  1.0000
  Zn  Zn9       1.0  0.65763  0.9721  0.49867000000000006  1.0000
  Zn  Zn10      1.0  0.5282599999999998  0.98714  0.4085  1.0000
  Zn  Zn11      1.0  0.49875999999999987  0.65741  0.9720300000000001  1.0000
  Zn  Zn12      1.0  0.40837999999999997  0.52825  0.9871400000000001  1.0000
  H   H1        1.0  0.11702000000000005  0.46889000000000003  0.44534  1.0000
  H   H2        1.0  0.64581  0.82041  0.27243  1.0000
  H   H3        1.0  0.81854  0.76649  0.4228  1.0000
  H   H4        1.0  0.83583  0.62757  0.24587000000000003  1.0000
  H   H5        1.0  0.59693  0.73863  0.07246  1.0000
  H   H6        1.0  0.7019699999999999  0.49598  0.11858  1.0000
  H   H7        1.0  0.44505  0.11692  0.46908  1.0000
  H   H8        1.0  0.27246000000000015  0.64563  0.8203  1.0000
  H   H9        1.0  0.4228600000000001  0.8183200000000002  0.76667  1.0000
  H   H10       1.0  0.24596000000000007  0.8357699999999999  0.6277200000000002  1.0000
  H   H11       1.0  0.07251999999999999  0.59693  0.7387300000000002  1.0000
  H   H12       1.0  0.11847000000000003  0.70195  0.49599  1.0000
  H   H13       1.0  0.46866  0.4455700000000001  0.11699  1.0000
  H   H14       1.0  0.8204200000000004  0.27249  0.64556  1.0000
  H   H15       1.0  0.7666599999999999  0.4227699999999999  0.81837  1.0000
  H   H16       1.0  0.62772  0.24590000000000004  0.83583  1.0000
  H   H17       1.0  0.7388000000000001  0.07262  0.5967  1.0000
  H   H18       1.0  0.49602000000000007  0.11841  0.70203  1.0000
  H   H19       1.0  0.8829900000000004  0.53111  0.5546600000000003  1.0000
  H   H20       1.0  0.35418999999999995  0.1796  0.72757  1.0000
  H   H21       1.0  0.18147  0.23351000000000002  0.57721  1.0000
  H   H22       1.0  0.16417  0.37243000000000004  0.75413  1.0000
  H   H23       1.0  0.40306999999999993  0.26136999999999994  0.9275400000000003  1.0000
  H   H24       1.0  0.29802999999999996  0.5040199999999999  0.8814200000000002  1.0000
  H   H25       1.0  0.5549600000000002  0.8830800000000001  0.53092  1.0000
  H   H26       1.0  0.7275400000000002  0.35437  0.17970000000000005  1.0000
  H   H27       1.0  0.57714  0.18169  0.23333  1.0000
  H   H28       1.0  0.75405  0.16423000000000004  0.37229  1.0000
  H   H29       1.0  0.92749  0.40308  0.26127  1.0000
  H   H30       1.0  0.8815400000000003  0.29805  0.50401  1.0000
  H   H31       1.0  0.5313499999999999  0.5544399999999999  0.8830200000000002  1.0000
  H   H32       1.0  0.17959000000000003  0.72752  0.35444  1.0000
  H   H33       1.0  0.23335000000000003  0.57723  0.18164  1.0000
  H   H34       1.0  0.37229  0.75411  0.16417  1.0000
  H   H35       1.0  0.26120000000000015  0.9273899999999999  0.4033  1.0000
  H   H36       1.0  0.50399  0.88159  0.29797  1.0000
  C   C1        1.0  0.6847  0.86765  0.39245000000000013  1.0000
  C   C2        1.0  0.72759  0.80114  0.35171000000000013  1.0000
  C   C3        1.0  0.69848  0.78509  0.29056  1.0000
  C   C4        1.0  0.90434  0.64041  0.36286  1.0000
  C   C5        1.0  0.8333200000000002  0.69162  0.33673  1.0000
  C   C6        1.0  0.79522  0.75411  0.37536  1.0000
  C   C7        1.0  0.8046300000000001  0.67488  0.27579  1.0000
  C   C8        1.0  0.7337700000000004  0.71961  0.25273  1.0000
  C   C9        1.0  0.71322  0.63319  0.17589000000000005  1.0000
  C   C10       1.0  0.6683500000000001  0.62468  0.11785  1.0000
  C   C11       1.0  0.616  0.6766  0.07379  1.0000
  C   C12       1.0  0.6700700000000002  0.55217  0.09703  1.0000
  C   C13       1.0  0.3925  0.68452  0.86763  1.0000
  C   C14       1.0  0.35179  0.7274000000000002  0.80114  1.0000
  C   C15       1.0  0.2906199999999999  0.69831  0.7850900000000001  1.0000
  C   C16       1.0  0.3628700000000001  0.9043000000000001  0.64059  1.0000
  C   C17       1.0  0.3367899999999999  0.8332199999999998  0.6917400000000001  1.0000
  C   C18       1.0  0.37543000000000004  0.79506  0.7541900000000001  1.0000
  C   C19       1.0  0.27587  0.80452  0.67499  1.0000
  C   C20       1.0  0.25277000000000005  0.7336799999999999  0.71965  1.0000
  C   C21       1.0  0.17588000000000004  0.7132299999999999  0.6331900000000001  1.0000
  C   C22       1.0  0.11781  0.66838  0.62471  1.0000
  C   C23       1.0  0.07379  0.61602  0.67669  1.0000
  C   C24       1.0  0.09694  0.67007  0.55221  1.0000
  C   C25       1.0  0.86764  0.3925  0.68445  1.0000
  C   C26       1.0  0.8012  0.35174000000000005  0.7273600000000002  1.0000
  C   C27       1.0  0.7851400000000003  0.29059  0.69827  1.0000
  C   C28       1.0  0.64071  0.36285000000000006  0.90436  1.0000
  C   C29       1.0  0.6918100000000003  0.3367  0.8332600000000002  1.0000
  C   C30       1.0  0.7542499999999999  0.37534000000000006  0.79507  1.0000
  C   C31       1.0  0.67502  0.27579  0.8045700000000001  1.0000
  C   C32       1.0  0.7196999999999999  0.25274  0.73366  1.0000
  C   C33       1.0  0.63323  0.17589  0.71319  1.0000
  C   C34       1.0  0.62476  0.11784000000000003  0.66831  1.0000
  C   C35       1.0  0.6767400000000001  0.07388999999999996  0.6158500000000002  1.0000
  C   C36       1.0  0.55224  0.09695999999999999  0.67004  1.0000
  C   C37       1.0  0.31531000000000003  0.13236  0.60755  1.0000
  C   C38       1.0  0.27242  0.19885999999999998  0.6482900000000001  1.0000
  C   C39       1.0  0.30152999999999996  0.21490999999999996  0.7094500000000001  1.0000
  C   C40       1.0  0.09565999999999998  0.35958999999999997  0.6371500000000002  1.0000
  C   C41       1.0  0.1666799999999999  0.30837999999999993  0.6632800000000002  1.0000
  C   C42       1.0  0.20477999999999996  0.24590000000000004  0.62464  1.0000
  C   C43       1.0  0.19537000000000002  0.32511999999999996  0.72421  1.0000
  C   C44       1.0  0.2662300000000001  0.2803999999999999  0.74727  1.0000
  C   C45       1.0  0.28678999999999993  0.36681  0.82412  1.0000
  C   C46       1.0  0.33165999999999995  0.37533  0.8821500000000002  1.0000
  C   C47       1.0  0.38400000000000023  0.3234  0.92621  1.0000
  C   C48       1.0  0.32992999999999995  0.44783  0.9029800000000002  1.0000
  C   C49       1.0  0.6075  0.31548  0.13237000000000002  1.0000
  C   C50       1.0  0.6482200000000002  0.27261  0.19886  1.0000
  C   C51       1.0  0.7093900000000002  0.30169  0.21492  1.0000
  C   C52       1.0  0.6371300000000002  0.09571000000000002  0.35941  1.0000
  C   C53       1.0  0.66321  0.16678999999999994  0.3082600000000001  1.0000
  C   C54       1.0  0.62457  0.20493999999999998  0.24581  1.0000
  C   C55       1.0  0.7241400000000002  0.19548  0.32501  1.0000
  C   C56       1.0  0.7472300000000002  0.26633  0.28035  1.0000
  C   C57       1.0  0.82412  0.28678  0.36681000000000014  1.0000
  C   C58       1.0  0.8822  0.33163  0.37529  1.0000
  C   C59       1.0  0.9262200000000002  0.38398  0.32331  1.0000
  C   C60       1.0  0.9030600000000001  0.32994  0.44779  1.0000
  C   C61       1.0  0.13236000000000003  0.60751  0.31555  1.0000
  C   C62       1.0  0.19881000000000015  0.64827  0.27264  1.0000
  C   C63       1.0  0.21485999999999997  0.70941  0.30173  1.0000
  C   C64       1.0  0.3593  0.63715  0.09565  1.0000
  C   C65       1.0  0.3082  0.66331  0.16675  1.0000
  C   C66       1.0  0.24575  0.62466  0.20493  1.0000
  C   C67       1.0  0.32499  0.72421  0.19544  1.0000
  C   C68       1.0  0.28030999999999995  0.74726  0.26635  1.0000
  C   C69       1.0  0.36677  0.82412  0.28681  1.0000
  C   C70       1.0  0.37525000000000014  0.88217  0.3317  1.0000
  C   C71       1.0  0.32326  0.92611  0.38415  1.0000
  C   C72       1.0  0.44777000000000006  0.9030400000000001  0.32996  1.0000
  N   N1        1.0  0.6229200000000003  0.55964  0.04516000000000001  1.0000
  N   N2        1.0  0.6949200000000003  0.7056  0.20012  1.0000
  N   N3        1.0  0.5892800000000001  0.63745  0.02962  1.0000
  N   N4        1.0  0.045089999999999957  0.62289  0.55973  1.0000
  N   N5        1.0  0.20011000000000007  0.6948999999999999  0.7056100000000002  1.0000
  N   N6        1.0  0.02958999999999997  0.58928  0.6375700000000002  1.0000
  N   N7        1.0  0.55973  0.04518999999999997  0.6227800000000002  1.0000
  N   N8        1.0  0.7056700000000001  0.20012  0.6948300000000002  1.0000
  N   N9        1.0  0.6376  0.02974000000000001  0.58909  1.0000
  N   N10       1.0  0.37709  0.44036999999999993  0.95484  1.0000
  N   N11       1.0  0.30507999999999996  0.29441  0.7998900000000002  1.0000
  N   N12       1.0  0.41072999999999993  0.3625499999999999  0.9703800000000001  1.0000
  N   N13       1.0  0.9549199999999998  0.37711  0.44028  1.0000
  N   N14       1.0  0.79989  0.3051  0.2944  1.0000
  N   N15       1.0  0.9704099999999999  0.41073  0.3624300000000001  1.0000
  N   N16       1.0  0.44027  0.95482  0.37722  1.0000
  N   N17       1.0  0.29433  0.79989  0.30517  1.0000
  N   N18       1.0  0.36240000000000006  0.97027  0.41091  1.0000
  O   O1        1.0  0.6241100000000002  0.9058400000000001  0.36708  1.0000
  O   O2        1.0  0.7124400000000002  0.87947  0.45029  1.0000
  O   O3        1.0  0.9224900000000001  0.65237  0.42489  1.0000
  O   O4        1.0  0.9394800000000002  0.58791  0.32254  1.0000
  O   O5        1.0  0.7608000000000003  0.57616  0.20071  1.0000
  O   O6        1.0  0.060849999999999974  0.48114000000000007  0.44829000000000013  1.0000
  O   O7        1.0  0.36712000000000017  0.62395  0.9058  1.0000
  O   O8        1.0  0.45032  0.71229  0.8794900000000002  1.0000
  O   O9        1.0  0.42487999999999987  0.92248  0.6525900000000002  1.0000
  O   O10       1.0  0.32255  0.9394299999999999  0.58812  1.0000
  O   O11       1.0  0.20072000000000007  0.76078  0.57615  1.0000
  O   O12       1.0  0.44816  0.060769999999999984  0.48123  1.0000
  O   O13       1.0  0.9058000000000003  0.36718  0.6237900000000002  1.0000
  O   O14       1.0  0.8794600000000004  0.45026  0.71231  1.0000
  O   O15       1.0  0.65289  0.42477000000000004  0.92256  1.0000
  O   O16       1.0  0.5881  0.32267999999999997  0.93949  1.0000
  O   O17       1.0  0.57617  0.20071000000000003  0.76077  1.0000
  O   O18       1.0  0.48105  0.44854  0.060820000000000006  1.0000
  O   O19       1.0  0.37589999999999996  0.09417  0.63292  1.0000
  O   O20       1.0  0.28757  0.12053000000000004  0.54971  1.0000
  O   O21       1.0  0.07752000000000003  0.34762999999999994  0.57511  1.0000
  O   O22       1.0  0.06051999999999999  0.41208999999999996  0.67746  1.0000
  O   O23       1.0  0.23920000000000005  0.42385  0.79929  1.0000
  O   O24       1.0  0.9391600000000001  0.51887  0.5517100000000001  1.0000
  O   O25       1.0  0.63289  0.37605  0.09421  1.0000
  O   O26       1.0  0.54969  0.28771  0.12052  1.0000
  O   O27       1.0  0.57512  0.07752  0.34742  1.0000
  O   O28       1.0  0.67745  0.06057  0.41189  1.0000
  O   O29       1.0  0.7992800000000004  0.23923  0.42386  1.0000
  O   O30       1.0  0.5518500000000002  0.93924  0.51877  1.0000
  O   O31       1.0  0.09419999999999999  0.63283  0.37621000000000004  1.0000
  O   O32       1.0  0.12055000000000005  0.54975  0.28769  1.0000
  O   O33       1.0  0.34711  0.57524  0.07745  1.0000
  O   O34       1.0  0.41189999999999993  0.67733  0.06051000000000001  1.0000
  O   O35       1.0  0.42383  0.79929  0.23923  1.0000
  O   O36       1.0  0.5189599999999999  0.55147  0.93918  1.0000
