data_image0
_chemical_formula_structural       Cd24H28C80N60
_chemical_formula_sum              "Cd24 H28 C80 N60"
_cell_length_a       8.56383
_cell_length_b       11.26127
_cell_length_c       57.32916
_cell_angle_alpha    89.98954000000002
_cell_angle_beta     88.73919
_cell_angle_gamma    89.94002999999998

_symmetry_space_group_name_H-M    'P 1'
_symmetry_Int_Tables_number       1

loop_
  _symmetry_equiv_pos_as_xyz
  'x,y,z'

loop_
  _atom_site_type_symbol
  _atom_site_label
  _atom_site_symmetry_multiplicity
  _atom_site_fract_x
  _atom_site_fract_y
  _atom_site_fract_z
  _atom_site_occupancy
  Cd  Cd1       1.0  0.75979  0.90105  0.06713  1.0000
  Cd  Cd2       1.0  0.78417  0.8992199999999998  0.16573  1.0000
  Cd  Cd3       1.0  0.24346  0.56425  0.17724  1.0000
  Cd  Cd4       1.0  0.25931  0.58062  0.081  1.0000
  Cd  Cd5       1.0  0.27433  0.09762999999999998  0.21369  1.0000
  Cd  Cd6       1.0  0.26583  0.1581  0.03141  1.0000
  Cd  Cd7       1.0  0.74011  0.40109  0.43294999999999995  1.0000
  Cd  Cd8       1.0  0.71678  0.39749  0.33438  1.0000
  Cd  Cd9       1.0  0.25802  0.06321  0.32277  1.0000
  Cd  Cd10      1.0  0.24148  0.08064999999999999  0.41901  1.0000
  Cd  Cd11      1.0  0.22581000000000004  0.5965  0.28647  1.0000
  Cd  Cd12      1.0  0.23398  0.65791  0.46856  1.0000
  Cd  Cd13      1.0  0.2402  0.09895  0.93287  1.0000
  Cd  Cd14      1.0  0.21583000000000002  0.10078  0.8342700000000001  1.0000
  Cd  Cd15      1.0  0.75653  0.43575  0.82276  1.0000
  Cd  Cd16      1.0  0.7406800000000001  0.41937999999999986  0.9190099999999999  1.0000
  Cd  Cd17      1.0  0.72566  0.9023699999999998  0.78631  1.0000
  Cd  Cd18      1.0  0.73417  0.8418999999999999  0.96859  1.0000
  Cd  Cd19      1.0  0.25988000000000006  0.59891  0.56705  1.0000
  Cd  Cd20      1.0  0.28321  0.60251  0.66562  1.0000
  Cd  Cd21      1.0  0.74197  0.93679  0.67723  1.0000
  Cd  Cd22      1.0  0.7585099999999999  0.9193499999999998  0.58099  1.0000
  Cd  Cd23      1.0  0.77418  0.4035  0.7135299999999999  1.0000
  Cd  Cd24      1.0  0.76601  0.34209  0.53145  1.0000
  H   H1        1.0  0.94117  0.69663  0.22460000000000002  1.0000
  H   H2        1.0  0.74202  0.68938  0.21324  1.0000
  H   H3        1.0  0.0011699999999999979  0.8142499999999999  0.25809  1.0000
  H   H4        1.0  0.90037  0.94741  0.28979  1.0000
  H   H5        1.0  0.61469  0.9875699999999998  0.29373  1.0000
  H   H6        1.0  0.42990999999999996  0.9068199999999998  0.26489  1.0000
  H   H7        1.0  0.52798  0.7745199999999999  0.23278  1.0000
  H   H8        1.0  0.56023  0.19766999999999996  0.2755  1.0000
  H   H9        1.0  0.75959  0.18935999999999997  0.28674  1.0000
  H   H10       1.0  0.49999000000000005  0.31477999999999995  0.24198  1.0000
  H   H11       1.0  0.60047  0.44792  0.21021  1.0000
  H   H12       1.0  0.88595  0.48753999999999986  0.20622  1.0000
  H   H13       1.0  0.07114  0.40643  0.23495  1.0000
  H   H14       1.0  0.97378  0.27415  0.26711  1.0000
  H   H15       1.0  0.05881999999999999  0.30336  0.7754  1.0000
  H   H16       1.0  0.25797  0.31061  0.78676  1.0000
  H   H17       1.0  0.9988200000000002  0.18575  0.74191  1.0000
  H   H18       1.0  0.09963  0.05259  0.71021  1.0000
  H   H19       1.0  0.38530000000000003  0.01243  0.70627  1.0000
  H   H20       1.0  0.57009  0.09317999999999999  0.73512  1.0000
  H   H21       1.0  0.47201  0.22547999999999996  0.76722  1.0000
  H   H22       1.0  0.43977  0.8023299999999999  0.72451  1.0000
  H   H23       1.0  0.24040000000000003  0.81064  0.71326  1.0000
  H   H24       1.0  0.5  0.68522  0.75802  1.0000
  H   H25       1.0  0.39952  0.55208  0.78979  1.0000
  H   H26       1.0  0.11404000000000003  0.51246  0.7937799999999999  1.0000
  H   H27       1.0  0.9288499999999998  0.59357  0.76505  1.0000
  H   H28       1.0  0.02621999999999999  0.72585  0.73289  1.0000
  C   C1        1.0  0.76647  0.92428  0.12869  1.0000
  C   C2        1.0  0.45706000000000013  0.70573  0.07506  1.0000
  C   C3        1.0  0.06252  0.07536  0.05005  1.0000
  C   C4        1.0  0.74979  0.8480299999999997  0.00625  1.0000
  C   C5        1.0  0.46470000000000006  0.08155  0.05034  1.0000
  C   C6        1.0  0.057710000000000004  0.69979  0.07459  1.0000
  C   C7        1.0  0.026860000000000002  0.66981  0.17591  1.0000
  C   C8        1.0  0.05502  0.03637  0.19882  1.0000
  C   C9        1.0  0.47544  0.00398  0.19712  1.0000
  C   C10       1.0  0.46664000000000005  0.64023  0.18837  1.0000
  C   C11       1.0  0.26937  0.53688  0.11851  1.0000
  C   C12       1.0  0.24804  0.38430999999999993  0.19352  1.0000
  C   C13       1.0  0.19224  0.62723  0.24900999999999998  1.0000
  C   C14       1.0  0.26097  0.42771999999999993  0.05731  1.0000
  C   C15       1.0  0.77087  0.78572  0.24338  1.0000
  C   C16       1.0  0.87755  0.8354  0.25983  1.0000
  C   C17       1.0  0.82145  0.9085899999999999  0.2773  1.0000
  C   C18       1.0  0.65961  0.9345199999999999  0.27914  1.0000
  C   C19       1.0  0.55361  0.88652  0.26304  1.0000
  C   C20       1.0  0.60643  0.81326  0.24537999999999996  1.0000
  C   C21       1.0  0.73406  0.42276  0.37145  1.0000
  C   C22       1.0  0.04333000000000001  0.2056  0.42504  1.0000
  C   C23       1.0  0.43749  0.57598  0.44979  1.0000
  C   C24       1.0  0.74932  0.34843  0.49382  1.0000
  C   C25       1.0  0.03533  0.58118  0.44969  1.0000
  C   C26       1.0  0.44254999999999994  0.19974  0.4255  1.0000
  C   C27       1.0  0.47518  0.16814999999999997  0.32423  1.0000
  C   C28       1.0  0.44466  0.53395  0.30133  1.0000
  C   C29       1.0  0.02467  0.50348  0.30308  1.0000
  C   C30       1.0  0.03482  0.13931  0.31158  1.0000
  C   C31       1.0  0.23140999999999998  0.03704  0.38149  1.0000
  C   C32       1.0  0.25236  0.8832399999999999  0.30645  1.0000
  C   C33       1.0  0.30866  0.12842  0.25114  1.0000
  C   C34       1.0  0.23929999999999993  0.9274999999999999  0.44257  1.0000
  C   C35       1.0  0.73049  0.28612  0.25663  1.0000
  C   C36       1.0  0.6235799999999999  0.33579  0.24019  1.0000
  C   C37       1.0  0.67937  0.40904  0.22271999999999997  1.0000
  C   C38       1.0  0.84121  0.43454999999999994  0.22082  1.0000
  C   C39       1.0  0.94747  0.38639  0.23689  1.0000
  C   C40       1.0  0.89501  0.31306  0.25455  1.0000
  C   C41       1.0  0.23352  0.07572  0.87131  1.0000
  C   C42       1.0  0.54293  0.29427  0.92494  1.0000
  C   C43       1.0  0.9374700000000001  0.9246399999999999  0.94996  1.0000
  C   C44       1.0  0.2502  0.15197  0.99375  1.0000
  C   C45       1.0  0.5353  0.9184499999999998  0.94966  1.0000
  C   C46       1.0  0.9422799999999999  0.3002  0.92542  1.0000
  C   C47       1.0  0.97314  0.33019  0.82409  1.0000
  C   C48       1.0  0.94498  0.9636299999999999  0.80118  1.0000
  C   C49       1.0  0.52455  0.9960199999999999  0.80288  1.0000
  C   C50       1.0  0.5333600000000001  0.35976  0.81163  1.0000
  C   C51       1.0  0.73063  0.46311  0.88149  1.0000
  C   C52       1.0  0.75196  0.61569  0.80649  1.0000
  C   C53       1.0  0.80776  0.37277  0.75099  1.0000
  C   C54       1.0  0.73902  0.57228  0.94269  1.0000
  C   C55       1.0  0.22912  0.21428  0.75662  1.0000
  C   C56       1.0  0.12243999999999997  0.1646  0.74017  1.0000
  C   C57       1.0  0.17854999999999996  0.09141  0.7227  1.0000
  C   C58       1.0  0.34039  0.06548  0.72086  1.0000
  C   C59       1.0  0.44639  0.11348  0.73697  1.0000
  C   C60       1.0  0.39356  0.18673999999999993  0.7546299999999999  1.0000
  C   C61       1.0  0.26594  0.5772399999999999  0.62855  1.0000
  C   C62       1.0  0.95667  0.7944  0.57496  1.0000
  C   C63       1.0  0.5625  0.42402  0.55021  1.0000
  C   C64       1.0  0.25067  0.6515699999999999  0.50618  1.0000
  C   C65       1.0  0.96467  0.4188199999999999  0.55031  1.0000
  C   C66       1.0  0.55744  0.80026  0.5745  1.0000
  C   C67       1.0  0.52481  0.8318399999999998  0.67577  1.0000
  C   C68       1.0  0.55533  0.46605  0.69867  1.0000
  C   C69       1.0  0.9753200000000001  0.49652  0.69692  1.0000
  C   C70       1.0  0.96517  0.86069  0.68842  1.0000
  C   C71       1.0  0.76858  0.9629599999999999  0.61851  1.0000
  C   C72       1.0  0.74764  0.11676  0.69355  1.0000
  C   C73       1.0  0.69133  0.87158  0.74886  1.0000
  C   C74       1.0  0.76069  0.0725  0.55743  1.0000
  C   C75       1.0  0.2695  0.7138799999999997  0.74337  1.0000
  C   C76       1.0  0.3764199999999999  0.6642  0.75981  1.0000
  C   C77       1.0  0.32062  0.59096  0.77728  1.0000
  C   C78       1.0  0.15877999999999998  0.56544  0.77918  1.0000
  C   C79       1.0  0.05251999999999999  0.61361  0.76312  1.0000
  C   C80       1.0  0.10498000000000002  0.6869399999999999  0.74545  1.0000
  N   N1        1.0  0.75975  0.93372  0.10844  1.0000
  N   N2        1.0  0.56518  0.7685  0.07289  1.0000
  N   N3        1.0  0.95468  0.03135  0.05949  1.0000
  N   N4        1.0  0.75809  0.8554699999999997  0.02654  1.0000
  N   N5        1.0  0.5704  0.03706  0.05957  1.0000
  N   N6        1.0  0.9504099999999999  0.7629699999999999  0.07241  1.0000
  N   N7        1.0  0.9192899999999999  0.73362  0.17465  1.0000
  N   N8        1.0  0.9494000000000001  0.00509  0.18779999999999997  1.0000
  N   N9        1.0  0.57583  0.95067  0.18771  1.0000
  N   N10       1.0  0.58841  0.6620599999999999  0.19625999999999996  1.0000
  N   N11       1.0  0.27309  0.52585  0.13879  1.0000
  N   N12       1.0  0.27272  0.29064  0.20153  1.0000
  N   N13       1.0  0.14656  0.65228  0.23047  1.0000
  N   N14       1.0  0.26556  0.34516  0.04497000000000001  1.0000
  N   N15       1.0  0.82216  0.71539  0.22624  1.0000
  N   N16       1.0  0.74058  0.43258  0.3917  1.0000
  N   N17       1.0  0.9345699999999999  0.26783999999999997  0.4273  1.0000
  N   N18       1.0  0.54548  0.53236  0.44028  1.0000
  N   N19       1.0  0.74098  0.35684  0.47354  1.0000
  N   N20       1.0  0.9300299999999999  0.53672  0.44039  1.0000
  N   N21       1.0  0.54988  0.26263  0.42778000000000005  1.0000
  N   N22       1.0  0.58372  0.23080999999999996  0.32558  1.0000
  N   N23       1.0  0.55015  0.50211  0.31233  1.0000
  N   N24       1.0  0.9247  0.44957  0.31243  1.0000
  N   N25       1.0  0.9132  0.16082999999999997  0.30359  1.0000
  N   N26       1.0  0.22699  0.025359999999999997  0.36122999999999994  1.0000
  N   N27       1.0  0.22717999999999997  0.7896699999999999  0.29845000000000005  1.0000
  N   N28       1.0  0.35473  0.15291  0.26968  1.0000
  N   N29       1.0  0.23467000000000005  0.84481  0.45488  1.0000
  N   N30       1.0  0.67927  0.21593999999999994  0.27379  1.0000
  N   N31       1.0  0.24024000000000004  0.06628  0.89157  1.0000
  N   N32       1.0  0.43482  0.23149  0.92711  1.0000
  N   N33       1.0  0.045310000000000024  0.96865  0.94051  1.0000
  N   N34       1.0  0.2419  0.14453  0.97346  1.0000
  N   N35       1.0  0.4296  0.9629399999999999  0.94043  1.0000
  N   N36       1.0  0.04958  0.23703  0.92759  1.0000
  N   N37       1.0  0.0807  0.26638  0.82535  1.0000
  N   N38       1.0  0.05058999999999999  0.9949  0.81221  1.0000
  N   N39       1.0  0.42416999999999994  0.04932999999999999  0.8123  1.0000
  N   N40       1.0  0.41158  0.33793  0.80374  1.0000
  N   N41       1.0  0.7269  0.47415  0.86121  1.0000
  N   N42       1.0  0.72727  0.7093599999999999  0.79847  1.0000
  N   N43       1.0  0.85344  0.34772  0.76953  1.0000
  N   N44       1.0  0.73443  0.65484  0.95503  1.0000
  N   N45       1.0  0.17784  0.28461  0.77376  1.0000
  N   N46       1.0  0.25941000000000003  0.56742  0.6082999999999998  1.0000
  N   N47       1.0  0.06542000000000002  0.73216  0.57271  1.0000
  N   N48       1.0  0.45450999999999997  0.46764  0.55972  1.0000
  N   N49       1.0  0.25902  0.64316  0.52646  1.0000
  N   N50       1.0  0.06996  0.46328  0.55961  1.0000
  N   N51       1.0  0.45012000000000013  0.7373699999999997  0.57222  1.0000
  N   N52       1.0  0.41627  0.76919  0.67443  1.0000
  N   N53       1.0  0.44985  0.4978799999999999  0.68767  1.0000
  N   N54       1.0  0.07529  0.55043  0.68757  1.0000
  N   N55       1.0  0.08678999999999999  0.83917  0.6964200000000002  1.0000
  N   N56       1.0  0.77301  0.97464  0.63877  1.0000
  N   N57       1.0  0.77281  0.21032999999999996  0.70155  1.0000
  N   N58       1.0  0.6452600000000001  0.8470899999999999  0.73032  1.0000
  N   N59       1.0  0.76533  0.15519  0.54512  1.0000
  N   N60       1.0  0.32073000000000007  0.78405  0.72621  1.0000
