data_image0
_chemical_formula_structural       Cd6H44C84O24
_chemical_formula_sum              "Cd6 H44 C84 O24"
_cell_length_a       10.15044
_cell_length_b       11.089739999999999
_cell_length_c       24.25665
_cell_angle_alpha    96.91411
_cell_angle_beta     90.08190000000002
_cell_angle_gamma    116.93767

_symmetry_space_group_name_H-M    'P 1'
_symmetry_Int_Tables_number       1

loop_
  _symmetry_equiv_pos_as_xyz
  'x,y,z'

loop_
  _atom_site_type_symbol
  _atom_site_label
  _atom_site_symmetry_multiplicity
  _atom_site_fract_x
  _atom_site_fract_y
  _atom_site_fract_z
  _atom_site_occupancy
  Cd  Cd1       1.0  0.37089000000000005  0.82608  0.02086  1.0000
  Cd  Cd2       1.0  0.54091  0.17249  0.47823  1.0000
  Cd  Cd3       1.0  0.6291099999999997  0.17391  0.97914  1.0000
  Cd  Cd4       1.0  0.45909000000000005  0.8275  0.52177  1.0000
  Cd  Cd5       1.0  0.0  0.5  0.0  1.0000
  Cd  Cd6       1.0  0.5  0.5  0.5  1.0000
  H   H1        1.0  0.42106  0.7196  0.20492  1.0000
  H   H2        1.0  0.35717  0.5733600000000001  0.28053  1.0000
  H   H3        1.0  0.9844699999999998  0.26197000000000004  0.17691  1.0000
  H   H4        1.0  0.04695000000000007  0.4093200000000001  0.10344  1.0000
  H   H5        1.0  0.35742  0.3969  0.3107  1.0000
  H   H6        1.0  0.30164  0.24319  0.38096  1.0000
  H   H7        1.0  0.83893  0.05103  0.32627  1.0000
  H   H8        1.0  0.8935599999999999  0.21217000000000003  0.25867  1.0000
  H   H9        1.0  0.25998  0.04637  0.39332  1.0000
  H   H10       1.0  0.97196  0.75055  0.49303  1.0000
  H   H11       1.0  0.8087  0.98082  0.40956999999999993  1.0000
  H   H12       1.0  0.7044  0.27865  0.29322  1.0000
  H   H13       1.0  0.7881000000000001  0.4273600000000001  0.21848999999999996  1.0000
  H   H14       1.0  0.71961  0.73581  0.32227  1.0000
  H   H15       1.0  0.63044  0.58454  0.39445  1.0000
  H   H16       1.0  0.9634100000000002  0.6037200000000001  0.1898  1.0000
  H   H17       1.0  0.06173000000000002  0.75836  0.11981  1.0000
  H   H18       1.0  0.7897799999999999  0.95111  0.17375  1.0000
  H   H19       1.0  0.68268  0.78904  0.24092  1.0000
  H   H20       1.0  0.21463  0.955  0.10687  1.0000
  H   H21       1.0  0.21616  0.24716000000000002  0.00582  1.0000
  H   H22       1.0  0.8268000000000001  0.01806  0.09044  1.0000
  H   H23       1.0  0.57894  0.2804  0.79508  1.0000
  H   H24       1.0  0.6428299999999999  0.42664  0.7194700000000002  1.0000
  H   H25       1.0  0.015540000000000049  0.7380200000000001  0.82308  1.0000
  H   H26       1.0  0.95306  0.59068  0.89656  1.0000
  H   H27       1.0  0.64259  0.60309  0.6893  1.0000
  H   H28       1.0  0.69837  0.75681  0.61904  1.0000
  H   H29       1.0  0.1610699999999999  0.94897  0.67373  1.0000
  H   H30       1.0  0.10645  0.78783  0.74133  1.0000
  H   H31       1.0  0.7400300000000001  0.9536300000000001  0.60668  1.0000
  H   H32       1.0  0.02804000000000001  0.24945000000000006  0.50697  1.0000
  H   H33       1.0  0.19131000000000004  0.01918000000000002  0.59043  1.0000
  H   H34       1.0  0.29561  0.72134  0.70678  1.0000
  H   H35       1.0  0.21191  0.57264  0.78151  1.0000
  H   H36       1.0  0.28039  0.26419  0.67773  1.0000
  H   H37       1.0  0.36956000000000006  0.41546000000000005  0.60555  1.0000
  H   H38       1.0  0.03659000000000004  0.3962800000000001  0.8102  1.0000
  H   H39       1.0  0.93827  0.24164  0.88019  1.0000
  H   H40       1.0  0.21021999999999996  0.04887999999999999  0.82624  1.0000
  H   H41       1.0  0.31732  0.21095000000000003  0.75908  1.0000
  H   H42       1.0  0.78537  0.04498999999999998  0.89313  1.0000
  H   H43       1.0  0.78385  0.7528400000000002  0.99418  1.0000
  H   H44       1.0  0.17320000000000008  0.98194  0.9095600000000001  1.0000
  C   C1        1.0  0.28084000000000003  0.6645700000000001  0.10503  1.0000
  C   C2        1.0  0.23797000000000001  0.57511  0.14934  1.0000
  C   C3        1.0  0.32511  0.61949  0.19975  1.0000
  C   C4        1.0  0.2892  0.53667  0.24163  1.0000
  C   C5        1.0  0.16526999999999994  0.40642  0.23481  1.0000
  C   C6        1.0  0.07817000000000005  0.3632600000000001  0.18429  1.0000
  C   C7        1.0  0.11412  0.4461  0.14235  1.0000
  C   C8        1.0  0.13001000000000004  0.3161700000000001  0.27841  1.0000
  C   C9        1.0  0.24288999999999997  0.32328  0.31443  1.0000
  C   C10       1.0  0.21158  0.2336  0.35357000000000005  1.0000
  C   C11       1.0  0.06656  0.13117  0.35821  1.0000
  C   C12       1.0  0.9529000000000001  0.12724  0.32359  1.0000
  C   C13       1.0  0.98408  0.21789000000000003  0.28472  1.0000
  C   C14       1.0  0.03825000000000001  0.02843000000000002  0.39633000000000007  1.0000
  C   C15       1.0  0.1522699999999999  0.99655  0.41059  1.0000
  C   C16       1.0  0.12970999999999994  0.89909  0.44592  1.0000
  C   C17       1.0  0.9901500000000001  0.82761  0.46626000000000006  1.0000
  C   C18       1.0  0.87495  0.8568  0.45237  1.0000
  C   C19       1.0  0.89952  0.95788  0.41835  1.0000
  C   C20       1.0  0.25307  0.87281  0.46418000000000004  1.0000
  C   C21       1.0  0.7254300000000001  0.7754400000000001  0.47291999999999995  1.0000
  C   C22       1.0  0.61284  0.33027  0.39268000000000003  1.0000
  C   C23       1.0  0.6610100000000001  0.42088  0.34875999999999996  1.0000
  C   C24       1.0  0.70703  0.37849  0.29868  1.0000
  C   C25       1.0  0.75473  0.46269000000000005  0.25726  1.0000
  C   C26       1.0  0.75959  0.59289  0.26441  1.0000
  C   C27       1.0  0.71279  0.6343700000000001  0.31465  1.0000
  C   C28       1.0  0.66408  0.54957  0.35586999999999996  1.0000
  C   C29       1.0  0.8156299999999999  0.6844700000000001  0.22136  1.0000
  C   C30       1.0  0.92232  0.67764  0.18583  1.0000
  C   C31       1.0  0.98078  0.7677400000000001  0.14695  1.0000
  C   C32       1.0  0.9373199999999999  0.87018  0.1422  1.0000
  C   C33       1.0  0.8274800000000001  0.8744200000000001  0.17654  1.0000
  C   C34       1.0  0.76777  0.78329  0.21512  1.0000
  C   C35       1.0  0.01019000000000003  0.9724100000000001  0.10403  1.0000
  C   C36       1.0  0.15543  0.0042099999999999915  0.08966999999999999  1.0000
  C   C37       1.0  0.22835  0.10069999999999998  0.05398  1.0000
  C   C38       1.0  0.1589  0.17093000000000005  0.03302  1.0000
  C   C39       1.0  0.014719999999999997  0.14105  0.04686  1.0000
  C   C40       1.0  0.94035  0.04149  0.08157  1.0000
  C   C41       1.0  0.37724  0.12611  0.03587  1.0000
  C   C42       1.0  0.94432  0.22035  0.0257  1.0000
  C   C43       1.0  0.71916  0.33543  0.89497  1.0000
  C   C44       1.0  0.7620300000000001  0.4248900000000001  0.85066  1.0000
  C   C45       1.0  0.6749000000000002  0.38050000000000006  0.80025  1.0000
  C   C46       1.0  0.7108  0.46333  0.75837  1.0000
  C   C47       1.0  0.8347300000000001  0.59357  0.76519  1.0000
  C   C48       1.0  0.92183  0.63673  0.8157  1.0000
  C   C49       1.0  0.8858800000000001  0.5539  0.85765  1.0000
  C   C50       1.0  0.87  0.68382  0.72159  1.0000
  C   C51       1.0  0.7571100000000001  0.67672  0.68556  1.0000
  C   C52       1.0  0.78843  0.7664000000000002  0.64643  1.0000
  C   C53       1.0  0.93344  0.86882  0.64179  1.0000
  C   C54       1.0  0.0471  0.87276  0.6764  1.0000
  C   C55       1.0  0.015920000000000142  0.7821000000000002  0.71528  1.0000
  C   C56       1.0  0.96175  0.97157  0.60367  1.0000
  C   C57       1.0  0.84774  0.0034500000000000086  0.58941  1.0000
  C   C58       1.0  0.8703  0.10091000000000003  0.55408  1.0000
  C   C59       1.0  0.009850000000000038  0.17238000000000006  0.53373  1.0000
  C   C60       1.0  0.12505  0.14320000000000002  0.54763  1.0000
  C   C61       1.0  0.10048  0.04211  0.58165  1.0000
  C   C62       1.0  0.7469299999999999  0.12718  0.53582  1.0000
  C   C63       1.0  0.27457  0.22455000000000003  0.52708  1.0000
  C   C64       1.0  0.38716  0.66972  0.60732  1.0000
  C   C65       1.0  0.3390000000000001  0.57912  0.65124  1.0000
  C   C66       1.0  0.29298  0.62151  0.70132  1.0000
  C   C67       1.0  0.24527000000000002  0.5373  0.74273  1.0000
  C   C68       1.0  0.24042000000000005  0.4071100000000001  0.7355900000000001  1.0000
  C   C69       1.0  0.28721  0.36563  0.6853499999999999  1.0000
  C   C70       1.0  0.3359200000000001  0.45043000000000005  0.64413  1.0000
  C   C71       1.0  0.18436999999999998  0.31553000000000003  0.77864  1.0000
  C   C72       1.0  0.07768  0.32236  0.81417  1.0000
  C   C73       1.0  0.019229999999999976  0.23225000000000004  0.85305  1.0000
  C   C74       1.0  0.06268  0.12982  0.8578  1.0000
  C   C75       1.0  0.17252000000000003  0.12558000000000002  0.8234600000000001  1.0000
  C   C76       1.0  0.23223  0.21671000000000007  0.78488  1.0000
  C   C77       1.0  0.9898099999999999  0.027590000000000007  0.89597  1.0000
  C   C78       1.0  0.8445700000000002  0.9957900000000001  0.91032  1.0000
  C   C79       1.0  0.77165  0.89929  0.94602  1.0000
  C   C80       1.0  0.8411  0.82906  0.96698  1.0000
  C   C81       1.0  0.9852800000000002  0.85894  0.95314  1.0000
  C   C82       1.0  0.05965000000000013  0.9585100000000002  0.9184300000000001  1.0000
  C   C83       1.0  0.6227600000000001  0.8738900000000001  0.96413  1.0000
  C   C84       1.0  0.05569  0.77965  0.9742999999999999  1.0000
  O   O1        1.0  0.2103  0.62117  0.05586  1.0000
  O   O2        1.0  0.38745  0.78363  0.11396  1.0000
  O   O3        1.0  0.38719  0.94936  0.45245  1.0000
  O   O4        1.0  0.22445000000000004  0.7751000000000001  0.49233000000000005  1.0000
  O   O5        1.0  0.6194  0.80089  0.46061  1.0000
  O   O6        1.0  0.71332  0.6783200000000003  0.50009  1.0000
  O   O7        1.0  0.57257  0.36995  0.43991  1.0000
  O   O8        1.0  0.60985  0.21442000000000003  0.38539  1.0000
  O   O9        1.0  0.43435  0.04873  0.047540000000000006  1.0000
  O   O10       1.0  0.44587000000000004  0.22427000000000002  0.00792  1.0000
  O   O11       1.0  0.81384  0.19505  0.03904  1.0000
  O   O12       1.0  0.026110000000000043  0.31526000000000004  0.9972  1.0000
  O   O13       1.0  0.7896999999999998  0.37883  0.94414  1.0000
  O   O14       1.0  0.61255  0.21636000000000002  0.88604  1.0000
  O   O15       1.0  0.61282  0.05064  0.54755  1.0000
  O   O16       1.0  0.77555  0.2249  0.50767  1.0000
  O   O17       1.0  0.3806000000000001  0.1991  0.53938  1.0000
  O   O18       1.0  0.28668  0.3216800000000001  0.49991  1.0000
  O   O19       1.0  0.42744  0.63004  0.56008  1.0000
  O   O20       1.0  0.39015000000000016  0.7855800000000002  0.61461  1.0000
  O   O21       1.0  0.56565  0.95127  0.95246  1.0000
  O   O22       1.0  0.55413  0.7757300000000003  0.9920800000000001  1.0000
  O   O23       1.0  0.18616000000000008  0.8049500000000002  0.9609599999999999  1.0000
  O   O24       1.0  0.97389  0.68473  0.0028  1.0000
