data_image0
_chemical_formula_structural       Mn4H76C108N8O16
_chemical_formula_sum              "Mn4 H76 C108 N8 O16"
_cell_length_a       9.91969
_cell_length_b       11.768219999999998
_cell_length_c       22.9951
_cell_angle_alpha    90.09620000000001
_cell_angle_beta     90.11906
_cell_angle_gamma    101.27678

_space_group_name_H-M_alt    "P 1"
_space_group_IT_number       1

loop_
  _space_group_symop_operation_xyz
  'x, y, z'

loop_
  _atom_site_type_symbol
  _atom_site_label
  _atom_site_symmetry_multiplicity
  _atom_site_fract_x
  _atom_site_fract_y
  _atom_site_fract_z
  _atom_site_occupancy
  Mn  Mn1       1.0  0.57995  0.88131  0.9499700000000001  1.0000
  Mn  Mn2       1.0  0.41786999999999996  0.61721  0.45014  1.0000
  Mn  Mn3       1.0  0.41909  0.11759  0.04966000000000001  1.0000
  Mn  Mn4       1.0  0.5806  0.38325  0.54939  1.0000
  H   H1        1.0  0.85485  0.98933  0.00531  1.0000
  H   H2        1.0  0.023639999999999998  0.17415  0.01331  1.0000
  H   H3        1.0  0.7847599999999999  0.31398  0.88325  1.0000
  H   H4        1.0  0.62709  0.12119  0.88042  1.0000
  H   H5        1.0  0.9866699999999999  0.43594999999999995  0.9181600000000002  1.0000
  H   H6        1.0  0.15730999999999998  0.33846  0.01163  1.0000
  H   H7        1.0  0.35653  0.47431  0.04718  1.0000
  H   H8        1.0  0.52015  0.66497  0.03822  1.0000
  H   H9        1.0  0.29986  0.76664  0.9019  1.0000
  H   H10       1.0  0.12483999999999999  0.58457  0.9057500000000003  1.0000
  H   H11       1.0  0.010899999999999976  0.7723899999999999  0.89616  1.0000
  H   H12       1.0  0.16342  0.70212  0.82407  1.0000
  H   H13       1.0  0.66964  0.68938  0.7776700000000001  1.0000
  H   H14       1.0  0.08297999999999997  0.46066999999999997  0.80659  1.0000
  H   H15       1.0  0.25904  0.52392  0.81577  1.0000
  H   H16       1.0  0.212  0.38904999999999995  0.77954  1.0000
  H   H17       1.0  0.33823  0.45142  0.6910400000000001  1.0000
  H   H18       1.0  0.18914999999999998  0.68491  0.57554  1.0000
  H   H19       1.0  0.026260000000000006  0.72312  0.65253  1.0000
  H   H20       1.0  0.14274  0.50829  0.50618  1.0000
  H   H21       1.0  0.9748299999999999  0.323  0.51327  1.0000
  H   H22       1.0  0.21372  0.18546  0.38255  1.0000
  H   H23       1.0  0.36982999999999994  0.37898  0.38039000000000006  1.0000
  H   H24       1.0  0.012919999999999997  0.061659999999999986  0.41772  1.0000
  H   H25       1.0  0.84136  0.16033  0.51021  1.0000
  H   H26       1.0  0.64269  0.02528  0.54616  1.0000
  H   H27       1.0  0.47983999999999993  0.8340099999999999  0.53806  1.0000
  H   H28       1.0  0.69914  0.7294  0.4024  1.0000
  H   H29       1.0  0.8733099999999999  0.9122799999999999  0.40541  1.0000
  H   H30       1.0  0.98226  0.72701  0.39633000000000007  1.0000
  H   H31       1.0  0.8326  0.7978499999999998  0.32309  1.0000
  H   H32       1.0  0.32765999999999995  0.80998  0.28074000000000005  1.0000
  H   H33       1.0  0.9153699999999999  0.04059  0.30720000000000003  1.0000
  H   H34       1.0  0.73915  0.9772899999999999  0.31479  1.0000
  H   H35       1.0  0.7873899999999998  0.11226999999999998  0.27921  1.0000
  H   H36       1.0  0.66384  0.05122999999999999  0.19  1.0000
  H   H37       1.0  0.8093099999999999  0.8137199999999999  0.07567  1.0000
  H   H38       1.0  0.97233  0.77584  0.15302  1.0000
  H   H39       1.0  0.14468  0.009730000000000003  0.9941600000000002  1.0000
  H   H40       1.0  0.9755899999999998  0.82501  0.9864100000000001  1.0000
  H   H41       1.0  0.21420999999999998  0.6856799999999998  0.1168  1.0000
  H   H42       1.0  0.37218  0.87838  0.11930000000000002  1.0000
  H   H43       1.0  0.012220000000000005  0.56355  0.08186  1.0000
  H   H44       1.0  0.84184  0.66079  0.98821  1.0000
  H   H45       1.0  0.64166  0.52528  0.95313  1.0000
  H   H46       1.0  0.4779  0.33477  0.96226  1.0000
  H   H47       1.0  0.6992099999999999  0.23279  0.09816  1.0000
  H   H48       1.0  0.87451  0.41462999999999994  0.09405  1.0000
  H   H49       1.0  0.9897599999999999  0.22661  0.10405  1.0000
  H   H50       1.0  0.83781  0.2983  0.17559000000000002  1.0000
  H   H51       1.0  0.33028  0.30716999999999994  0.22303  1.0000
  H   H52       1.0  0.91757  0.53955  0.19308  1.0000
  H   H53       1.0  0.74176  0.47595  0.18372  1.0000
  H   H54       1.0  0.78817  0.61081  0.21993  1.0000
  H   H55       1.0  0.6618  0.54863  0.30839  1.0000
  H   H56       1.0  0.8106199999999999  0.31568  0.42423  1.0000
  H   H57       1.0  0.97407  0.27757  0.34756  1.0000
  H   H58       1.0  0.85537  0.49196  0.49378000000000005  1.0000
  H   H59       1.0  0.02332  0.67714  0.4864900000000001  1.0000
  H   H60       1.0  0.78582  0.81482  0.61768  1.0000
  H   H61       1.0  0.6291199999999999  0.62153  0.61979  1.0000
  H   H62       1.0  0.9867  0.9383399999999998  0.58246  1.0000
  H   H63       1.0  0.15743999999999997  0.8396699999999999  0.48968  1.0000
  H   H64       1.0  0.35667999999999994  0.9744499999999999  0.45387000000000005  1.0000
  H   H65       1.0  0.51872  0.16622  0.46146  1.0000
  H   H66       1.0  0.29979  0.27103  0.59717  1.0000
  H   H67       1.0  0.12621  0.08772  0.59459  1.0000
  H   H68       1.0  0.011259999999999996  0.2722  0.60315  1.0000
  H   H69       1.0  0.16309  0.2028  0.67575  1.0000
  H   H70       1.0  0.66897  0.18933  0.7204600000000002  1.0000
  H   H71       1.0  0.08389000000000005  0.9598  0.69219  1.0000
  H   H72       1.0  0.25978999999999997  0.02414  0.68453  1.0000
  H   H73       1.0  0.21275  0.88907  0.72008  1.0000
  H   H74       1.0  0.33524  0.94972  0.80925  1.0000
  H   H75       1.0  0.18982  0.18699  0.92372  1.0000
  H   H76       1.0  0.02709  0.22496  0.84649  1.0000
  C   C1        1.0  0.8426399999999998  0.06392  0.97942  1.0000
  C   C2        1.0  0.93597  0.16775  0.98393  1.0000
  C   C3        1.0  0.91779  0.26219  0.9491600000000001  1.0000
  C   C4        1.0  0.80342  0.24453  0.91154  1.0000
  C   C5        1.0  0.7151  0.13728999999999994  0.90966  1.0000
  C   C6        1.0  0.013470000000000005  0.37265  0.94844  1.0000
  C   C7        1.0  0.12998  0.40072  0.9806800000000001  1.0000
  C   C8        1.0  0.22576999999999997  0.51121  0.9766500000000002  1.0000
  C   C9        1.0  0.33995999999999993  0.53674  0.014310000000000003  1.0000
  C   C10       1.0  0.43190999999999996  0.64206  0.00928  1.0000
  C   C11       1.0  0.30809  0.69876  0.93307  1.0000
  C   C12       1.0  0.21135999999999996  0.59686  0.9356600000000002  1.0000
  C   C13       1.0  0.7399699999999999  0.7803399999999999  0.88428  1.0000
  C   C14       1.0  0.8305299999999999  0.7338  0.84212  1.0000
  C   C15       1.0  0.9694799999999999  0.73599  0.85485  1.0000
  C   C16       1.0  0.05449999999999999  0.69554  0.81481  1.0000
  C   C17       1.0  0.00341999999999999  0.64986  0.76042  1.0000
  C   C18       1.0  0.77711  0.68989  0.78773  1.0000
  C   C19       1.0  0.86582  0.65107  0.75031  1.0000
  C   C20       1.0  0.09475999999999998  0.6135999999999999  0.71609  1.0000
  C   C21       1.0  0.18265  0.53505  0.7278300000000001  1.0000
  C   C22       1.0  0.18389  0.47402  0.78545  1.0000
  C   C23       1.0  0.27009  0.51204  0.68343  1.0000
  C   C24       1.0  0.27443  0.56615  0.62903  1.0000
  C   C25       1.0  0.37274000000000007  0.54304  0.58347  1.0000
  C   C26       1.0  0.18574  0.64276  0.61771  1.0000
  C   C27       1.0  0.09578999999999997  0.66417  0.66068  1.0000
  C   C28       1.0  0.15499  0.43418  0.47983  1.0000
  C   C29       1.0  0.06227  0.33001  0.48389  1.0000
  C   C30       1.0  0.08068  0.23596  0.44874  1.0000
  C   C31       1.0  0.19466999999999995  0.25445  0.41114000000000006  1.0000
  C   C32       1.0  0.28216  0.36205999999999994  0.40959  1.0000
  C   C33       1.0  0.9854799999999999  0.12519  0.44776  1.0000
  C   C34       1.0  0.86883  0.09741  0.4796400000000001  1.0000
  C   C35       1.0  0.77312  0.9868199999999999  0.47598  1.0000
  C   C36       1.0  0.65929  0.9620499999999998  0.51364  1.0000
  C   C37       1.0  0.56777  0.85634  0.50912  1.0000
  C   C38       1.0  0.69106  0.7979599999999999  0.4333000000000001  1.0000
  C   C39       1.0  0.78728  0.9002299999999999  0.4353800000000001  1.0000
  C   C40       1.0  0.25383999999999995  0.71938  0.38664  1.0000
  C   C41       1.0  0.16458  0.76574  0.34379  1.0000
  C   C42       1.0  0.025260000000000005  0.76345  0.35540000000000005  1.0000
  C   C43       1.0  0.9418  0.8042399999999998  0.31475  1.0000
  C   C44       1.0  0.99487  0.8504299999999999  0.26093  1.0000
  C   C45       1.0  0.21989999999999998  0.80972  0.28989  1.0000
  C   C46       1.0  0.13264999999999996  0.84892  0.25181  1.0000
  C   C47       1.0  0.90475  0.88703  0.21614000000000005  1.0000
  C   C48       1.0  0.81765  0.9663699999999998  0.22745  1.0000
  C   C49       1.0  0.81533  0.02729  0.28515  1.0000
  C   C50       1.0  0.73099  0.98969  0.1827  1.0000
  C   C51       1.0  0.72614  0.93445  0.12851  1.0000
  C   C52       1.0  0.6288700000000002  0.95717  0.08237  1.0000
  C   C53       1.0  0.8136699999999999  0.8567  0.11770000000000001  1.0000
  C   C54       1.0  0.9034499999999999  0.83546  0.16087  1.0000
  C   C55       1.0  0.15677  0.93519  0.02012  1.0000
  C   C56       1.0  0.06331999999999997  0.8314199999999999  0.01576  1.0000
  C   C57       1.0  0.0814  0.73712  0.05066  1.0000
  C   C58       1.0  0.19572  0.75492  0.08832  1.0000
  C   C59       1.0  0.28419  0.86209  0.09005000000000002  1.0000
  C   C60       1.0  0.9855599999999999  0.62673  0.05147  1.0000
  C   C61       1.0  0.8690799999999999  0.59858  0.01922  1.0000
  C   C62       1.0  0.77314  0.4881699999999999  0.02335  1.0000
  C   C63       1.0  0.6585299999999998  0.46278  0.98591  1.0000
  C   C64       1.0  0.56647  0.35753999999999997  0.9910300000000002  1.0000
  C   C65       1.0  0.69084  0.30063999999999996  0.067  1.0000
  C   C66       1.0  0.78772  0.40243  0.06428  1.0000
  C   C67       1.0  0.25995  0.21729  0.11596  1.0000
  C   C68       1.0  0.16989000000000004  0.26405  0.15828  1.0000
  C   C69       1.0  0.031289999999999984  0.26293  0.14534  1.0000
  C   C70       1.0  0.9464699999999999  0.30419  0.18515  1.0000
  C   C71       1.0  0.99734  0.34971  0.23959  1.0000
  C   C72       1.0  0.22309999999999997  0.30753  0.21277000000000004  1.0000
  C   C73       1.0  0.1346  0.34727  0.24999000000000002  1.0000
  C   C74       1.0  0.90591  0.38667  0.28371  1.0000
  C   C75       1.0  0.81784  0.4650599999999999  0.27182  1.0000
  C   C76       1.0  0.81658  0.52593  0.21414  1.0000
  C   C77       1.0  0.73013  0.4882  0.31614  1.0000
  C   C78       1.0  0.7254399999999999  0.43431  0.37061  1.0000
  C   C79       1.0  0.6269  0.45725999999999994  0.41622000000000003  1.0000
  C   C80       1.0  0.81426  0.35783999999999994  0.38206000000000007  1.0000
  C   C81       1.0  0.90457  0.33646  0.33923  1.0000
  C   C82       1.0  0.84341  0.56605  0.52021  1.0000
  C   C83       1.0  0.93623  0.67015  0.51607  1.0000
  C   C84       1.0  0.91834  0.7641699999999999  0.55134  1.0000
  C   C85       1.0  0.8044899999999999  0.7458  0.58902  1.0000
  C   C86       1.0  0.7167299999999999  0.63829  0.5905600000000001  1.0000
  C   C87       1.0  0.013820000000000042  0.87481  0.5523500000000001  1.0000
  C   C88       1.0  0.13038999999999995  0.90255  0.52038  1.0000
  C   C89       1.0  0.22622  0.01308  0.52402  1.0000
  C   C90       1.0  0.33995999999999993  0.03783  0.48629000000000006  1.0000
  C   C91       1.0  0.4310399999999999  0.14383  0.49052  1.0000
  C   C92       1.0  0.3079  0.20234999999999997  0.56635  1.0000
  C   C93       1.0  0.21209  0.09980999999999998  0.56454  1.0000
  C   C94       1.0  0.74031  0.2799  0.6137  1.0000
  C   C95       1.0  0.8301399999999999  0.23355  0.65639  1.0000
  C   C96       1.0  0.96928  0.23596999999999999  0.64427  1.0000
  C   C97       1.0  0.05405999999999999  0.19588  0.68462  1.0000
  C   C98       1.0  0.0027400000000000002  0.15012  0.73875  1.0000
  C   C99       1.0  0.7765199999999999  0.18998999999999996  0.71067  1.0000
  C   C100      1.0  0.8650499999999999  0.15146  0.74844  1.0000
  C   C101      1.0  0.09421  0.11397999999999998  0.78323  1.0000
  C   C102      1.0  0.18147  0.0347  0.7719  1.0000
  C   C103      1.0  0.18401  0.97376  0.7142000000000002  1.0000
  C   C104      1.0  0.26823  0.01131  0.81666  1.0000
  C   C105      1.0  0.27337  0.06621  0.87096  1.0000
  C   C106      1.0  0.37057999999999996  0.04299  0.9172100000000001  1.0000
  C   C107      1.0  0.1859  0.1441  0.88169  1.0000
  C   C108      1.0  0.09609  0.16548  0.83853  1.0000
  N   N1        1.0  0.41828  0.72234  0.9690300000000002  1.0000
  N   N2        1.0  0.73291  0.04733  0.9430900000000001  1.0000
  N   N3        1.0  0.58146  0.7748999999999999  0.4693600000000001  1.0000
  N   N4        1.0  0.26417  0.4516  0.44343  1.0000
  N   N5        1.0  0.58036  0.27715  0.03119  1.0000
  N   N6        1.0  0.26651  0.95183  0.05643  1.0000
  N   N7        1.0  0.41708  0.22558999999999998  0.53006  1.0000
  N   N8        1.0  0.7344199999999997  0.54867  0.55671  1.0000
  O   O1        1.0  0.62537  0.8009899999999999  0.86621  1.0000
  O   O2        1.0  0.77944  0.79931  0.93718  1.0000
  O   O3        1.0  0.43162  0.4569999999999999  0.59142  1.0000
  O   O4        1.0  0.39297  0.61177  0.54017  1.0000
  O   O5        1.0  0.3677199999999999  0.6967499999999999  0.36879  1.0000
  O   O6        1.0  0.21477  0.70274  0.43951  1.0000
  O   O7        1.0  0.57362  0.04568  0.08867000000000003  1.0000
  O   O8        1.0  0.60659  0.88565  0.04006  1.0000
  O   O9        1.0  0.37335999999999997  0.19403999999999996  0.13397  1.0000
  O   O10       1.0  0.22112  0.20092999999999997  0.06283  1.0000
  O   O11       1.0  0.56773  0.54321  0.4085  1.0000
  O   O12       1.0  0.60702  0.3884  0.45949000000000007  1.0000
  O   O13       1.0  0.62656  0.30277  0.63147  1.0000
  O   O14       1.0  0.7792999999999999  0.29686  0.56076  1.0000
  O   O15       1.0  0.4256799999999999  0.9543199999999998  0.91105  1.0000
  O   O16       1.0  0.39306  0.11435  0.9596  1.0000
