data_image0
_chemical_formula_structural       Cd3H54C90N6Cl12O6
_chemical_formula_sum              "Cd3 H54 C90 N6 Cl12 O6"
_cell_length_a       10.15473
_cell_length_b       19.16957
_cell_length_c       21.047439999999998
_cell_angle_alpha    67.29312999999999
_cell_angle_beta     86.10229000000001
_cell_angle_gamma    83.91334

_symmetry_space_group_name_H-M    'P 1'
_symmetry_Int_Tables_number       1

loop_
  _symmetry_equiv_pos_as_xyz
  'x,y,z'

loop_
  _atom_site_type_symbol
  _atom_site_label
  _atom_site_symmetry_multiplicity
  _atom_site_fract_x
  _atom_site_fract_y
  _atom_site_fract_z
  _atom_site_occupancy
  Cd  Cd1       1.0  0.9931999999999997  0.16175999999999996  0.09487  1.0000
  Cd  Cd2       1.0  0.7198399999999998  0.09959999999999998  0.00816  1.0000
  Cd  Cd3       1.0  0.35693  0.12745000000000004  0.05249  1.0000
  H   H1        1.0  0.44689  0.23861  0.11691999999999998  1.0000
  H   H2        1.0  0.5222299999999999  0.24249  0.22643  1.0000
  H   H3        1.0  0.53457  0.9975800000000002  0.31353  1.0000
  H   H4        1.0  0.46502999999999994  0.004590000000000007  0.19896  1.0000
  H   H5        1.0  0.7609  0.03332  0.31395  1.0000
  H   H6        1.0  0.9707199999999999  0.96464  0.50197  1.0000
  H   H7        1.0  0.8044299999999999  0.04124  0.54517  1.0000
  H   H8        1.0  0.39270999999999995  0.20214  0.34016  1.0000
  H   H9        1.0  0.65273  0.26243999999999995  0.44349000000000005  1.0000
  H   H10       1.0  0.69236  0.38362  0.45187  1.0000
  H   H11       1.0  0.6690099999999999  0.27928  0.67296  1.0000
  H   H12       1.0  0.5793699999999999  0.02049999999999999  0.71906  1.0000
  H   H13       1.0  0.5203399999999999  0.06327999999999992  0.9159900000000001  1.0000
  H   H14       1.0  0.46955  0.07781999999999994  0.7965  1.0000
  H   H15       1.0  0.83457  0.18498000000000003  0.7275  1.0000
  H   H16       1.0  0.86581  0.16908999999999996  0.84951  1.0000
  H   H17       1.0  0.23167999999999997  0.24489999999999992  0.9084500000000001  1.0000
  H   H18       1.0  0.1758  0.24947  0.79237  1.0000
  H   H19       1.0  0.23685  0.004579999999999968  0.87498  1.0000
  H   H20       1.0  0.29257000000000005  0.01145999999999997  0.9865  1.0000
  H   H21       1.0  0.01906  0.029689999999999963  0.8451100000000001  1.0000
  H   H22       1.0  0.848  0.9664799999999999  0.69612  1.0000
  H   H23       1.0  0.9796999999999999  0.05621999999999998  0.60235  1.0000
  H   H24       1.0  0.33053000000000005  0.20895  0.711  1.0000
  H   H25       1.0  0.05390000000000002  0.27754  0.56348  1.0000
  H   H26       1.0  0.9553299999999998  0.39708999999999983  0.47718000000000005  1.0000
  H   H27       1.0  0.99272  0.29877  0.32404  1.0000
  H   H28       1.0  0.19409  0.04501  0.4427400000000001  1.0000
  H   H29       1.0  0.21229000000000003  0.10980999999999999  0.20955000000000001  1.0000
  H   H30       1.0  0.26619  0.11122999999999997  0.32314  1.0000
  H   H31       1.0  0.86048  0.19720999999999997  0.33996  1.0000
  H   H32       1.0  0.8248999999999999  0.19247999999999996  0.22546  1.0000
  H   H33       1.0  0.70437  0.24292  0.04903  1.0000
  H   H34       1.0  0.5576  0.36062  0.02946  1.0000
  H   H35       1.0  0.86794  0.44509  0.10369000000000002  1.0000
  H   H36       1.0  0.005909999999999996  0.32355  0.11749999999999998  1.0000
  H   H37       1.0  0.63374  0.46656  0.16336  1.0000
  H   H38       1.0  0.65319  0.46858000000000005  0.93327  1.0000
  H   H39       1.0  0.3698599999999999  0.6517500000000002  0.82361  1.0000
  H   H40       1.0  0.31745  0.6796599999999998  0.92862  1.0000
  H   H41       1.0  0.013389999999999999  0.03183  0.04322  1.0000
  H   H42       1.0  0.16797  0.91678  0.06902  1.0000
  H   H43       1.0  0.8653999999999997  0.81424  0.00802  1.0000
  H   H44       1.0  0.7152099999999998  0.93084  0.99511  1.0000
  H   H45       1.0  0.28100999999999987  0.86126  0.9949100000000001  1.0000
  H   H46       1.0  0.23270000000000005  0.53025  0.11218  1.0000
  H   H47       1.0  0.012080000000000002  0.50008  0.16905  1.0000
  H   H48       1.0  0.8998799999999999  0.7369499999999998  0.12045  1.0000
  H   H49       1.0  0.39334  0.21407  0.49923  1.0000
  H   H50       1.0  0.52615  0.009699999999999986  0.56134  1.0000
  H   H51       1.0  0.40175000000000005  0.24141999999999997  0.60041  1.0000
  H   H52       1.0  0.27015  0.028149999999999984  0.60801  1.0000
  H   H53       1.0  0.51796  0.5436099999999999  0.20813000000000004  1.0000
  H   H54       1.0  0.4877099999999999  0.8124699999999999  0.9860600000000002  1.0000
  C   C1        1.0  0.46973  0.18678  0.16163  1.0000
  C   C2        1.0  0.5105399999999999  0.18840999999999994  0.22274  1.0000
  C   C3        1.0  0.53378  0.11999999999999998  0.27974  1.0000
  C   C4        1.0  0.5189  0.052239999999999995  0.27108  1.0000
  C   C5        1.0  0.47898  0.05561999999999998  0.20784  1.0000
  C   C6        1.0  0.56083  0.12146  0.34746  1.0000
  C   C7        1.0  0.6682799999999999  0.07639000000000001  0.3895  1.0000
  C   C8        1.0  0.76621  0.03317999999999999  0.36542  1.0000
  C   C9        1.0  0.8725000000000002  0.9939999999999999  0.40575  1.0000
  C   C10       1.0  0.8856999999999999  0.9955999999999999  0.47150000000000003  1.0000
  C   C11       1.0  0.79233  0.03818000000000002  0.49541  1.0000
  C   C12       1.0  0.6816499999999998  0.08016000000000002  0.45583  1.0000
  C   C13       1.0  0.5886799999999999  0.12746999999999994  0.47964000000000007  1.0000
  C   C14       1.0  0.48747  0.17145999999999997  0.43609  1.0000
  C   C15       1.0  0.47585999999999995  0.16832  0.37069  1.0000
  C   C16       1.0  0.6017600000000001  0.13167999999999996  0.54798  1.0000
  C   C17       1.0  0.63556  0.19972  0.55352  1.0000
  C   C18       1.0  0.65602  0.26575  0.49373000000000006  1.0000
  C   C19       1.0  0.67797  0.33345  0.49809  1.0000
  C   C20       1.0  0.68199  0.33731  0.56355  1.0000
  C   C21       1.0  0.6657499999999998  0.2744  0.62337  1.0000
  C   C22       1.0  0.64416  0.20375  0.62012  1.0000
  C   C23       1.0  0.62706  0.13666  0.68088  1.0000
  C   C24       1.0  0.5923  0.07208000000000002  0.67389  1.0000
  C   C25       1.0  0.57707  0.06990999999999993  0.6085  1.0000
  C   C26       1.0  0.58625  0.09048000000000002  0.8722099999999999  1.0000
  C   C27       1.0  0.5593499999999999  0.09828999999999995  0.80576  1.0000
  C   C28       1.0  0.6480299999999999  0.13303  0.75109  1.0000
  C   C29       1.0  0.7601800000000001  0.15950000000000006  0.76712  1.0000
  C   C30       1.0  0.7794799999999998  0.14966999999999997  0.83512  1.0000
  C   C31       1.0  0.23245  0.19339999999999993  0.8980900000000002  1.0000
  C   C32       1.0  0.20159999999999992  0.19530000000000003  0.8339099999999999  1.0000
  C   C33       1.0  0.20380999999999996  0.12712999999999997  0.82349  1.0000
  C   C34       1.0  0.23302  0.059140000000000054  0.88003  1.0000
  C   C35       1.0  0.26382999999999995  0.06241000000000003  0.94213  1.0000
  C   C36       1.0  0.18535000000000001  0.12871000000000002  0.75382  1.0000
  C   C37       1.0  0.09602000000000002  0.08350000000000002  0.73993  1.0000
  C   C38       1.0  0.015800000000000005  0.03379999999999998  0.79233  1.0000
  C   C39       1.0  0.9303699999999999  0.9921799999999998  0.776  1.0000
  C   C40       1.0  0.91742  0.99926  0.7074  1.0000
  C   C41       1.0  0.99112  0.04895999999999995  0.6555600000000001  1.0000
  C   C42       1.0  0.08339  0.09155999999999993  0.6696900000000001  1.0000
  C   C43       1.0  0.16155000000000008  0.14147  0.61498  1.0000
  C   C44       1.0  0.25055  0.18161999999999998  0.63179  1.0000
  C   C45       1.0  0.26007999999999987  0.17629  0.70003  1.0000
  C   C46       1.0  0.14452999999999996  0.14972  0.54288  1.0000
  C   C47       1.0  0.08176999999999998  0.21781999999999993  0.49406000000000005  1.0000
  C   C48       1.0  0.04098000000000003  0.28169999999999995  0.51126  1.0000
  C   C49       1.0  0.98612  0.34868  0.46330000000000005  1.0000
  C   C50       1.0  0.96945  0.35388  0.39555  1.0000
  C   C51       1.0  0.005219999999999988  0.2929300000000001  0.37669  1.0000
  C   C52       1.0  0.059930000000000004  0.22309999999999997  0.42552  1.0000
  C   C53       1.0  0.09758  0.15822  0.40813000000000005  1.0000
  C   C54       1.0  0.16280999999999998  0.09415000000000001  0.45565  1.0000
  C   C55       1.0  0.18738999999999997  0.0901  0.5222  1.0000
  C   C56       1.0  0.13851  0.12995  0.23988000000000004  1.0000
  C   C57       1.0  0.16724999999999998  0.13071000000000002  0.30325  1.0000
  C   C58       1.0  0.06891999999999998  0.15735000000000002  0.34049  1.0000
  C   C59       1.0  0.9426999999999998  0.17974999999999994  0.31198  1.0000
  C   C60       1.0  0.92196  0.17653999999999997  0.24850000000000003  1.0000
  C   C61       1.0  0.73792  0.28883  0.06040000000000001  1.0000
  C   C62       1.0  0.6557  0.3549599999999999  0.04969  1.0000
  C   C63       1.0  0.69993  0.41294999999999993  0.06578  1.0000
  C   C64       1.0  0.8280499999999997  0.40133  0.09147  1.0000
  C   C65       1.0  0.9048499999999999  0.33394  0.09951000000000002  1.0000
  C   C66       1.0  0.61197  0.48219999999999996  0.05817  1.0000
  C   C67       1.0  0.5859399999999999  0.50132  0.11514  1.0000
  C   C68       1.0  0.49400999999999995  0.56289  0.11293  1.0000
  C   C69       1.0  0.42629  0.60641  0.053290000000000004  1.0000
  C   C70       1.0  0.45483999999999997  0.58979  0.9929400000000002  1.0000
  C   C71       1.0  0.5492199999999999  0.52759  0.9946399999999999  1.0000
  C   C72       1.0  0.5793300000000001  0.51389  0.93333  1.0000
  C   C73       1.0  0.5155300000000002  0.55849  0.87339  1.0000
  C   C74       1.0  0.41949  0.6182699999999999  0.87142  1.0000
  C   C75       1.0  0.39065  0.63337  0.93006  1.0000
  C   C76       1.0  0.9829599999999998  0.98224  0.037  1.0000
  C   C77       1.0  0.07076  0.9179099999999999  0.04968  1.0000
  C   C78       1.0  0.031720000000000005  0.85513  0.0393  1.0000
  C   C79       1.0  0.9011  0.86028  0.01835  1.0000
  C   C80       1.0  0.81797  0.92573  0.00931  1.0000
  C   C81       1.0  0.3242199999999999  0.6681299999999999  0.053020000000000005  1.0000
  C   C82       1.0  0.35386  0.74335  0.0249  1.0000
  C   C83       1.0  0.25596  0.80281  0.020910000000000005  1.0000
  C   C84       1.0  0.12828999999999996  0.78901  0.04755  1.0000
  C   C85       1.0  0.09592999999999997  0.71194  0.08134  1.0000
  C   C86       1.0  0.19426999999999997  0.65178  0.08186  1.0000
  C   C87       1.0  0.15952  0.57565  0.113  1.0000
  C   C88       1.0  0.03707000000000001  0.5584899999999999  0.14457  1.0000
  C   C89       1.0  0.94445  0.618  0.14671  1.0000
  C   C90       1.0  0.97223  0.69285  0.11634  1.0000
  N   N1        1.0  0.45256  0.12168  0.15453000000000003  1.0000
  N   N2        1.0  0.6947799999999998  0.11515000000000002  0.88717  1.0000
  N   N3        1.0  0.26609999999999995  0.12811000000000003  0.95076  1.0000
  N   N4        1.0  0.01833999999999999  0.15319000000000002  0.21224  1.0000
  N   N5        1.0  0.8605699999999997  0.27817  0.08487  1.0000
  N   N6        1.0  0.8580499999999999  0.98646  0.01743  1.0000
  Cl  Cl1       1.0  0.5368599999999999  0.21595000000000006  0.97687  1.0000
  Cl  Cl2       1.0  0.9287399999999999  0.18091999999999994  0.96733  1.0000
  Cl  Cl3       1.0  0.83113  0.93175  0.83998  1.0000
  Cl  Cl4       1.0  0.78312  0.08448000000000001  0.13386  1.0000
  Cl  Cl5       1.0  0.9958399999999997  0.9446299999999999  0.37418  1.0000
  Cl  Cl6       1.0  0.17426999999999998  0.04033999999999999  0.12737  1.0000
  Cl  Cl7       1.0  0.71087  0.42318  0.56814  1.0000
  Cl  Cl8       1.0  0.5209599999999999  0.006839999999999999  0.05121  1.0000
  Cl  Cl9       1.0  0.90127  0.43919000000000014  0.33482  1.0000
  Cl  Cl10      1.0  0.19661  0.24681999999999998  0.052570000000000006  1.0000
  Cl  Cl11      1.0  0.55282  0.5410499999999999  0.79844  1.0000
  Cl  Cl12      1.0  0.79116  0.59659  0.18943  1.0000
  O   O1        1.0  0.39418  0.21961  0.45073  1.0000
  O   O2        1.0  0.5394  0.003269999999999973  0.60901  1.0000
  O   O3        1.0  0.32842000000000005  0.22880999999999999  0.5801  1.0000
  O   O4        1.0  0.25345  0.023869999999999916  0.5645  1.0000
  O   O5        1.0  0.46601  0.5798299999999998  0.17043  1.0000
  O   O6        1.0  0.48051999999999995  0.75845  0.99959  1.0000
