data_image0
_chemical_formula_structural       Ni4Mo2H112C64N32
_chemical_formula_sum              "Ni4 Mo2 H112 C64 N32"
_cell_length_a       15.59109
_cell_length_b       15.60398
_cell_length_c       15.992940000000003
_cell_angle_alpha    106.71167
_cell_angle_beta     106.56931
_cell_angle_gamma    114.55833

_space_group_name_H-M_alt    "P 1"
_space_group_IT_number       1

loop_
  _space_group_symop_operation_xyz
  'x, y, z'

loop_
  _atom_site_type_symbol
  _atom_site_label
  _atom_site_symmetry_multiplicity
  _atom_site_fract_x
  _atom_site_fract_y
  _atom_site_fract_z
  _atom_site_occupancy
  Ni  Ni1       1.0  0.4994099999999999  0.9992  0.99892  1.0000
  Ni  Ni2       1.0  0.9999199999999999  0.99861  0.49823  1.0000
  Ni  Ni3       1.0  0.0007699999999999587  0.50059  0.50104  1.0000
  Ni  Ni4       1.0  0.0013900000000000002  9.000000000000018e-05  0.0017200000000000004  1.0000
  Mo  Mo1       1.0  0.12408000000000018  0.8757200000000003  0.7499800000000002  1.0000
  Mo  Mo2       1.0  0.8750999999999998  0.125  0.24999  1.0000
  H   H1        1.0  0.6618999999999998  0.16699000000000003  0.96425  1.0000
  H   H2        1.0  0.62629  0.129  0.79274  1.0000
  H   H3        1.0  0.5016  0.11436  0.76411  1.0000
  H   H4        1.0  0.63414  0.2933600000000001  0.79172  1.0000
  H   H5        1.0  0.7204399999999997  0.32224  0.90892  1.0000
  H   H6        1.0  0.4961099999999999  0.28199  0.84671  1.0000
  H   H7        1.0  0.61629  0.40715  0.92441  1.0000
  H   H8        1.0  0.5373799999999997  0.32865  0.02156  1.0000
  H   H9        1.0  0.66333  0.34532  0.048740000000000006  1.0000
  H   H10       1.0  0.4447299999999999  0.13882000000000008  0.9087800000000003  1.0000
  H   H11       1.0  0.44787000000000005  0.9814200000000001  0.81466  1.0000
  H   H12       1.0  0.56076  0.9865800000000003  0.8571800000000002  1.0000
  H   H13       1.0  0.6129300000000001  0.20917000000000008  0.10198000000000003  1.0000
  H   H14       1.0  0.48646999999999985  0.16926  0.06898  1.0000
  H   H15       1.0  0.20357  0.19719  0.53516  1.0000
  H   H16       1.0  0.33658  0.3332  0.70725  1.0000
  H   H17       1.0  0.3501999999999998  0.23701999999999998  0.73547  1.0000
  H   H18       1.0  0.5028099999999998  0.3425800000000001  0.70969  1.0000
  H   H19       1.0  0.41483000000000003  0.3119  0.59218  1.0000
  H   H20       1.0  0.43603999999999987  0.14958  0.65367  1.0000
  H   H21       1.0  0.48424999999999996  0.19229999999999997  0.57672  1.0000
  H   H22       1.0  0.3081  0.015889999999999998  0.47855  1.0000
  H   H23       1.0  0.2977799999999999  0.11462000000000003  0.45149  1.0000
  H   H24       1.0  0.23011999999999996  0.035570000000000025  0.59028  1.0000
  H   H25       1.0  0.16606999999999994  0.13274999999999995  0.68383  1.0000
  H   H26       1.0  0.12861000000000003  0.20244  0.64055  1.0000
  H   H27       1.0  0.10770999999999997  0.009820000000000002  0.39675  1.0000
  H   H28       1.0  0.10094999999999989  0.91664  0.42983  1.0000
  H   H29       1.0  0.8331999999999998  0.3383  0.5356  1.0000
  H   H30       1.0  0.87102  0.37403  0.70714  1.0000
  H   H31       1.0  0.8853299999999997  0.49855  0.73576  1.0000
  H   H32       1.0  0.70641  0.36587  0.7082  1.0000
  H   H33       1.0  0.6778  0.27952  0.59092  1.0000
  H   H34       1.0  0.7174999999999998  0.50356  0.65337  1.0000
  H   H35       1.0  0.5925099999999998  0.38327  0.57553  1.0000
  H   H36       1.0  0.6713399999999998  0.46250000000000013  0.47872000000000003  1.0000
  H   H37       1.0  0.65483  0.33659000000000006  0.4512000000000001  1.0000
  H   H38       1.0  0.8610399999999999  0.55524  0.59135  1.0000
  H   H39       1.0  0.018520000000000005  0.55252  0.68536  1.0000
  H   H40       1.0  0.013540000000000168  0.43973000000000023  0.6428700000000003  1.0000
  H   H41       1.0  0.79094  0.38715  0.3979  1.0000
  H   H42       1.0  0.83097  0.51365  0.43129  1.0000
  H   H43       1.0  0.8029200000000002  0.7967700000000002  0.9649800000000002  1.0000
  H   H44       1.0  0.66696  0.66352  0.7929800000000001  1.0000
  H   H45       1.0  0.7631599999999997  0.64967  0.7646600000000001  1.0000
  H   H46       1.0  0.6574300000000002  0.4973600000000002  0.7905300000000002  1.0000
  H   H47       1.0  0.68808  0.58561  0.90808  1.0000
  H   H48       1.0  0.85035  0.56388  0.8463500000000002  1.0000
  H   H49       1.0  0.80753  0.51604  0.92343  1.0000
  H   H50       1.0  0.9840899999999996  0.69211  0.021270000000000008  1.0000
  H   H51       1.0  0.88538  0.70272  0.04856  1.0000
  H   H52       1.0  0.9645700000000003  0.7698300000000002  0.9096600000000002  1.0000
  H   H53       1.0  0.8673999999999998  0.8337100000000003  0.8161200000000002  1.0000
  H   H54       1.0  0.79768  0.8712800000000002  0.8595800000000002  1.0000
  H   H55       1.0  0.9903499999999998  0.8926100000000001  0.10332  1.0000
  H   H56       1.0  0.08347000000000003  0.89926  0.06992  1.0000
  H   H57       1.0  0.3374400000000001  0.8322200000000001  0.03507  1.0000
  H   H58       1.0  0.37371999999999994  0.8711300000000001  0.20688  1.0000
  H   H59       1.0  0.4983799999999999  0.88579  0.23534  1.0000
  H   H60       1.0  0.3660299999999999  0.70698  0.20837000000000006  1.0000
  H   H61       1.0  0.2795099999999998  0.6777100000000001  0.0911  1.0000
  H   H62       1.0  0.50386  0.71809  0.15319  1.0000
  H   H63       1.0  0.3837299999999999  0.59283  0.07580000000000003  1.0000
  H   H64       1.0  0.46236  0.6708600000000002  0.97828  1.0000
  H   H65       1.0  0.33631999999999995  0.65399  0.95103  1.0000
  H   H66       1.0  0.5547799999999998  0.86081  0.09041  1.0000
  H   H67       1.0  0.5514499999999998  0.018320000000000013  0.1839  1.0000
  H   H68       1.0  0.4384099999999999  0.01282000000000001  0.14127  1.0000
  H   H69       1.0  0.38611999999999996  0.78918  0.8970200000000003  1.0000
  H   H70       1.0  0.51261  0.82938  0.9299800000000003  1.0000
  H   H71       1.0  0.7963699999999998  0.80159  0.4630700000000001  1.0000
  H   H72       1.0  0.6618  0.66526  0.29148  1.0000
  H   H73       1.0  0.6483699999999998  0.76152  0.26325  1.0000
  H   H74       1.0  0.49665  0.65735  0.29068  1.0000
  H   H75       1.0  0.5853699999999997  0.68812  0.40787  1.0000
  H   H76       1.0  0.5642100000000001  0.8504800000000001  0.34639000000000003  1.0000
  H   H77       1.0  0.5170299999999999  0.8085900000000001  0.4242  1.0000
  H   H78       1.0  0.6937499999999998  0.98448  0.52114  1.0000
  H   H79       1.0  0.7038799999999997  0.88563  0.54811  1.0000
  H   H80       1.0  0.76993  0.9632999999999999  0.40805  1.0000
  H   H81       1.0  0.83231  0.8652600000000003  0.31352000000000013  1.0000
  H   H82       1.0  0.8693799999999998  0.79484  0.35593  1.0000
  H   H83       1.0  0.8936599999999998  0.9893200000000001  0.60126  1.0000
  H   H84       1.0  0.90051  0.08234  0.56792  1.0000
  H   H85       1.0  0.16747999999999993  0.6622900000000002  0.46501  1.0000
  H   H86       1.0  0.1288499999999999  0.62596  0.29321  1.0000
  H   H87       1.0  0.11450999999999993  0.50145  0.26472  1.0000
  H   H88       1.0  0.2932700000000001  0.6339900000000002  0.29174  1.0000
  H   H89       1.0  0.32222000000000006  0.7205300000000001  0.4090800000000001  1.0000
  H   H90       1.0  0.28242  0.49648  0.34674  1.0000
  H   H91       1.0  0.40749999999999986  0.61675  0.42432  1.0000
  H   H92       1.0  0.32908  0.53774  0.52145  1.0000
  H   H93       1.0  0.34575000000000006  0.66372  0.54901  1.0000
  H   H94       1.0  0.13926000000000005  0.44519000000000014  0.4093800000000001  1.0000
  H   H95       1.0  0.98169  0.44809000000000004  0.31598000000000004  1.0000
  H   H96       1.0  0.9869699999999998  0.56102  0.3585800000000001  1.0000
  H   H97       1.0  0.21056  0.61373  0.60302  1.0000
  H   H98       1.0  0.17026999999999995  0.48719  0.56967  1.0000
  H   H99       1.0  0.19818999999999995  0.20329  0.03673  1.0000
  H   H100      1.0  0.3344999999999999  0.33804  0.20823000000000005  1.0000
  H   H101      1.0  0.23826  0.35178  0.2366  1.0000
  H   H102      1.0  0.34267999999999993  0.5031800000000001  0.20911000000000005  1.0000
  H   H103      1.0  0.3118999999999999  0.41419  0.09187  1.0000
  H   H104      1.0  0.14964000000000005  0.43597000000000014  0.15361  1.0000
  H   H105      1.0  0.19165999999999994  0.48275999999999997  0.07567  1.0000
  H   H106      1.0  0.015570000000000028  0.30618000000000006  0.97903  1.0000
  H   H107      1.0  0.11436999999999999  0.2957  0.95184  1.0000
  H   H108      1.0  0.036500000000000025  0.23021000000000003  0.09200000000000003  1.0000
  H   H109      1.0  0.13451  0.16794  0.18647  1.0000
  H   H110      1.0  0.20491000000000006  0.13071000000000005  0.14385  1.0000
  H   H111      1.0  0.010420000000000077  0.10607000000000011  0.89863  1.0000
  H   H112      1.0  0.91748  0.09938000000000004  0.9323000000000001  1.0000
  C   C1        1.0  0.27423000000000003  0.93175  0.8650900000000002  1.0000
  C   C2        1.0  0.10319000000000006  0.7617400000000002  0.809  1.0000
  C   C3        1.0  0.58056  0.1341  0.90877  1.0000
  C   C4        1.0  0.58387  0.15922  0.82333  1.0000
  C   C5        1.0  0.63584  0.27881  0.85539  1.0000
  C   C6        1.0  0.5792999999999998  0.32163  0.90182  1.0000
  C   C7        1.0  0.58071  0.30075  0.99017  1.0000
  C   C8        1.0  0.53005  0.18186999999999998  0.9601  1.0000
  C   C9        1.0  0.06535999999999995  0.90937  0.634  1.0000
  C   C10       1.0  0.9506799999999999  0.7959500000000002  0.6902300000000001  1.0000
  C   C11       1.0  0.22559  0.17127  0.5905  1.0000
  C   C12       1.0  0.3363000000000001  0.26024000000000014  0.67655  1.0000
  C   C13       1.0  0.42455  0.28064  0.6454  1.0000
  C   C14       1.0  0.42092  0.17768  0.59875  1.0000
  C   C15       1.0  0.31153  0.09056999999999998  0.50989  1.0000
  C   C16       1.0  0.2221899999999999  0.06955999999999998  0.53916  1.0000
  C   C17       1.0  0.06819000000000011  0.72573  0.6347300000000001  1.0000
  C   C18       1.0  0.23832  0.8967500000000002  0.6908300000000002  1.0000
  C   C19       1.0  0.8659299999999998  0.41959  0.59117  1.0000
  C   C20       1.0  0.8406599999999997  0.41627  0.67656  1.0000
  C   C21       1.0  0.72102  0.36409000000000014  0.64451  1.0000
  C   C22       1.0  0.6780800000000002  0.4204300000000002  0.5981600000000002  1.0000
  C   C23       1.0  0.69918  0.41915  0.50989  1.0000
  C   C24       1.0  0.81809  0.46994  0.53995  1.0000
  C   C25       1.0  0.09066000000000003  0.93467  0.86594  1.0000
  C   C26       1.0  0.20423999999999995  0.049229999999999975  0.80971  1.0000
  C   C27       1.0  0.82886  0.77453  0.90959  1.0000
  C   C28       1.0  0.7398800000000001  0.6637700000000003  0.8236200000000002  1.0000
  C   C29       1.0  0.71935  0.5756700000000002  0.85479  1.0000
  C   C30       1.0  0.8222400000000001  0.57923  0.9013400000000001  1.0000
  C   C31       1.0  0.90943  0.6887100000000003  0.99009  1.0000
  C   C32       1.0  0.9305200000000002  0.7779300000000002  0.9608100000000002  1.0000
  C   C33       1.0  0.72493  0.0683  0.13427  1.0000
  C   C34       1.0  0.89578  0.23895  0.1909  1.0000
  C   C35       1.0  0.4189199999999999  0.86541  0.09044  1.0000
  C   C36       1.0  0.4160299999999999  0.84079  0.17623  1.0000
  C   C37       1.0  0.3641599999999999  0.72127  0.14455  1.0000
  C   C38       1.0  0.42060999999999993  0.67829  0.09815000000000003  1.0000
  C   C39       1.0  0.41899  0.69877  0.00957  1.0000
  C   C40       1.0  0.4694000000000001  0.8175200000000002  0.03918  1.0000
  C   C41       1.0  0.9340699999999998  0.09  0.36478  1.0000
  C   C42       1.0  0.04853999999999999  0.20544  0.30999  1.0000
  C   C43       1.0  0.77397  0.82734  0.40768  1.0000
  C   C44       1.0  0.6627300000000002  0.7385800000000002  0.32232000000000005  1.0000
  C   C45       1.0  0.5752999999999998  0.71916  0.35451000000000005  1.0000
  C   C46       1.0  0.57976  0.8225700000000001  0.40140000000000003  1.0000
  C   C47       1.0  0.6897  0.90947  0.48961  1.0000
  C   C48       1.0  0.7782199999999998  0.92951  0.45929  1.0000
  C   C49       1.0  0.9317  0.27505  0.36595  1.0000
  C   C50       1.0  0.7609099999999998  0.10417000000000003  0.30927  1.0000
  C   C51       1.0  0.13449000000000008  0.5808700000000002  0.40955  1.0000
  C   C52       1.0  0.15929999999999997  0.58381  0.32383  1.0000
  C   C53       1.0  0.27888  0.63592  0.35556  1.0000
  C   C54       1.0  0.3219799999999999  0.57966  0.4018800000000001  1.0000
  C   C55       1.0  0.30122  0.58112  0.49034  1.0000
  C   C56       1.0  0.18243999999999994  0.53055  0.4607  1.0000
  C   C57       1.0  0.90989  0.06581  0.13516  1.0000
  C   C58       1.0  0.7942899999999998  0.9514200000000003  0.19002000000000002  1.0000
  C   C59       1.0  0.17244999999999996  0.22594  0.09219  1.0000
  C   C60       1.0  0.26125  0.33721  0.17748  1.0000
  C   C61       1.0  0.28084  0.4245  0.14529  1.0000
  C   C62       1.0  0.17752999999999994  0.42015  0.09852  1.0000
  C   C63       1.0  0.09053000000000003  0.3101400000000001  0.01041  1.0000
  C   C64       1.0  0.07034999999999994  0.22174  0.04071  1.0000
  N   N1        1.0  0.34889  0.95161  0.9318400000000001  1.0000
  N   N2        1.0  0.07955000000000005  0.6887400000000001  0.8262700000000001  1.0000
  N   N3        1.0  0.5194500000000001  0.018050000000000076  0.8766700000000001  1.0000
  N   N4        1.0  0.53711  0.15877  0.04488  1.0000
  N   N5        1.0  0.019020000000000065  0.91569  0.56584  1.0000
  N   N6        1.0  0.8600300000000001  0.7542400000000002  0.6723  1.0000
  N   N7        1.0  0.14095999999999997  0.14186  0.62165  1.0000
  N   N8        1.0  0.11424999999999993  0.9912799999999999  0.45375  1.0000
  N   N9        1.0  0.04842999999999999  0.6511300000000002  0.5679  1.0000
  N   N10       1.0  0.31148000000000003  0.92066  0.6736600000000001  1.0000
  N   N11       1.0  0.9820199999999999  0.4809100000000002  0.6233400000000002  1.0000
  N   N12       1.0  0.8413099999999998  0.46291000000000004  0.45516000000000006  1.0000
  N   N13       1.0  0.08466999999999991  0.9813100000000002  0.9343  1.0000
  N   N14       1.0  0.24610999999999997  0.13978999999999997  0.82749  1.0000
  N   N15       1.0  0.85829  0.85896  0.87837  1.0000
  N   N16       1.0  0.008820000000000102  0.8859500000000002  0.046200000000000005  1.0000
  N   N17       1.0  0.65034  0.04741  0.06673  1.0000
  N   N18       1.0  0.9196399999999998  0.31183  0.17345  1.0000
  N   N19       1.0  0.47974999999999995  0.9813100000000002  0.12193000000000002  1.0000
  N   N20       1.0  0.46196999999999977  0.84  0.954  1.0000
  N   N21       1.0  0.9809099999999998  0.08216000000000005  0.43149  1.0000
  N   N22       1.0  0.13922  0.24716000000000005  0.32803  1.0000
  N   N23       1.0  0.85785  0.8559400000000004  0.37552000000000013  1.0000
  N   N24       1.0  0.8865999999999996  0.0074599999999999935  0.54401  1.0000
  N   N25       1.0  0.9525099999999997  0.34968  0.43351  1.0000
  N   N26       1.0  0.68785  0.08008000000000007  0.32662000000000013  1.0000
  N   N27       1.0  0.01855000000000005  0.5198200000000001  0.3779500000000001  1.0000
  N   N28       1.0  0.15982  0.53793  0.54588  1.0000
  N   N29       1.0  0.91744  0.018780000000000005  0.06819  1.0000
  N   N30       1.0  0.75238  0.8608  0.17204  1.0000
  N   N31       1.0  0.1438  0.14224  0.12439  1.0000
  N   N32       1.0  0.9923599999999996  0.11328999999999996  0.95601  1.0000
