data_image0
_chemical_formula_structural       Mn4H56C96N8O16
_chemical_formula_sum              "Mn4 H56 C96 N8 O16"
_cell_length_a       10.27492
_cell_length_b       14.85141
_cell_length_c       26.00595
_cell_angle_alpha    113.71188000000001
_cell_angle_beta     90.02015
_cell_angle_gamma    110.39193

_symmetry_space_group_name_H-M    'P 1'
_symmetry_Int_Tables_number       1

loop_
  _symmetry_equiv_pos_as_xyz
  'x,y,z'

loop_
  _atom_site_type_symbol
  _atom_site_label
  _atom_site_symmetry_multiplicity
  _atom_site_fract_x
  _atom_site_fract_y
  _atom_site_fract_z
  _atom_site_occupancy
  Mn  Mn1       1.0  0.8435300000000001  0.7152700000000001  0.7725700000000001  1.0000
  Mn  Mn2       1.0  0.8704300000000001  0.71591  0.27268  1.0000
  Mn  Mn3       1.0  0.12957999999999995  0.2840899999999999  0.72731  1.0000
  Mn  Mn4       1.0  0.15647  0.28473  0.22743  1.0000
  H   H1        1.0  0.10952999999999997  0.71882  0.4284  1.0000
  H   H2        1.0  0.30461999999999995  0.83118  0.51216  1.0000
  H   H3        1.0  0.24072000000000002  0.10981999999999999  0.52419  1.0000
  H   H4        1.0  0.05019000000000003  0.99879  0.44133  1.0000
  H   H5        1.0  0.42627999999999994  0.19630999999999996  0.57923  1.0000
  H   H6        1.0  0.7368000000000001  0.18738000000000013  0.6871700000000001  1.0000
  H   H7        1.0  0.4135700000000001  0.8748900000000002  0.65023  1.0000
  H   H8        1.0  0.49257000000000023  0.7725500000000002  0.69167  1.0000
  H   H9        1.0  0.9229899999999999  0.94822  0.68931  1.0000
  H   H10       1.0  0.8461599999999999  0.054089999999999985  0.65156  1.0000
  H   H11       1.0  0.86976  0.33684  0.67813  1.0000
  H   H12       1.0  0.9680500000000002  0.5322500000000003  0.7270900000000001  1.0000
  H   H13       1.0  0.5786  0.54837  0.70364  1.0000
  H   H14       1.0  0.4606  0.3508100000000002  0.65513  1.0000
  H   H15       1.0  0.61018  0.71921  0.9290400000000001  1.0000
  H   H16       1.0  0.5280299999999999  0.83126  0.01266  1.0000
  H   H17       1.0  0.8716700000000001  0.11045000000000003  0.024660000000000005  1.0000
  H   H18       1.0  0.9498600000000003  0.9996700000000002  0.9414400000000002  1.0000
  H   H19       1.0  0.76818  0.19686  0.07751  1.0000
  H   H20       1.0  0.45355999999999996  0.18757  0.18751  1.0000
  H   H21       1.0  0.46016999999999997  0.87422  0.14927  1.0000
  H   H22       1.0  0.27892000000000006  0.7729100000000001  0.19145  1.0000
  H   H23       1.0  0.025290000000000014  0.9483  0.18873  1.0000
  H   H24       1.0  0.2086  0.05374999999999999  0.15089  1.0000
  H   H25       1.0  0.4670200000000001  0.3360400000000001  0.17704  1.0000
  H   H26       1.0  0.56301  0.5312600000000001  0.22539000000000003  1.0000
  H   H27       1.0  0.97023  0.55054  0.20325  1.0000
  H   H28       1.0  0.8915599999999999  0.35307  0.15481  1.0000
  H   H29       1.0  0.38982  0.2808  0.07096  1.0000
  H   H30       1.0  0.47198  0.16875000000000004  0.9873300000000002  1.0000
  H   H31       1.0  0.12834000000000015  0.8895600000000001  0.9753400000000001  1.0000
  H   H32       1.0  0.05015  0.00033999999999999775  0.05856  1.0000
  H   H33       1.0  0.23182999999999995  0.80314  0.92249  1.0000
  H   H34       1.0  0.5464500000000001  0.8124400000000003  0.81249  1.0000
  H   H35       1.0  0.5398400000000001  0.12578000000000003  0.85073  1.0000
  H   H36       1.0  0.7210800000000002  0.22709000000000007  0.80854  1.0000
  H   H37       1.0  0.9747199999999999  0.05171000000000014  0.8112700000000002  1.0000
  H   H38       1.0  0.79141  0.94626  0.84911  1.0000
  H   H39       1.0  0.53298  0.6639700000000002  0.82296  1.0000
  H   H40       1.0  0.43699000000000005  0.46875  0.77461  1.0000
  H   H41       1.0  0.029780000000000084  0.4494600000000002  0.79674  1.0000
  H   H42       1.0  0.10844  0.64694  0.84519  1.0000
  H   H43       1.0  0.89047  0.28119  0.5716  1.0000
  H   H44       1.0  0.69539  0.1688300000000001  0.4878400000000001  1.0000
  H   H45       1.0  0.7592900000000004  0.8901900000000004  0.47580000000000006  1.0000
  H   H46       1.0  0.9498100000000002  0.0012100000000000147  0.55866  1.0000
  H   H47       1.0  0.57372  0.8037000000000001  0.4207600000000001  1.0000
  H   H48       1.0  0.2632099999999999  0.81263  0.31282  1.0000
  H   H49       1.0  0.58644  0.12511  0.34976  1.0000
  H   H50       1.0  0.50743  0.22746000000000005  0.30833  1.0000
  H   H51       1.0  0.07701000000000001  0.051790000000000024  0.31068  1.0000
  H   H52       1.0  0.15385000000000013  0.9459200000000002  0.34844  1.0000
  H   H53       1.0  0.13024  0.66316  0.32186  1.0000
  H   H54       1.0  0.03195  0.46776  0.2729  1.0000
  H   H55       1.0  0.42139999999999994  0.45164  0.29635  1.0000
  H   H56       1.0  0.53941  0.6492  0.34486  1.0000
  C   C1        1.0  0.96535  0.78728  0.37589999999999996  1.0000
  C   C2        1.0  0.06792000000000005  0.85189  0.4296  1.0000
  C   C3        1.0  0.13896  0.80442  0.45008  1.0000
  C   C4        1.0  0.24728999999999998  0.8664800000000001  0.49633000000000005  1.0000
  C   C5        1.0  0.28809  0.97773  0.52344  1.0000
  C   C6        1.0  0.21445  0.024510000000000004  0.50352  1.0000
  C   C7        1.0  0.10588999999999994  0.96248  0.45715  1.0000
  C   C8        1.0  0.40918  0.04126000000000002  0.57081  1.0000
  C   C9        1.0  0.46955  0.15277000000000002  0.59451  1.0000
  C   C10       1.0  0.5892  0.20767  0.63675  1.0000
  C   C11       1.0  0.6456200000000001  0.14856000000000003  0.65367  1.0000
  C   C12       1.0  0.57622  0.03749999999999999  0.62937  1.0000
  C   C13       1.0  0.62451  0.97205  0.64915  1.0000
  C   C14       1.0  0.52463  0.89027  0.65904  1.0000
  C   C15       1.0  0.56828  0.83307  0.6816300000000001  1.0000
  C   C16       1.0  0.7122  0.8539600000000003  0.69268  1.0000
  C   C17       1.0  0.81177  0.93245  0.68057  1.0000
  C   C18       1.0  0.76819  0.99208  0.6598  1.0000
  C   C19       1.0  0.75881  0.7978200000000001  0.7201  1.0000
  C   C20       1.0  0.6538900000000001  0.3250500000000001  0.6636  1.0000
  C   C21       1.0  0.7990499999999999  0.37914  0.68415  1.0000
  C   C22       1.0  0.85573  0.4894600000000001  0.71103  1.0000
  C   C23       1.0  0.63797  0.49776000000000004  0.69763  1.0000
  C   C24       1.0  0.5736  0.38763000000000003  0.67025  1.0000
  C   C25       1.0  0.8214099999999999  0.7881200000000003  0.8758900000000001  1.0000
  C   C26       1.0  0.7842800000000003  0.8526600000000004  0.9296800000000001  1.0000
  C   C27       1.0  0.6662800000000001  0.8049500000000003  0.95047  1.0000
  C   C28       1.0  0.6202900000000001  0.8669600000000002  0.9966700000000001  1.0000
  C   C29       1.0  0.6906300000000001  0.9783800000000001  0.02347  1.0000
  C   C30       1.0  0.81157  0.025190000000000008  0.00367  1.0000
  C   C31       1.0  0.8576100000000001  0.96326  0.9572400000000001  1.0000
  C   C32       1.0  0.6326  0.04191000000000002  0.07044  1.0000
  C   C33       1.0  0.6829  0.15339000000000003  0.09353  1.0000
  C   C34       1.0  0.61931  0.20818  0.13617  1.0000
  C   C35       1.0  0.50474  0.14883  0.15361  1.0000
  C   C36       1.0  0.46207  0.03771  0.12907  1.0000
  C   C37       1.0  0.34769000000000017  0.9719600000000003  0.14866  1.0000
  C   C38       1.0  0.3649700000000001  0.88997  0.15837  1.0000
  C   C39       1.0  0.26407  0.83318  0.18123  1.0000
  C   C40       1.0  0.14159  0.8544  0.19259  1.0000
  C   C41       1.0  0.12053000000000005  0.9323800000000002  0.18011  1.0000
  C   C42       1.0  0.22412000000000007  0.9919  0.15927  1.0000
  C   C43       1.0  0.03973000000000005  0.7990400000000001  0.22071  1.0000
  C   C44       1.0  0.67179  0.32562  0.16282  1.0000
  C   C45       1.0  0.58021  0.37892  0.18311  1.0000
  C   C46       1.0  0.6332700000000001  0.48923000000000005  0.2098  1.0000
  C   C47       1.0  0.86011  0.49925000000000025  0.19700000000000004  1.0000
  C   C48       1.0  0.81483  0.38914  0.16965  1.0000
  C   C49       1.0  0.17859000000000003  0.21189  0.12411  1.0000
  C   C50       1.0  0.21572  0.14734  0.07032  1.0000
  C   C51       1.0  0.33373  0.19505  0.04953  1.0000
  C   C52       1.0  0.37972  0.13304  0.00333  1.0000
  C   C53       1.0  0.30937000000000003  0.021630000000000062  0.9765200000000002  1.0000
  C   C54       1.0  0.18843000000000001  0.97481  0.99633  1.0000
  C   C55       1.0  0.1424  0.03675000000000002  0.04275000000000001  1.0000
  C   C56       1.0  0.36740000000000006  0.9581000000000001  0.9295500000000001  1.0000
  C   C57       1.0  0.3171  0.84662  0.90647  1.0000
  C   C58       1.0  0.3807  0.79183  0.86383  1.0000
  C   C59       1.0  0.49526999999999993  0.8511799999999999  0.84639  1.0000
  C   C60       1.0  0.5379400000000002  0.9623000000000002  0.8709300000000001  1.0000
  C   C61       1.0  0.65231  0.02804000000000004  0.85134  1.0000
  C   C62       1.0  0.63504  0.11004000000000003  0.84163  1.0000
  C   C63       1.0  0.73593  0.16682000000000008  0.81876  1.0000
  C   C64       1.0  0.8584200000000001  0.14561000000000002  0.8074100000000001  1.0000
  C   C65       1.0  0.87947  0.06763000000000001  0.81989  1.0000
  C   C66       1.0  0.7758900000000001  0.00811000000000007  0.84073  1.0000
  C   C67       1.0  0.96028  0.20096000000000008  0.7792900000000001  1.0000
  C   C68       1.0  0.32821000000000006  0.6743900000000003  0.83717  1.0000
  C   C69       1.0  0.4198  0.62108  0.81689  1.0000
  C   C70       1.0  0.3667400000000002  0.5107700000000002  0.7902000000000001  1.0000
  C   C71       1.0  0.13990000000000002  0.5007600000000001  0.8030000000000002  1.0000
  C   C72       1.0  0.18518000000000015  0.6108700000000004  0.8303500000000001  1.0000
  C   C73       1.0  0.034650000000000014  0.21273000000000003  0.6241  1.0000
  C   C74       1.0  0.9320800000000001  0.14812000000000003  0.5704  1.0000
  C   C75       1.0  0.86104  0.19558000000000006  0.54991  1.0000
  C   C76       1.0  0.75272  0.13353  0.50367  1.0000
  C   C77       1.0  0.71192  0.022280000000000036  0.47656000000000004  1.0000
  C   C78       1.0  0.7855500000000001  0.9755000000000003  0.49647  1.0000
  C   C79       1.0  0.89412  0.037530000000000036  0.54285  1.0000
  C   C80       1.0  0.5908200000000002  0.9587500000000003  0.42918  1.0000
  C   C81       1.0  0.53046  0.84724  0.40549  1.0000
  C   C82       1.0  0.41080999999999995  0.79234  0.36325  1.0000
  C   C83       1.0  0.35439  0.85145  0.34632  1.0000
  C   C84       1.0  0.42379000000000017  0.9625100000000002  0.37063  1.0000
  C   C85       1.0  0.3755  0.02796  0.35085  1.0000
  C   C86       1.0  0.47538  0.10974  0.34096  1.0000
  C   C87       1.0  0.43173  0.16694000000000006  0.31836  1.0000
  C   C88       1.0  0.28781  0.14605  0.30732  1.0000
  C   C89       1.0  0.18823  0.06755999999999998  0.31942  1.0000
  C   C90       1.0  0.23182000000000003  0.007929999999999991  0.3402  1.0000
  C   C91       1.0  0.24119  0.20219  0.2799  1.0000
  C   C92       1.0  0.34611000000000003  0.6749600000000001  0.3364  1.0000
  C   C93       1.0  0.20096000000000008  0.6208700000000003  0.31585  1.0000
  C   C94       1.0  0.14427999999999994  0.51055  0.28896  1.0000
  C   C95       1.0  0.36204  0.50224  0.30237  1.0000
  C   C96       1.0  0.4264100000000002  0.6123700000000002  0.32975  1.0000
  N   N1        1.0  0.4605700000000001  0.9854200000000002  0.58923  1.0000
  N   N2        1.0  0.7775200000000002  0.5493900000000003  0.7189500000000001  1.0000
  N   N3        1.0  0.5254600000000003  0.9859000000000002  0.08897  1.0000
  N   N4        1.0  0.77158  0.55007  0.21799  1.0000
  N   N5        1.0  0.47455  0.0141  0.91103  1.0000
  N   N6        1.0  0.22842000000000015  0.44994000000000023  0.782  1.0000
  N   N7        1.0  0.5394400000000001  0.014590000000000077  0.41077  1.0000
  N   N8        1.0  0.22249000000000005  0.45062000000000013  0.28105  1.0000
  O   O1        1.0  0.9021400000000002  0.8318500000000003  0.35660000000000003  1.0000
  O   O2        1.0  0.9481  0.6901100000000001  0.34582  1.0000
  O   O3        1.0  0.8886900000000002  0.8094500000000002  0.72633  1.0000
  O   O4        1.0  0.66936  0.73878  0.73973  1.0000
  O   O5        1.0  0.92913  0.83242  0.8564400000000001  1.0000
  O   O6        1.0  0.74053  0.69088  0.84594  1.0000
  O   O7        1.0  0.92068  0.8093500000000002  0.22622  1.0000
  O   O8        1.0  0.07124999999999998  0.74206  0.24148000000000003  1.0000
  O   O9        1.0  0.07087  0.16759  0.14355  1.0000
  O   O10       1.0  0.25947  0.30913  0.15406  1.0000
  O   O11       1.0  0.07933000000000004  0.19065000000000007  0.77378  1.0000
  O   O12       1.0  0.9287500000000001  0.2579500000000002  0.75851  1.0000
  O   O13       1.0  0.09786  0.16816  0.6434  1.0000
  O   O14       1.0  0.05190999999999996  0.30988999999999994  0.65418  1.0000
  O   O15       1.0  0.11131  0.19055  0.27367  1.0000
  O   O16       1.0  0.33064999999999994  0.26121999999999995  0.26027  1.0000
