data_image0
_chemical_formula_structural       Cu2H60C88O24
_chemical_formula_sum              "Cu2 H60 C88 O24"
_cell_length_a       15.59122
_cell_length_b       16.22467
_cell_length_c       18.57298
_cell_angle_alpha    112.67146
_cell_angle_beta     106.25693000000001
_cell_angle_gamma    107.70919999999998

_symmetry_space_group_name_H-M    'P 1'
_symmetry_Int_Tables_number       1

loop_
  _symmetry_equiv_pos_as_xyz
  'x,y,z'

loop_
  _atom_site_type_symbol
  _atom_site_label
  _atom_site_symmetry_multiplicity
  _atom_site_fract_x
  _atom_site_fract_y
  _atom_site_fract_z
  _atom_site_occupancy
  Cu  Cu1       1.0  0.49545  0.68528  0.90337  1.0000
  Cu  Cu2       1.0  0.50496  0.31497999999999987  0.09638  1.0000
  H   H1        1.0  0.72148  0.5905799999999999  0.10713  1.0000
  H   H2        1.0  0.8989400000000001  0.6562599999999997  0.21243  1.0000
  H   H3        1.0  0.9995200000000001  0.8656599999999999  0.12907  1.0000
  H   H4        1.0  0.8195499999999999  0.8067899999999998  0.03024  1.0000
  H   H5        1.0  0.10466999999999994  0.7693599999999998  0.12745  1.0000
  H   H6        1.0  0.06662999999999994  0.7598699999999998  0.42058  1.0000
  H   H7        1.0  0.08398  0.88327  0.48941  1.0000
  H   H8        1.0  0.95881  0.7817099999999998  0.41305  1.0000
  H   H9        1.0  0.51655  0.9961299999999997  0.43157  1.0000
  H   H10       1.0  0.42817999999999995  0.9816999999999998  0.33632  1.0000
  H   H11       1.0  0.43511999999999995  0.05359999999999995  0.44145  1.0000
  H   H12       1.0  0.3665799999999999  0.7500599999999997  0.2728  1.0000
  H   H13       1.0  0.45293  0.69952  0.18272  1.0000
  H   H14       1.0  0.33285999999999993  0.8128999999999997  0.02697  1.0000
  H   H15       1.0  0.24256  0.8609399999999998  0.11498  1.0000
  H   H16       1.0  0.39081999999999995  0.0819499999999999  0.72767  1.0000
  H   H17       1.0  0.29622999999999994  0.67095  0.4306099999999999  1.0000
  H   H18       1.0  0.37585  0.7917700000000001  0.45063  1.0000
  H   H19       1.0  0.38187999999999994  0.7721999999999998  0.5407399999999999  1.0000
  H   H20       1.0  0.1663  0.12552  0.42635  1.0000
  H   H21       1.0  0.10478000000000001  0.024200000000000048  0.44065  1.0000
  H   H22       1.0  0.19198999999999997  0.14868999999999993  0.53458  1.0000
  H   H23       1.0  0.4173200000000001  0.23162  0.57713  1.0000
  H   H24       1.0  0.4714  0.41585  0.66463  1.0000
  H   H25       1.0  0.37693  0.36988999999999994  0.84788  1.0000
  H   H26       1.0  0.31699000000000005  0.1859199999999999  0.75903  1.0000
  H   H27       1.0  0.50392  0.02266999999999999  0.7603  1.0000
  H   H28       1.0  0.55685  0.95066  0.85017  1.0000
  H   H29       1.0  0.27271  0.6808899999999998  0.68372  1.0000
  H   H30       1.0  0.21914000000000006  0.75133  0.59178  1.0000
  H   H31       1.0  0.27842999999999996  0.4093899999999999  0.8921099999999997  1.0000
  H   H32       1.0  0.10089999999999995  0.3433199999999999  0.78678  1.0000
  H   H33       1.0  0.0007500000000000347  0.13461  0.87093  1.0000
  H   H34       1.0  0.18082000000000006  0.1936199999999999  0.96964  1.0000
  H   H35       1.0  0.89532  0.23058  0.87239  1.0000
  H   H36       1.0  0.9334000000000001  0.24023999999999998  0.57944  1.0000
  H   H37       1.0  0.91609  0.11683  0.51059  1.0000
  H   H38       1.0  0.041230000000000024  0.21844999999999995  0.58697  1.0000
  H   H39       1.0  0.48355  0.0037099999999998497  0.5681299999999998  1.0000
  H   H40       1.0  0.5718499999999999  0.018489999999999954  0.66359  1.0000
  H   H41       1.0  0.56517  0.94638  0.55866  1.0000
  H   H42       1.0  0.6333  0.24968999999999994  0.72674  1.0000
  H   H43       1.0  0.54734  0.30069  0.81708  1.0000
  H   H44       1.0  0.66703  0.18719999999999998  0.9728  1.0000
  H   H45       1.0  0.757  0.13859  0.88463  1.0000
  H   H46       1.0  0.6091599999999999  0.9182399999999997  0.27226  1.0000
  H   H47       1.0  0.70391  0.32914  0.56984  1.0000
  H   H48       1.0  0.6243499999999998  0.2080499999999999  0.5494  1.0000
  H   H49       1.0  0.61834  0.22821  0.45958  1.0000
  H   H50       1.0  0.83406  0.87451  0.57315  1.0000
  H   H51       1.0  0.8953300000000001  0.97597  0.55895  1.0000
  H   H52       1.0  0.80811  0.8515899999999996  0.4649699999999999  1.0000
  H   H53       1.0  0.5831100000000001  0.7682599999999998  0.4227299999999999  1.0000
  H   H54       1.0  0.52909  0.5842999999999998  0.33513  1.0000
  H   H55       1.0  0.6233700000000002  0.63053  0.15189  1.0000
  H   H56       1.0  0.68337  0.81449  0.24093  1.0000
  H   H57       1.0  0.4962600000000001  0.97766  0.23956  1.0000
  H   H58       1.0  0.44362  0.04985  0.1498  1.0000
  H   H59       1.0  0.7278300000000003  0.31958999999999993  0.31659  1.0000
  H   H60       1.0  0.78108  0.2488199999999999  0.4084099999999999  1.0000
  C   C1        1.0  0.65222  0.66242  0.00716  1.0000
  C   C2        1.0  0.7601300000000002  0.69813  0.06552  1.0000
  C   C3        1.0  0.7825600000000003  0.6534299999999997  0.11499999999999998  1.0000
  C   C4        1.0  0.88189  0.68928  0.17277  1.0000
  C   C5        1.0  0.9611599999999999  0.7657599999999996  0.17797  1.0000
  C   C6        1.0  0.9380900000000002  0.8062899999999997  0.12455  1.0000
  C   C7        1.0  0.8385500000000001  0.7739699999999998  0.06965  1.0000
  C   C8        1.0  0.06757999999999999  0.80064  0.23429  1.0000
  C   C9        1.0  0.1345  0.7996899999999998  0.1976  1.0000
  C   C10       1.0  0.23531999999999997  0.8259099999999998  0.24566  1.0000
  C   C11       1.0  0.27071999999999985  0.8632999999999997  0.3367799999999999  1.0000
  C   C12       1.0  0.20699000000000004  0.86831  0.37717  1.0000
  C   C13       1.0  0.10414999999999992  0.8333599999999998  0.32474  1.0000
  C   C14       1.0  0.037589999999999874  0.8143799999999997  0.4246999999999999  1.0000
  C   C15       1.0  0.44153000000000003  0.98822  0.3999  1.0000
  C   C16       1.0  0.29678  0.80763  0.19957  1.0000
  C   C17       1.0  0.35915999999999987  0.7643699999999998  0.21942  1.0000
  C   C18       1.0  0.40825  0.73663  0.16951  1.0000
  C   C19       1.0  0.39933999999999986  0.7543799999999998  0.10013999999999999  1.0000
  C   C20       1.0  0.33890999999999993  0.7990999999999998  0.0806  1.0000
  C   C21       1.0  0.2884299999999999  0.8253299999999998  0.12975  1.0000
  C   C22       1.0  0.45049999999999996  0.7202799999999999  0.04523  1.0000
  C   C23       1.0  0.2547399999999999  0.9247399999999997  0.47465  1.0000
  C   C24       1.0  0.27986  0.027590000000000045  0.51885  1.0000
  C   C25       1.0  0.33012  0.08618  0.61107  1.0000
  C   C26       1.0  0.3521200000000001  0.037640000000000014  0.65653  1.0000
  C   C27       1.0  0.3285199999999999  0.9353199999999999  0.61502  1.0000
  C   C28       1.0  0.27971000000000007  0.87932  0.52265  1.0000
  C   C29       1.0  0.33238  0.75266  0.47515999999999997  1.0000
  C   C30       1.0  0.17472  0.09325999999999998  0.46839  1.0000
  C   C31       1.0  0.3608  0.19524999999999987  0.6604899999999998  1.0000
  C   C32       1.0  0.40609  0.26150999999999996  0.63513  1.0000
  C   C33       1.0  0.43630999999999986  0.3642799999999999  0.68372  1.0000
  C   C34       1.0  0.42191  0.40266999999999975  0.7587299999999998  1.0000
  C   C35       1.0  0.38074999999999987  0.3380899999999999  0.78636  1.0000
  C   C36       1.0  0.34947  0.23534999999999995  0.73715  1.0000
  C   C37       1.0  0.44901  0.5102899999999999  0.8097499999999999  1.0000
  C   C38       1.0  0.35794  0.89169  0.66878  1.0000
  C   C39       1.0  0.4528499999999999  0.9475699999999999  0.74282  1.0000
  C   C40       1.0  0.4831300000000001  0.9075799999999998  0.79353  1.0000
  C   C41       1.0  0.41832  0.81081  0.77171  1.0000
  C   C42       1.0  0.32266  0.75533  0.69919  1.0000
  C   C43       1.0  0.29291  0.7951199999999998  0.64823  1.0000
  C   C44       1.0  0.44952  0.7659199999999998  0.82356  1.0000
  C   C45       1.0  0.34808999999999996  0.33770999999999984  0.99251  1.0000
  C   C46       1.0  0.2401499999999999  0.30202999999999985  0.9340699999999997  1.0000
  C   C47       1.0  0.21748  0.34654  0.88441  1.0000
  C   C48       1.0  0.11805999999999994  0.31051  0.82663  1.0000
  C   C49       1.0  0.038879999999999984  0.23420999999999995  0.82175  1.0000
  C   C50       1.0  0.06215999999999982  0.19385999999999978  0.8752899999999998  1.0000
  C   C51       1.0  0.16178  0.2263299999999999  0.93014  1.0000
  C   C52       1.0  0.93239  0.19929  0.76559  1.0000
  C   C53       1.0  0.8654399999999999  0.20023999999999983  0.8022499999999998  1.0000
  C   C54       1.0  0.76464  0.17397999999999997  0.75413  1.0000
  C   C55       1.0  0.72936  0.1366099999999999  0.6630499999999999  1.0000
  C   C56       1.0  0.79313  0.13175  0.62271  1.0000
  C   C57       1.0  0.89593  0.1667  0.67518  1.0000
  C   C58       1.0  0.9624500000000002  0.18573000000000006  0.57529  1.0000
  C   C59       1.0  0.55859  0.011780000000000027  0.59998  1.0000
  C   C60       1.0  0.70306  0.19215000000000002  0.80008  1.0000
  C   C61       1.0  0.64082  0.23552999999999993  0.78021  1.0000
  C   C62       1.0  0.5918400000000003  0.26341  0.83018  1.0000
  C   C63       1.0  0.60076  0.24573000000000003  0.89956  1.0000
  C   C64       1.0  0.66103  0.2008599999999999  0.9191  1.0000
  C   C65       1.0  0.71137  0.17442999999999992  0.86988  1.0000
  C   C66       1.0  0.5498000000000001  0.28011999999999987  0.95455  1.0000
  C   C67       1.0  0.7454  0.07537999999999999  0.52526  1.0000
  C   C68       1.0  0.7202900000000002  0.9725499999999998  0.48103  1.0000
  C   C69       1.0  0.6699699999999998  0.9139999999999998  0.38883  1.0000
  C   C70       1.0  0.64792  0.96254  0.34338  1.0000
  C   C71       1.0  0.6716899999999998  0.06489999999999989  0.3849299999999999  1.0000
  C   C72       1.0  0.7204199999999998  0.12080999999999992  0.4772899999999999  1.0000
  C   C73       1.0  0.6678100000000002  0.24746999999999994  0.52505  1.0000
  C   C74       1.0  0.8254600000000001  0.90689  0.53123  1.0000
  C   C75       1.0  0.63943  0.80497  0.33937  1.0000
  C   C76       1.0  0.59426  0.7385999999999998  0.36468  1.0000
  C   C77       1.0  0.56408  0.6358699999999998  0.316  1.0000
  C   C78       1.0  0.57845  0.5976  0.24098  1.0000
  C   C79       1.0  0.61955  0.6622600000000001  0.21341  1.0000
  C   C80       1.0  0.6508  0.76499  0.26272  1.0000
  C   C81       1.0  0.55139  0.4899999999999999  0.18992  1.0000
  C   C82       1.0  0.6422900000000002  0.10862  0.33126  1.0000
  C   C83       1.0  0.54742  0.05279  0.25718  1.0000
  C   C84       1.0  0.51728  0.09285999999999997  0.20648  1.0000
  C   C85       1.0  0.58213  0.18969999999999998  0.22843  1.0000
  C   C86       1.0  0.67776  0.24510999999999997  0.30099  1.0000
  C   C87       1.0  0.7073800000000002  0.20521999999999993  0.35191  1.0000
  C   C88       1.0  0.55095  0.23457999999999996  0.17654  1.0000
  O   O1        1.0  0.59197  0.5733599999999998  0.97998  1.0000
  O   O2        1.0  0.6317599999999999  0.7255499999999997  0.9893399999999999  1.0000
  O   O3        1.0  0.48461999999999994  0.6624299999999997  0.05422  1.0000
  O   O4        1.0  0.45219000000000004  0.7517699999999999  0.9910299999999999  1.0000
  O   O5        1.0  0.41033  0.53775  0.8617  1.0000
  O   O6        1.0  0.51068  0.5787599999999998  0.80479  1.0000
  O   O7        1.0  0.53989  0.8077299999999998  0.88363  1.0000
  O   O8        1.0  0.3853999999999999  0.6817899999999998  0.80822  1.0000
  O   O9        1.0  0.25706  0.06947999999999996  0.46852  1.0000
  O   O10       1.0  0.2504899999999999  0.77746  0.47514  1.0000
  O   O11       1.0  0.37047999999999986  0.8977699999999997  0.39008  1.0000
  O   O12       1.0  0.03511000000000012  0.8370100000000001  0.35616  1.0000
  O   O13       1.0  0.40804  0.42706  0.02021  1.0000
  O   O14       1.0  0.36871  0.27441  0.00996  1.0000
  O   O15       1.0  0.5152999999999999  0.3376399999999998  0.9454  1.0000
  O   O16       1.0  0.54869  0.24908999999999995  0.00912  1.0000
  O   O17       1.0  0.59059  0.46264  0.13844  1.0000
  O   O18       1.0  0.48916999999999994  0.42143999999999987  0.19443  1.0000
  O   O19       1.0  0.46066  0.19254  0.11623  1.0000
  O   O20       1.0  0.6149199999999999  0.3188199999999999  0.19195  1.0000
  O   O21       1.0  0.7431900000000001  0.9306899999999996  0.53135  1.0000
  O   O22       1.0  0.74965  0.22267  0.52482  1.0000
  O   O23       1.0  0.62963  0.10219999999999976  0.6097799999999998  1.0000
  O   O24       1.0  0.9649799999999998  0.16304999999999994  0.6438  1.0000
