data_image0
_chemical_formula_structural       Cu6H68C88N8O24
_chemical_formula_sum              "Cu6 H68 C88 N8 O24"
_cell_length_a       8.65656
_cell_length_b       15.75771
_cell_length_c       18.32475
_cell_angle_alpha    97.1994
_cell_angle_beta     90.0
_cell_angle_gamma    90.0

_space_group_name_H-M_alt    "P 1"
_space_group_IT_number       1

loop_
  _space_group_symop_operation_xyz
  'x, y, z'

loop_
  _atom_site_type_symbol
  _atom_site_label
  _atom_site_symmetry_multiplicity
  _atom_site_fract_x
  _atom_site_fract_y
  _atom_site_fract_z
  _atom_site_occupancy
  Cu  Cu1       1.0  0.30875999999999987  0.2595600000000001  0.20811  1.0000
  Cu  Cu2       1.0  0.30875999999999987  0.24044000000000004  0.79189  1.0000
  Cu  Cu3       1.0  0.69124  0.7404400000000002  0.79189  1.0000
  Cu  Cu4       1.0  0.69124  0.75956  0.20811  1.0000
  Cu  Cu5       1.0  0.4499399999999999  0.25  0.5  1.0000
  Cu  Cu6       1.0  0.55006  0.75  0.5  1.0000
  H   H1        1.0  0.9981999999999999  0.28377  0.32729  1.0000
  H   H2        1.0  0.86426  0.2737500000000001  0.39938  1.0000
  H   H3        1.0  0.7996499999999997  0.31003  0.31745  1.0000
  H   H4        1.0  0.52121  0.008960000000000008  0.38785  1.0000
  H   H5        1.0  0.49418  0.95042  0.29942  1.0000
  H   H6        1.0  0.42216  0.056610000000000014  0.31914  1.0000
  H   H7        1.0  0.013809999999999996  0.92226  0.18065  1.0000
  H   H8        1.0  0.13108999999999996  0.014950000000000012  0.18100000000000005  1.0000
  H   H9        1.0  0.97623  0.99651  0.11773000000000002  1.0000
  H   H10       1.0  0.21569  0.16588  0.3834000000000001  1.0000
  H   H11       1.0  0.34458  0.14271  0.5984700000000001  1.0000
  H   H12       1.0  0.010839999999999997  0.05794000000000001  0.38546  1.0000
  H   H13       1.0  0.14827  0.031930000000000014  0.60921  1.0000
  H   H14       1.0  0.55954  0.13137000000000004  0.20142  1.0000
  H   H15       1.0  0.25168  0.21551000000000006  0.053  1.0000
  H   H16       1.0  0.631  0.00492  0.11504  1.0000
  H   H17       1.0  0.3226799999999999  0.09799999999999999  0.95579  1.0000
  H   H18       1.0  0.9981999999999999  0.21623000000000006  0.67271  1.0000
  H   H19       1.0  0.86426  0.2262500000000001  0.6006200000000003  1.0000
  H   H20       1.0  0.7996499999999997  0.18997000000000006  0.68255  1.0000
  H   H21       1.0  0.52121  0.4910400000000001  0.61215  1.0000
  H   H22       1.0  0.49418  0.5495800000000002  0.70059  1.0000
  H   H23       1.0  0.42216  0.44338  0.6808600000000002  1.0000
  H   H24       1.0  0.013809999999999996  0.5777400000000003  0.8193500000000001  1.0000
  H   H25       1.0  0.13108999999999996  0.4850500000000001  0.8190100000000001  1.0000
  H   H26       1.0  0.97623  0.5034900000000002  0.8822700000000001  1.0000
  H   H27       1.0  0.21569  0.3341200000000001  0.6166  1.0000
  H   H28       1.0  0.34458  0.35729  0.4015300000000001  1.0000
  H   H29       1.0  0.010839999999999997  0.44206  0.61454  1.0000
  H   H30       1.0  0.14827  0.4680700000000001  0.39079  1.0000
  H   H31       1.0  0.55954  0.3686300000000001  0.79858  1.0000
  H   H32       1.0  0.25168  0.28449  0.947  1.0000
  H   H33       1.0  0.6309899999999998  0.4950800000000002  0.8849600000000001  1.0000
  H   H34       1.0  0.3226799999999999  0.402  0.04421  1.0000
  H   H35       1.0  0.0018  0.71623  0.67271  1.0000
  H   H36       1.0  0.13574  0.7262500000000003  0.6006200000000003  1.0000
  H   H37       1.0  0.20034999999999994  0.6899700000000002  0.68255  1.0000
  H   H38       1.0  0.47877999999999993  0.9910300000000002  0.61215  1.0000
  H   H39       1.0  0.50582  0.04958000000000001  0.70059  1.0000
  H   H40       1.0  0.5778399999999998  0.9433800000000003  0.6808600000000002  1.0000
  H   H41       1.0  0.98618  0.07774000000000002  0.8193500000000001  1.0000
  H   H42       1.0  0.8689  0.9850500000000002  0.8190100000000001  1.0000
  H   H43       1.0  0.02376  0.0034900000000000135  0.8822700000000001  1.0000
  H   H44       1.0  0.78431  0.8341200000000002  0.6166  1.0000
  H   H45       1.0  0.65541  0.8572900000000002  0.4015300000000001  1.0000
  H   H46       1.0  0.9891499999999999  0.9420600000000002  0.61454  1.0000
  H   H47       1.0  0.8517299999999999  0.96807  0.39079  1.0000
  H   H48       1.0  0.44045  0.86863  0.79858  1.0000
  H   H49       1.0  0.74832  0.7844900000000002  0.947  1.0000
  H   H50       1.0  0.3689999999999999  0.9950800000000004  0.8849600000000001  1.0000
  H   H51       1.0  0.67732  0.9020000000000002  0.04421  1.0000
  H   H52       1.0  0.0018  0.7837700000000002  0.32729  1.0000
  H   H53       1.0  0.13574  0.77375  0.39938  1.0000
  H   H54       1.0  0.20034999999999994  0.8100300000000002  0.31745  1.0000
  H   H55       1.0  0.47878999999999994  0.5089600000000002  0.38785  1.0000
  H   H56       1.0  0.50582  0.4504200000000001  0.29941  1.0000
  H   H57       1.0  0.5778399999999998  0.55661  0.31914  1.0000
  H   H58       1.0  0.98618  0.42226000000000014  0.18065  1.0000
  H   H59       1.0  0.86891  0.51494  0.18100000000000005  1.0000
  H   H60       1.0  0.02377  0.4965100000000001  0.11773000000000002  1.0000
  H   H61       1.0  0.78431  0.6658700000000001  0.3834000000000001  1.0000
  H   H62       1.0  0.65541  0.6427100000000001  0.5984700000000001  1.0000
  H   H63       1.0  0.9891499999999999  0.5579400000000002  0.38546  1.0000
  H   H64       1.0  0.8517299999999999  0.5319300000000002  0.60921  1.0000
  H   H65       1.0  0.44045  0.6313700000000002  0.20142  1.0000
  H   H66       1.0  0.74832  0.7155100000000002  0.053  1.0000
  H   H67       1.0  0.3689999999999999  0.5049200000000003  0.11504  1.0000
  H   H68       1.0  0.67732  0.5980000000000002  0.95579  1.0000
  C   C1        1.0  0.0723  0.17186  0.22560000000000002  1.0000
  C   C2        1.0  0.87981  0.26526  0.33931000000000006  1.0000
  C   C3        1.0  0.6013  0.18706000000000003  0.38319  1.0000
  C   C4        1.0  0.51891  0.013979999999999994  0.32858  1.0000
  C   C5        1.0  0.73509  0.9118300000000003  0.23201000000000002  1.0000
  C   C6        1.0  0.012359999999999996  0.9907  0.17447  1.0000
  C   C7        1.0  0.9376099999999999  0.12677000000000005  0.2553  1.0000
  C   C8        1.0  0.8427399999999998  0.17445000000000005  0.30771  1.0000
  C   C9        1.0  0.7082099999999999  0.13547000000000006  0.33057  1.0000
  C   C10       1.0  0.66882  0.05070000000000002  0.30444000000000004  1.0000
  C   C11       1.0  0.77073  0.003790000000000004  0.25463  1.0000
  C   C12       1.0  0.90541  0.04086  0.22893  1.0000
  C   C13       1.0  0.19650999999999993  0.13467  0.43243  1.0000
  C   C14       1.0  0.26943  0.12056000000000006  0.55242  1.0000
  C   C15       1.0  0.08209  0.07306000000000001  0.43417000000000006  1.0000
  C   C16       1.0  0.15758999999999995  0.05864  0.55767  1.0000
  C   C17       1.0  0.06018  0.03299000000000001  0.49782  1.0000
  C   C18       1.0  0.50871  0.12068  0.14674  1.0000
  C   C19       1.0  0.3384  0.16836000000000007  0.06287  1.0000
  C   C20       1.0  0.54922  0.05032000000000001  0.09703  1.0000
  C   C21       1.0  0.37608  0.10076000000000003  0.00978  1.0000
  C   C22       1.0  0.48133999999999993  0.037960000000000015  0.02679  1.0000
  C   C23       1.0  0.0723  0.3281400000000001  0.7744000000000001  1.0000
  C   C24       1.0  0.87981  0.23474000000000006  0.66069  1.0000
  C   C25       1.0  0.60129  0.31293  0.61681  1.0000
  C   C26       1.0  0.51891  0.48602000000000006  0.67142  1.0000
  C   C27       1.0  0.73509  0.5881700000000002  0.76799  1.0000
  C   C28       1.0  0.012359999999999996  0.5093000000000002  0.82553  1.0000
  C   C29       1.0  0.9376099999999999  0.3732300000000001  0.7447  1.0000
  C   C30       1.0  0.8427399999999998  0.3255400000000001  0.6923  1.0000
  C   C31       1.0  0.7082099999999999  0.36453000000000013  0.66943  1.0000
  C   C32       1.0  0.66882  0.4493000000000001  0.69557  1.0000
  C   C33       1.0  0.77073  0.4962100000000001  0.74537  1.0000
  C   C34       1.0  0.90541  0.4591400000000001  0.77107  1.0000
  C   C35       1.0  0.19650999999999993  0.3653300000000001  0.56757  1.0000
  C   C36       1.0  0.26943  0.37944  0.44758000000000003  1.0000
  C   C37       1.0  0.08209  0.42694  0.56584  1.0000
  C   C38       1.0  0.15758999999999995  0.4413600000000001  0.44233  1.0000
  C   C39       1.0  0.06018  0.46701  0.50218  1.0000
  C   C40       1.0  0.50871  0.3793200000000001  0.85326  1.0000
  C   C41       1.0  0.3384  0.3316300000000001  0.9371400000000001  1.0000
  C   C42       1.0  0.54921  0.44968000000000025  0.9029800000000001  1.0000
  C   C43       1.0  0.37608  0.39923  0.9902200000000001  1.0000
  C   C44       1.0  0.48133999999999993  0.4620400000000001  0.9732200000000001  1.0000
  C   C45       1.0  0.9276899999999999  0.82814  0.7744000000000001  1.0000
  C   C46       1.0  0.12018999999999999  0.7347400000000002  0.66069  1.0000
  C   C47       1.0  0.3987  0.8129300000000003  0.61681  1.0000
  C   C48       1.0  0.48107999999999995  0.9860200000000002  0.67142  1.0000
  C   C49       1.0  0.26491  0.08817000000000003  0.76799  1.0000
  C   C50       1.0  0.9876399999999999  0.009300000000000004  0.82553  1.0000
  C   C51       1.0  0.06239  0.8732300000000002  0.7447  1.0000
  C   C52       1.0  0.15726  0.8255400000000003  0.6923  1.0000
  C   C53       1.0  0.29178  0.8645300000000002  0.66943  1.0000
  C   C54       1.0  0.33117999999999986  0.9493  0.69557  1.0000
  C   C55       1.0  0.22927  0.9962100000000003  0.74537  1.0000
  C   C56       1.0  0.09458999999999997  0.95914  0.77107  1.0000
  C   C57       1.0  0.80348  0.8653300000000003  0.56757  1.0000
  C   C58       1.0  0.73057  0.8794400000000002  0.44758000000000003  1.0000
  C   C59       1.0  0.91791  0.92694  0.56584  1.0000
  C   C60       1.0  0.8424099999999999  0.94136  0.44233  1.0000
  C   C61       1.0  0.93981  0.9670000000000002  0.50218  1.0000
  C   C62       1.0  0.49127999999999994  0.8793200000000002  0.85326  1.0000
  C   C63       1.0  0.6616  0.8316300000000002  0.9371400000000001  1.0000
  C   C64       1.0  0.45078  0.9496800000000002  0.9029800000000001  1.0000
  C   C65       1.0  0.62392  0.8992300000000001  0.9902200000000001  1.0000
  C   C66       1.0  0.51865  0.9620400000000002  0.9732200000000001  1.0000
  C   C67       1.0  0.9276899999999999  0.6718500000000002  0.22560000000000002  1.0000
  C   C68       1.0  0.12018999999999999  0.7652500000000002  0.33931000000000006  1.0000
  C   C69       1.0  0.3987  0.6870600000000002  0.38319  1.0000
  C   C70       1.0  0.48109  0.51398  0.32858  1.0000
  C   C71       1.0  0.26491  0.4118300000000001  0.23201000000000002  1.0000
  C   C72       1.0  0.9876399999999999  0.49070000000000014  0.17447  1.0000
  C   C73       1.0  0.06239  0.62677  0.25531  1.0000
  C   C74       1.0  0.15726  0.67445  0.30771  1.0000
  C   C75       1.0  0.29178  0.63547  0.33057  1.0000
  C   C76       1.0  0.33117999999999986  0.5507  0.30444000000000004  1.0000
  C   C77       1.0  0.22927  0.50379  0.25463  1.0000
  C   C78       1.0  0.09458999999999997  0.5408600000000002  0.22894  1.0000
  C   C79       1.0  0.80348  0.6346700000000002  0.43243  1.0000
  C   C80       1.0  0.73057  0.6205600000000002  0.55242  1.0000
  C   C81       1.0  0.91791  0.57306  0.43417000000000006  1.0000
  C   C82       1.0  0.8424099999999999  0.5586400000000002  0.55767  1.0000
  C   C83       1.0  0.93981  0.53299  0.49782  1.0000
  C   C84       1.0  0.49127999999999994  0.62068  0.14674  1.0000
  C   C85       1.0  0.6616  0.66836  0.06287  1.0000
  C   C86       1.0  0.45078  0.5503200000000003  0.09702  1.0000
  C   C87       1.0  0.62392  0.60076  0.00978  1.0000
  C   C88       1.0  0.51866  0.53796  0.02679  1.0000
  N   N1        1.0  0.28889  0.15792  0.49081  1.0000
  N   N2        1.0  0.40275999999999995  0.17833000000000007  0.13056000000000004  1.0000
  N   N3        1.0  0.28889  0.3420800000000001  0.50919  1.0000
  N   N4        1.0  0.40275999999999995  0.3216700000000001  0.86944  1.0000
  N   N5        1.0  0.7111  0.8420800000000003  0.50919  1.0000
  N   N6        1.0  0.59723  0.8216700000000002  0.86944  1.0000
  N   N7        1.0  0.7111  0.65792  0.49081  1.0000
  N   N8        1.0  0.59723  0.67833  0.13056000000000004  1.0000
  O   O1        1.0  0.20288  0.17073000000000005  0.26059  1.0000
  O   O2        1.0  0.05416  0.21174  0.17102  1.0000
  O   O3        1.0  0.51304  0.24116000000000007  0.35992  1.0000
  O   O4        1.0  0.60897  0.17110000000000003  0.45049000000000006  1.0000
  O   O5        1.0  0.7520699999999999  0.8589500000000003  0.27948000000000006  1.0000
  O   O6        1.0  0.68538  0.8829100000000002  0.16784000000000004  1.0000
  O   O7        1.0  0.20288  0.32927  0.73941  1.0000
  O   O8        1.0  0.05416  0.28826  0.82898  1.0000
  O   O9        1.0  0.51304  0.2588400000000001  0.64008  1.0000
  O   O10       1.0  0.60897  0.32890000000000014  0.54951  1.0000
  O   O11       1.0  0.7520699999999999  0.6410400000000003  0.7205300000000002  1.0000
  O   O12       1.0  0.6853699999999998  0.61708  0.83217  1.0000
  O   O13       1.0  0.7971099999999998  0.8292700000000002  0.73941  1.0000
  O   O14       1.0  0.94584  0.7882600000000002  0.82898  1.0000
  O   O15       1.0  0.48695999999999995  0.7588400000000002  0.64008  1.0000
  O   O16       1.0  0.39103  0.8289  0.54951  1.0000
  O   O17       1.0  0.24793  0.14104000000000008  0.7205300000000002  1.0000
  O   O18       1.0  0.3146199999999999  0.11708000000000003  0.83217  1.0000
  O   O19       1.0  0.7971099999999998  0.6707300000000003  0.2606  1.0000
  O   O20       1.0  0.94584  0.7117300000000001  0.17102  1.0000
  O   O21       1.0  0.48695999999999995  0.74116  0.35992  1.0000
  O   O22       1.0  0.39103  0.6711000000000003  0.45049000000000006  1.0000
  O   O23       1.0  0.24791999999999997  0.35895  0.27948000000000006  1.0000
  O   O24       1.0  0.3146199999999999  0.3829100000000001  0.16784000000000004  1.0000
