data_image0
_chemical_formula_structural       Mn12H16C80O64
_chemical_formula_sum              "Mn12 H16 C80 O64"
_cell_length_a       9.40484
_cell_length_b       17.32057
_cell_length_c       19.11698
_cell_angle_alpha    90.00183
_cell_angle_beta     90.0
_cell_angle_gamma    89.99597

_space_group_name_H-M_alt    "P 1"
_space_group_IT_number       1

loop_
  _space_group_symop_operation_xyz
  'x, y, z'

loop_
  _atom_site_type_symbol
  _atom_site_label
  _atom_site_symmetry_multiplicity
  _atom_site_fract_x
  _atom_site_fract_y
  _atom_site_fract_z
  _atom_site_occupancy
  Mn  Mn1       1.0  0.26583  0.1909  0.2556  1.0000
  Mn  Mn2       1.0  0.23465000000000003  0.69058  0.24428  1.0000
  Mn  Mn3       1.0  0.26493  0.30967  0.7446999999999998  1.0000
  Mn  Mn4       1.0  0.23394  0.80845  0.7564  1.0000
  Mn  Mn5       1.0  0.73463  0.8093699999999999  0.74423  1.0000
  Mn  Mn6       1.0  0.76571  0.30863  0.75639  1.0000
  Mn  Mn7       1.0  0.73468  0.69126  0.25586  1.0000
  Mn  Mn8       1.0  0.76552  0.19053  0.24439  1.0000
  Mn  Mn9       1.0  0.3844  0.75079  0.50043  1.0000
  Mn  Mn10      1.0  0.1147  0.24994  8.999999999999998e-05  1.0000
  Mn  Mn11      1.0  0.6145  0.25003  0.4998699999999999  1.0000
  Mn  Mn12      1.0  0.88559  0.75085  0.9996199999999998  1.0000
  H   H1        1.0  0.93982  0.94496  0.22313  1.0000
  H   H2        1.0  0.30445  0.9378299999999999  0.41006999999999993  1.0000
  H   H3        1.0  0.56016  0.44505999999999996  0.27691  1.0000
  H   H4        1.0  0.19574  0.43722  0.08991  1.0000
  H   H5        1.0  0.93983  0.55495  0.7768499999999999  1.0000
  H   H6        1.0  0.3042  0.5624999999999999  0.5899899999999999  1.0000
  H   H7        1.0  0.55999  0.054969999999999984  0.72304  1.0000
  H   H8        1.0  0.19533  0.06261  0.9101199999999999  1.0000
  H   H9        1.0  0.059390000000000005  0.05499  0.7768499999999999  1.0000
  H   H10       1.0  0.69539  0.062479999999999994  0.58973  1.0000
  H   H11       1.0  0.44065  0.5549599999999999  0.72303  1.0000
  H   H12       1.0  0.80476  0.5627999999999997  0.9103099999999998  1.0000
  H   H13       1.0  0.06003  0.44513999999999987  0.22320999999999996  1.0000
  H   H14       1.0  0.69541  0.43744999999999995  0.41004  1.0000
  H   H15       1.0  0.43977  0.94493  0.27688  1.0000
  H   H16       1.0  0.80427  0.9373899999999998  0.08996  1.0000
  C   C1        1.0  0.25954  0.08027  0.37261999999999995  1.0000
  C   C2        1.0  0.18659  0.01029  0.34132  1.0000
  C   C3        1.0  0.08182  0.01184  0.28828  1.0000
  C   C4        1.0  0.02084  0.94299  0.26345  1.0000
  C   C5        1.0  0.06469  0.87159  0.2894299999999999  1.0000
  C   C6        1.0  0.17011  0.86965  0.342  1.0000
  C   C7        1.0  0.22619  0.93879  0.36847  1.0000
  C   C8        1.0  0.02663  0.08499  0.25613  1.0000
  C   C9        1.0  0.99662  0.80006  0.2596899999999999  1.0000
  C   C10       1.0  0.22707000000000002  0.7971699999999999  0.37072  1.0000
  C   C11       1.0  0.24054999999999999  0.5797599999999998  0.1273  1.0000
  C   C12       1.0  0.31316  0.50995  0.1588  1.0000
  C   C13       1.0  0.41766  0.51147  0.21193  1.0000
  C   C14       1.0  0.47926  0.44272  0.23659  1.0000
  C   C15       1.0  0.43666  0.37124999999999997  0.21033999999999997  1.0000
  C   C16       1.0  0.33092  0.36931  0.15785  1.0000
  C   C17       1.0  0.27404  0.43839  0.13155  1.0000
  C   C18       1.0  0.47324999999999995  0.58464  0.2438  1.0000
  C   C19       1.0  0.50466  0.29959  0.24027  1.0000
  C   C20       1.0  0.27339  0.29698  0.12919  1.0000
  C   C21       1.0  0.26029  0.42003  0.62774  1.0000
  C   C22       1.0  0.18715  0.48974  0.6589399999999999  1.0000
  C   C23       1.0  0.08232  0.48828999999999995  0.71199  1.0000
  C   C24       1.0  0.02061  0.55715  0.73645  1.0000
  C   C25       1.0  0.06326  0.6286299999999998  0.71013  1.0000
  C   C26       1.0  0.16887  0.63037  0.65757  1.0000
  C   C27       1.0  0.22600000000000003  0.56127  0.63159  1.0000
  C   C28       1.0  0.02713  0.41515  0.74372  1.0000
  C   C29       1.0  0.9951800000000001  0.7002599999999998  0.7402899999999999  1.0000
  C   C30       1.0  0.22557  0.70287  0.6288  1.0000
  C   C31       1.0  0.24212  0.9199  0.87316  1.0000
  C   C32       1.0  0.31408  0.9900499999999999  0.84167  1.0000
  C   C33       1.0  0.41845  0.98832  0.7885299999999998  1.0000
  C   C34       1.0  0.47920000000000007  0.05714  0.7634499999999997  1.0000
  C   C35       1.0  0.4354799999999999  0.12859  0.78935  1.0000
  C   C36       1.0  0.32992  0.13063  0.8418699999999999  1.0000
  C   C37       1.0  0.27391  0.061579999999999996  0.8685899999999999  1.0000
  C   C38       1.0  0.47344  0.91504  0.7561399999999998  1.0000
  C   C39       1.0  0.5031  0.2003  0.75978  1.0000
  C   C40       1.0  0.2726  0.20306  0.87033  1.0000
  C   C41       1.0  0.74119  0.9198799999999998  0.6272  1.0000
  C   C42       1.0  0.81327  0.98974  0.65852  1.0000
  C   C43       1.0  0.91775  0.98828  0.7116899999999999  1.0000
  C   C44       1.0  0.97868  0.05716  0.73644  1.0000
  C   C45       1.0  0.9358200000000001  0.12854999999999997  0.71012  1.0000
  C   C46       1.0  0.83042  0.1304  0.6575  1.0000
  C   C47       1.0  0.7737  0.06127  0.63132  1.0000
  C   C48       1.0  0.9733799999999999  0.9152899999999998  0.74378  1.0000
  C   C49       1.0  0.00409  0.20001999999999995  0.74027  1.0000
  C   C50       1.0  0.77419  0.20301  0.62867  1.0000
  C   C51       1.0  0.75814  0.41991999999999996  0.8732199999999999  1.0000
  C   C52       1.0  0.68656  0.49013  0.84165  1.0000
  C   C53       1.0  0.58226  0.48841  0.7885  1.0000
  C   C54       1.0  0.52135  0.55719  0.76347  1.0000
  C   C55       1.0  0.56436  0.62864  0.78963  1.0000
  C   C56       1.0  0.66977  0.63067  0.8422299999999999  1.0000
  C   C57       1.0  0.72633  0.56168  0.8687099999999999  1.0000
  C   C58       1.0  0.52703  0.4151399999999999  0.7561799999999999  1.0000
  C   C59       1.0  0.49605  0.7000299999999998  0.75978  1.0000
  C   C60       1.0  0.72687  0.70306  0.87088  1.0000
  C   C61       1.0  0.74218  0.58034  0.37302999999999986  1.0000
  C   C62       1.0  0.81372  0.51008  0.34154  1.0000
  C   C63       1.0  0.9180700000000002  0.5117  0.28844  1.0000
  C   C64       1.0  0.9791499999999999  0.4429099999999999  0.26353  1.0000
  C   C65       1.0  0.9361000000000002  0.37144  0.28963999999999995  1.0000
  C   C66       1.0  0.8303  0.36946  0.34208  1.0000
  C   C67       1.0  0.77386  0.43856  0.36851  1.0000
  C   C68       1.0  0.97343  0.58484  0.25624  1.0000
  C   C69       1.0  0.00401  0.2998199999999999  0.25973  1.0000
  C   C70       1.0  0.77307  0.29705  0.37077  1.0000
  C   C71       1.0  0.75936  0.07985  0.12734  1.0000
  C   C72       1.0  0.68652  0.010089999999999997  0.15876  1.0000
  C   C73       1.0  0.58181  0.011589999999999996  0.21181  1.0000
  C   C74       1.0  0.52054  0.9427499999999999  0.23648999999999998  1.0000
  C   C75       1.0  0.56348  0.8713099999999998  0.21022  1.0000
  C   C76       1.0  0.66898  0.8694299999999998  0.15765  1.0000
  C   C77       1.0  0.72584  0.93853  0.13152  1.0000
  C   C78       1.0  0.52652  0.08476  0.24388  1.0000
  C   C79       1.0  0.4954  0.79972  0.24022  1.0000
  C   C80       1.0  0.72608  0.7969999999999998  0.12876  1.0000
  O   O1        1.0  0.33572  0.07256  0.42477999999999994  1.0000
  O   O2        1.0  0.23522999999999997  0.14886  0.34480999999999995  1.0000
  O   O3        1.0  0.10554  0.12195  0.21427  1.0000
  O   O4        1.0  0.8987499999999999  0.10126  0.2719  1.0000
  O   O5        1.0  0.06753  0.7635  0.2137  1.0000
  O   O6        1.0  0.87201  0.78455  0.28074  1.0000
  O   O7        1.0  0.21338999999999997  0.73125  0.34318  1.0000
  O   O8        1.0  0.29654  0.8061  0.42931  1.0000
  O   O9        1.0  0.16425  0.57143  0.07533  1.0000
  O   O10       1.0  0.2651  0.64873  0.15475  1.0000
  O   O11       1.0  0.39421  0.62171  0.28575  1.0000
  O   O12       1.0  0.6008  0.60104  0.22812999999999997  1.0000
  O   O13       1.0  0.43427  0.26371  0.28674  1.0000
  O   O14       1.0  0.62877  0.28314  0.21883  1.0000
  O   O15       1.0  0.28658  0.23109999999999997  0.15675  1.0000
  O   O16       1.0  0.20358  0.30589  0.07056999999999998  1.0000
  O   O17       1.0  0.33512  0.4268399999999999  0.57523  1.0000
  O   O18       1.0  0.23709  0.35086999999999996  0.6559599999999999  1.0000
  O   O19       1.0  0.10671000000000001  0.37741  0.7850899999999998  1.0000
  O   O20       1.0  0.89933  0.39896999999999994  0.72867  1.0000
  O   O21       1.0  0.06484  0.73571  0.78722  1.0000
  O   O22       1.0  0.87112  0.71683  0.71866  1.0000
  O   O23       1.0  0.20976  0.76845  0.65634  1.0000
  O   O24       1.0  0.29677  0.6939599999999998  0.5704699999999999  1.0000
  O   O25       1.0  0.16374  0.92897  0.9245799999999998  1.0000
  O   O26       1.0  0.26949  0.85154  0.8466399999999998  1.0000
  O   O27       1.0  0.39474  0.87844  0.71406  1.0000
  O   O28       1.0  0.60144  0.89865  0.77193  1.0000
  O   O29       1.0  0.43147  0.23750999999999997  0.71439  1.0000
  O   O30       1.0  0.62791  0.21553999999999995  0.7805599999999999  1.0000
  O   O31       1.0  0.28536  0.26904999999999996  0.84246  1.0000
  O   O32       1.0  0.20434  0.19463999999999995  0.92926  1.0000
  O   O33       1.0  0.66464  0.92703  0.57531  1.0000
  O   O34       1.0  0.76699  0.8508999999999999  0.65513  1.0000
  O   O35       1.0  0.8943399999999999  0.8782799999999997  0.78583  1.0000
  O   O36       1.0  0.10106  0.89887  0.72836  1.0000
  O   O37       1.0  0.9343200000000002  0.23546  0.7871799999999998  1.0000
  O   O38       1.0  0.1284  0.21609999999999993  0.7188099999999998  1.0000
  O   O39       1.0  0.79062  0.26857999999999993  0.65618  1.0000
  O   O40       1.0  0.70309  0.19411999999999993  0.57026  1.0000
  O   O41       1.0  0.83643  0.42901999999999996  0.92473  1.0000
  O   O42       1.0  0.73082  0.35155  0.8468999999999999  1.0000
  O   O43       1.0  0.60546  0.37843  0.7140499999999999  1.0000
  O   O44       1.0  0.39906  0.39901  0.7721399999999998  1.0000
  O   O45       1.0  0.56662  0.73632  0.7135099999999999  1.0000
  O   O46       1.0  0.3716  0.71563  0.78089  1.0000
  O   O47       1.0  0.71323  0.76899  0.84311  1.0000
  O   O48       1.0  0.7964  0.6943299999999998  0.9294399999999999  1.0000
  O   O49       1.0  0.66424  0.57171  0.42467  1.0000
  O   O50       1.0  0.76973  0.6486  0.34615  1.0000
  O   O51       1.0  0.89479  0.6215299999999999  0.21403999999999998  1.0000
  O   O52       1.0  0.10121  0.60117  0.27213  1.0000
  O   O53       1.0  0.93311  0.26395  0.2134  1.0000
  O   O54       1.0  0.1283  0.2836  0.28098  1.0000
  O   O55       1.0  0.78665  0.23109999999999997  0.3432299999999999  1.0000
  O   O56       1.0  0.7035  0.30599  0.42932  1.0000
  O   O57       1.0  0.83568  0.07161  0.07534  1.0000
  O   O58       1.0  0.73505  0.14876999999999996  0.1549  1.0000
  O   O59       1.0  0.60536  0.1217  0.28586  1.0000
  O   O60       1.0  0.3988  0.10117  0.22801  1.0000
  O   O61       1.0  0.56549  0.76399  0.28693  1.0000
  O   O62       1.0  0.37133  0.78336  0.21875  1.0000
  O   O63       1.0  0.71146  0.7312699999999999  0.15617  1.0000
  O   O64       1.0  0.79697  0.80626  0.0704  1.0000
