data_image0
_chemical_formula_structural       Cd8H40C88O32
_chemical_formula_sum              "Cd8 H40 C88 O32"
_cell_length_a       15.18822
_cell_length_b       14.485160000000002
_cell_length_c       14.4906
_cell_angle_alpha    74.06944
_cell_angle_beta     58.40159
_cell_angle_gamma    58.434000000000005

_symmetry_space_group_name_H-M    'P 1'
_symmetry_Int_Tables_number       1

loop_
  _symmetry_equiv_pos_as_xyz
  'x,y,z'

loop_
  _atom_site_type_symbol
  _atom_site_label
  _atom_site_symmetry_multiplicity
  _atom_site_fract_x
  _atom_site_fract_y
  _atom_site_fract_z
  _atom_site_occupancy
  Cd  Cd1       1.0  0.84262  0.21262  0.18504  1.0000
  Cd  Cd2       1.0  0.7595300000000001  0.7122299999999998  0.68435  1.0000
  Cd  Cd3       1.0  0.028240000000000053  0.31538  0.21188  1.0000
  Cd  Cd4       1.0  0.4446200000000003  0.8151  0.7126699999999999  1.0000
  Cd  Cd5       1.0  0.55538  0.18489  0.28733  1.0000
  Cd  Cd6       1.0  0.15737999999999996  0.78738  0.81496  1.0000
  Cd  Cd7       1.0  0.97176  0.68462  0.7881199999999999  1.0000
  Cd  Cd8       1.0  0.2404699999999998  0.28776  0.31565  1.0000
  H   H1        1.0  0.208  0.1032  0.45052  1.0000
  H   H2        1.0  0.09131  0.84507  0.14874  1.0000
  H   H3        1.0  0.28622  0.62594  0.21454  1.0000
  H   H4        1.0  0.43713000000000013  0.14832  0.6546599999999998  1.0000
  H   H5        1.0  0.45909  0.1487  0.09263999999999997  1.0000
  H   H6        1.0  0.29986000000000007  0.6479  0.5937099999999998  1.0000
  H   H7        1.0  0.43521999999999994  0.56643  0.27344  1.0000
  H   H8        1.0  0.7137799999999997  0.37405  0.78546  1.0000
  H   H9        1.0  0.5516999999999996  0.4069499999999999  0.1485  1.0000
  H   H10       1.0  0.91566  0.34546  0.64714  1.0000
  H   H11       1.0  0.9086799999999999  0.15493  0.85126  1.0000
  H   H12       1.0  0.56287  0.8516699999999998  0.34534  1.0000
  H   H13       1.0  0.72501  0.06616  0.7728399999999999  1.0000
  H   H14       1.0  0.792  0.8968  0.54948  1.0000
  H   H15       1.0  0.5647799999999998  0.43356999999999996  0.7265599999999999  1.0000
  H   H16       1.0  0.1275000000000001  0.8729299999999999  0.28649  1.0000
  H   H17       1.0  0.5868899999999999  0.78609  0.12737  1.0000
  H   H18       1.0  0.7094899999999998  0.22692999999999997  0.56613  1.0000
  H   H19       1.0  0.4131099999999998  0.21389999999999998  0.87263  1.0000
  H   H20       1.0  0.29050999999999993  0.77307  0.43387  1.0000
  H   H21       1.0  0.4483  0.59305  0.8514999999999999  1.0000
  H   H22       1.0  0.5020499999999997  0.27269  0.9329899999999998  1.0000
  H   H23       1.0  0.70014  0.3521  0.40629  1.0000
  H   H24       1.0  0.65953  0.04891  0.10285  1.0000
  H   H25       1.0  0.8724999999999999  0.12707  0.71351  1.0000
  H   H26       1.0  0.49795  0.72731  0.06701  1.0000
  H   H27       1.0  0.10729000000000007  0.09301999999999999  0.35167999999999994  1.0000
  H   H28       1.0  0.08434000000000004  0.65453  0.35286  1.0000
  H   H29       1.0  0.54091  0.85129  0.90736  1.0000
  H   H30       1.0  0.18864  0.54955  0.60387  1.0000
  H   H31       1.0  0.7620399999999999  0.39701999999999993  0.04906  1.0000
  H   H32       1.0  0.4987  0.71376  0.37369  1.0000
  H   H33       1.0  0.27499000000000007  0.9338399999999999  0.22716  1.0000
  H   H34       1.0  0.23796000000000006  0.60298  0.9509399999999999  1.0000
  H   H35       1.0  0.5012899999999998  0.28624  0.62631  1.0000
  H   H36       1.0  0.23924000000000015  0.35201999999999994  0.8450799999999999  1.0000
  H   H37       1.0  0.8927099999999999  0.90698  0.6483199999999999  1.0000
  H   H38       1.0  0.76076  0.64798  0.15492  1.0000
  H   H39       1.0  0.8113599999999996  0.45045  0.39613  1.0000
  H   H40       1.0  0.34047  0.95108  0.8971499999999999  1.0000
  C   C1        1.0  0.5309899999999999  0.44655  0.08193  1.0000
  C   C2        1.0  0.76483  0.057969999999999994  0.55271  1.0000
  C   C3        1.0  0.56449  0.20099999999999996  0.61001  1.0000
  C   C4        1.0  0.2780600000000001  0.37549999999999994  0.8738199999999998  1.0000
  C   C5        1.0  0.9980699999999999  0.37177999999999994  0.4327  1.0000
  C   C6        1.0  0.17409000000000005  0.88971  0.20126  1.0000
  C   C7        1.0  0.77052  0.51439  0.10554999999999998  1.0000
  C   C8        1.0  0.7349500000000001  0.85579  0.85332  1.0000
  C   C9        1.0  0.26505  0.14421  0.14668  1.0000
  C   C10       1.0  0.4717900000000001  0.87536  0.37401  1.0000
  C   C11       1.0  0.52821  0.12464  0.62599  1.0000
  C   C12       1.0  0.8480699999999999  0.37408  0.62374  1.0000
  C   C13       1.0  0.8699599999999996  0.43336  0.12802  1.0000
  C   C14       1.0  0.42384000000000005  0.33204999999999996  0.9247399999999999  1.0000
  C   C15       1.0  0.31708999999999976  0.94741  0.05816  1.0000
  C   C16       1.0  0.6128099999999999  0.41841  0.4461099999999999  1.0000
  C   C17       1.0  0.5550199999999995  0.35607  0.35334  1.0000
  C   C18       1.0  0.11255  0.97544  0.47919  1.0000
  C   C19       1.0  0.2953700000000002  0.93236  0.98205  1.0000
  C   C20       1.0  0.12386999999999995  0.60573  0.48643  1.0000
  C   C21       1.0  0.21497999999999995  0.89457  0.014749999999999996  1.0000
  C   C22       1.0  0.32216999999999996  0.5529  0.44258  1.0000
  C   C23       1.0  0.52618  0.43681  0.42311  1.0000
  C   C24       1.0  0.58875  0.64648  0.85581  1.0000
  C   C25       1.0  0.46313999999999983  0.42316999999999994  0.06321  1.0000
  C   C26       1.0  0.001929999999999989  0.62822  0.5672999999999999  1.0000
  C   C27       1.0  0.41171  0.52088  0.47567999999999994  1.0000
  C   C28       1.0  0.6778299999999999  0.44709999999999994  0.55742  1.0000
  C   C29       1.0  0.43078  0.06677  0.37166999999999994  1.0000
  C   C30       1.0  0.09131  0.85306  0.64393  1.0000
  C   C31       1.0  0.22948  0.48561  0.89445  1.0000
  C   C32       1.0  0.4080500000000001  0.97924  0.024689999999999997  1.0000
  C   C33       1.0  0.4449800000000001  0.64393  0.64666  1.0000
  C   C34       1.0  0.9496399999999997  0.07685  0.43661999999999995  1.0000
  C   C35       1.0  0.4690099999999997  0.55345  0.91807  1.0000
  C   C36       1.0  0.6818299999999998  0.16786  0.57465  1.0000
  C   C37       1.0  0.25603000000000004  0.9252299999999999  0.16803  1.0000
  C   C38       1.0  0.6101  0.014399999999999998  0.60569  1.0000
  C   C39       1.0  0.05036000000000007  0.92315  0.56338  1.0000
  C   C40       1.0  0.6829100000000001  0.05259  0.9418399999999998  1.0000
  C   C41       1.0  0.7355799999999996  0.3900799999999999  0.70026  1.0000
  C   C42       1.0  0.7219400000000001  0.6245  0.12617999999999996  1.0000
  C   C43       1.0  0.31817000000000006  0.83214  0.4253499999999999  1.0000
  C   C44       1.0  0.059360000000000024  0.05359  0.41816  1.0000
  C   C45       1.0  0.15193000000000006  0.62592  0.37625999999999993  1.0000
  C   C46       1.0  0.79065  0.43189999999999995  0.48099  1.0000
  C   C47       1.0  0.56922  0.93323  0.6283299999999999  1.0000
  C   C48       1.0  0.57616  0.66795  0.07526  1.0000
  C   C49       1.0  0.38719000000000003  0.58159  0.55389  1.0000
  C   C50       1.0  0.5223  0.91794  0.9466899999999999  1.0000
  C   C51       1.0  0.84637  0.12607  0.8750399999999999  1.0000
  C   C52       1.0  0.8259099999999999  0.11029  0.79874  1.0000
  C   C53       1.0  0.56716  0.52478  0.02104  1.0000
  C   C54       1.0  0.7281899999999997  0.98172  0.56791  1.0000
  C   C55       1.0  0.8761299999999999  0.39426999999999995  0.51357  1.0000
  C   C56       1.0  0.7225600000000001  0.48179999999999995  0.06797  1.0000
  C   C57       1.0  0.6247100000000001  0.55813  0.053019999999999984  1.0000
  C   C58       1.0  0.74397  0.07477  0.83196  1.0000
  C   C59       1.0  0.6135899999999999  0.9365  0.92333  1.0000
  C   C60       1.0  0.38989999999999986  0.98559  0.39431  1.0000
  C   C61       1.0  0.43284000000000017  0.47522  0.97896  1.0000
  C   C62       1.0  0.6513  0.42524  0.6672699999999999  1.0000
  C   C63       1.0  0.13004000000000016  0.56663  0.8719799999999998  1.0000
  C   C64       1.0  0.7850199999999999  0.10543  0.98525  1.0000
  C   C65       1.0  0.5882899999999995  0.47912  0.52432  1.0000
  C   C66       1.0  0.2644199999999999  0.60992  0.29974  1.0000
  C   C67       1.0  0.41125  0.35352  0.14419  1.0000
  C   C68       1.0  0.15363000000000007  0.8739299999999999  0.12495999999999999  1.0000
  C   C69       1.0  0.43551  0.799  0.38998999999999995  1.0000
  C   C70       1.0  0.23517000000000005  0.94203  0.44729  1.0000
  C   C71       1.0  0.19698000000000007  0.8718099999999998  0.93346  1.0000
  C   C72       1.0  0.2774400000000001  0.5182000000000001  0.9320299999999998  1.0000
  C   C73       1.0  0.4738199999999998  0.56318  0.57689  1.0000
  C   C74       1.0  0.80302  0.12818  0.06654  1.0000
  C   C75       1.0  0.9406399999999999  0.94641  0.58184  1.0000
  C   C76       1.0  0.59195  0.02076  0.9753099999999999  1.0000
  C   C77       1.0  0.34868999999999983  0.57476  0.33273  1.0000
  C   C78       1.0  0.38641  0.0635  0.07667  1.0000
  C   C79       1.0  0.70463  0.06764  0.01795  1.0000
  C   C80       1.0  0.20934999999999981  0.5681  0.51901  1.0000
  C   C81       1.0  0.3748499999999998  0.29904  0.88937  1.0000
  C   C82       1.0  0.62515  0.70095  0.11063  1.0000
  C   C83       1.0  0.8874499999999999  0.02456  0.52081  1.0000
  C   C84       1.0  0.5368600000000002  0.57683  0.9367899999999998  1.0000
  C   C85       1.0  0.37528999999999996  0.44186  0.9469799999999999  1.0000
  C   C86       1.0  0.4777  0.08205999999999998  0.05330999999999999  1.0000
  C   C87       1.0  0.27181  0.01828  0.4320899999999999  1.0000
  C   C88       1.0  0.9086899999999999  0.14694  0.35607  1.0000
  O   O1        1.0  0.5157  0.68374  0.60789  1.0000
  O   O2        1.0  0.4753799999999999  0.26223  0.17117  1.0000
  O   O3        1.0  0.4596100000000001  0.9676999999999999  0.6666399999999999  1.0000
  O   O4        1.0  0.80716  0.81635  0.8914699999999998  1.0000
  O   O5        1.0  0.7475999999999996  0.11158  0.16823  1.0000
  O   O6        1.0  0.97162  0.6114899999999999  0.6690599999999999  1.0000
  O   O7        1.0  0.08389  0.6683599999999998  0.88817  1.0000
  O   O8        1.0  0.35349999999999987  0.67127  0.73769  1.0000
  O   O9        1.0  0.4843  0.31626  0.39211  1.0000
  O   O10       1.0  0.09226  0.53212  0.83473  1.0000
  O   O11       1.0  0.5246200000000001  0.7377699999999999  0.8288299999999997  1.0000
  O   O12       1.0  0.0900600000000001  0.7623599999999998  0.67129  1.0000
  O   O13       1.0  0.64093  0.83156  0.61119  1.0000
  O   O14       1.0  0.87471  0.16606  0.03235  1.0000
  O   O15       1.0  0.6465  0.32873  0.26231  1.0000
  O   O16       1.0  0.2524000000000002  0.88842  0.83177  1.0000
  O   O17       1.0  0.76105  0.82829  0.76273  1.0000
  O   O18       1.0  0.12413999999999992  0.89119  0.6833699999999998  1.0000
  O   O19       1.0  0.9161  0.33164  0.11182999999999997  1.0000
  O   O20       1.0  0.3006400000000001  0.39279999999999987  0.18454999999999996  1.0000
  O   O21       1.0  0.54039  0.0323  0.33335999999999993  1.0000
  O   O22       1.0  0.12528999999999998  0.8339399999999999  0.96765  1.0000
  O   O23       1.0  0.6993599999999999  0.6072  0.8154499999999999  1.0000
  O   O24       1.0  0.9099400000000001  0.23764  0.32870999999999995  1.0000
  O   O25       1.0  0.23894999999999997  0.17171  0.23727  1.0000
  O   O26       1.0  0.8758599999999999  0.10880999999999999  0.31663  1.0000
  O   O27       1.0  0.3590699999999998  0.16843999999999998  0.38881  1.0000
  O   O28       1.0  0.02838000000000007  0.38851  0.3309399999999999  1.0000
  O   O29       1.0  0.07276000000000002  0.334  0.46764999999999995  1.0000
  O   O30       1.0  0.9272400000000001  0.666  0.53235  1.0000
  O   O31       1.0  0.9077399999999999  0.46787  0.16527  1.0000
  O   O32       1.0  0.19284000000000004  0.18364999999999995  0.10852999999999999  1.0000
