data_image0
_chemical_formula_structural       La2Cu8H48C72I8N6O12
_chemical_formula_sum              "La2 Cu8 H48 C72 I8 N6 O12"
_cell_length_a       9.84635
_cell_length_b       16.07837
_cell_length_c       21.46066
_cell_angle_alpha    103.87819
_cell_angle_beta     100.96642
_cell_angle_gamma    96.26802

_symmetry_space_group_name_H-M    'P 1'
_symmetry_Int_Tables_number       1

loop_
  _symmetry_equiv_pos_as_xyz
  'x,y,z'

loop_
  _atom_site_type_symbol
  _atom_site_label
  _atom_site_symmetry_multiplicity
  _atom_site_fract_x
  _atom_site_fract_y
  _atom_site_fract_z
  _atom_site_occupancy
  La  La1       1.0  0.29021  0.5195699999999996  0.9982099999999999  1.0000
  La  La2       1.0  0.70979  0.4804299999999999  0.0017999999999999997  1.0000
  Cu  Cu1       1.0  0.0006499999999999625  0.94183  0.53687  1.0000
  Cu  Cu2       1.0  0.7544499999999998  0.82999  0.49858999999999987  1.0000
  Cu  Cu3       1.0  0.8190400000000001  0.9419299999999998  0.61243  1.0000
  Cu  Cu4       1.0  0.9565499999999998  0.81711  0.5900999999999998  1.0000
  Cu  Cu5       1.0  0.9993599999999999  0.05816999999999997  0.46313999999999994  1.0000
  Cu  Cu6       1.0  0.24555  0.17001  0.50142  1.0000
  Cu  Cu7       1.0  0.18096  0.058069999999999976  0.38757  1.0000
  Cu  Cu8       1.0  0.04345  0.18288999999999994  0.40991  1.0000
  H   H1        1.0  0.45500999999999986  0.84846  0.4743999999999999  1.0000
  H   H2        1.0  0.23116  0.7697  0.39845  1.0000
  H   H3        1.0  0.47068  0.59365  0.2976599999999999  1.0000
  H   H4        1.0  0.6852999999999999  0.6792999999999998  0.3794099999999999  1.0000
  H   H5        1.0  0.28424  0.61435  0.2072  1.0000
  H   H6        1.0  0.8528700000000001  0.4973299999999999  0.17236  1.0000
  H   H7        1.0  0.8639499999999999  0.54345  0.2934  1.0000
  H   H8        1.0  0.08435999999999994  0.62514  0.37071999999999994  1.0000
  H   H9        1.0  0.8729599999999998  0.11270999999999994  0.71739  1.0000
  H   H10       1.0  0.72619  0.21531  0.7668  1.0000
  H   H11       1.0  0.36182  0.028060000000000005  0.65289  1.0000
  H   H12       1.0  0.5235499999999998  0.93349  0.6094499999999999  1.0000
  H   H13       1.0  0.5712299999999998  0.24763999999999992  0.8358699999999999  1.0000
  H   H14       1.0  0.1682  0.32863  0.80857  1.0000
  H   H15       1.0  0.10257999999999996  0.23193999999999995  0.6930399999999999  1.0000
  H   H16       1.0  0.27036  0.14466  0.64988  1.0000
  H   H17       1.0  0.25158  0.80516  0.59524  1.0000
  H   H18       1.0  0.43985  0.7444799999999996  0.65602  1.0000
  H   H19       1.0  0.12123999999999988  0.61992  0.7326399999999997  1.0000
  H   H20       1.0  0.9481200000000001  0.68902  0.67054  1.0000
  H   H21       1.0  0.29913  0.64374  0.81873  1.0000
  H   H22       1.0  0.6914799999999999  0.54942  0.8455099999999999  1.0000
  H   H23       1.0  0.72277  0.57197  0.7377  1.0000
  H   H24       1.0  0.54207  0.62852  0.66989  1.0000
  H   H25       1.0  0.545  0.15153999999999995  0.5255999999999998  1.0000
  H   H26       1.0  0.76884  0.2303  0.60155  1.0000
  H   H27       1.0  0.52933  0.40635  0.70235  1.0000
  H   H28       1.0  0.31470999999999993  0.3206999999999999  0.62059  1.0000
  H   H29       1.0  0.7157699999999999  0.38566  0.7928  1.0000
  H   H30       1.0  0.14712999999999998  0.50267  0.82765  1.0000
  H   H31       1.0  0.13605999999999993  0.45654999999999984  0.7066099999999998  1.0000
  H   H32       1.0  0.91565  0.37486  0.62929  1.0000
  H   H33       1.0  0.12705  0.88729  0.28262  1.0000
  H   H34       1.0  0.27381  0.7846899999999998  0.23321  1.0000
  H   H35       1.0  0.63818  0.9719399999999997  0.34711  1.0000
  H   H36       1.0  0.47645  0.06651  0.39055  1.0000
  H   H37       1.0  0.42877999999999994  0.7523599999999998  0.16413  1.0000
  H   H38       1.0  0.8318  0.67137  0.19143  1.0000
  H   H39       1.0  0.8974299999999998  0.76806  0.30696  1.0000
  H   H40       1.0  0.7296499999999999  0.85534  0.35012  1.0000
  H   H41       1.0  0.74842  0.19483999999999999  0.40476999999999996  1.0000
  H   H42       1.0  0.5601499999999999  0.25551999999999986  0.3439799999999999  1.0000
  H   H43       1.0  0.87877  0.38008000000000003  0.26736  1.0000
  H   H44       1.0  0.05188999999999998  0.31098  0.3294599999999999  1.0000
  H   H45       1.0  0.70088  0.3562599999999999  0.18126999999999996  1.0000
  H   H46       1.0  0.30852  0.45058  0.1545  1.0000
  H   H47       1.0  0.27724  0.42803  0.2623  1.0000
  H   H48       1.0  0.4579399999999999  0.37147999999999975  0.33010999999999996  1.0000
  C   C1        1.0  0.4538  0.79106  0.43502  1.0000
  C   C2        1.0  0.32891  0.74658  0.3924  1.0000
  C   C3        1.0  0.33103  0.6738599999999999  0.34114999999999995  1.0000
  C   C4        1.0  0.46206  0.6497  0.33603  1.0000
  C   C5        1.0  0.58211  0.69678  0.38148999999999994  1.0000
  C   C6        1.0  0.20006999999999997  0.62517  0.2945999999999999  1.0000
  C   C7        1.0  0.19306  0.59874  0.22666  1.0000
  C   C8        1.0  0.06777999999999999  0.55364  0.18270999999999996  1.0000
  C   C9        1.0  0.94914  0.53295  0.20690999999999998  1.0000
  C   C10       1.0  0.9558499999999999  0.5587999999999997  0.27446  1.0000
  C   C11       1.0  0.07978999999999996  0.60504  0.31804999999999994  1.0000
  C   C12       1.0  0.05972999999999999  0.52869  0.11001  1.0000
  C   C13       1.0  0.75894  0.09661999999999996  0.70504  1.0000
  C   C14       1.0  0.67587  0.1532  0.73256  1.0000
  C   C15       1.0  0.52888  0.13107999999999992  0.71401  1.0000
  C   C16       1.0  0.47417999999999993  0.05017999999999999  0.66859  1.0000
  C   C17       1.0  0.56385  0.99689  0.64408  1.0000
  C   C18       1.0  0.43295  0.18787999999999994  0.73982  1.0000
  C   C19       1.0  0.46975999999999996  0.24391  0.80364  1.0000
  C   C20       1.0  0.3742699999999999  0.29428999999999994  0.8280499999999997  1.0000
  C   C21       1.0  0.24083000000000002  0.28933  0.78854  1.0000
  C   C22       1.0  0.20457000000000006  0.23524  0.7247  1.0000
  C   C23       1.0  0.29947  0.18493999999999994  0.70045  1.0000
  C   C24       1.0  0.4139399999999999  0.35411999999999993  0.8956099999999999  1.0000
  C   C25       1.0  0.22789  0.7637  0.62636  1.0000
  C   C26       1.0  0.3321  0.72881  0.66004  1.0000
  C   C27       1.0  0.29792999999999986  0.6763699999999999  0.7003899999999997  1.0000
  C   C28       1.0  0.1562399999999999  0.6612799999999998  0.7035099999999999  1.0000
  C   C29       1.0  0.05825  0.69887  0.66855  1.0000
  C   C30       1.0  0.40625999999999984  0.64054  0.7390299999999997  1.0000
  C   C31       1.0  0.39009  0.62724  0.79957  1.0000
  C   C32       1.0  0.49144  0.59443  0.8378299999999999  1.0000
  C   C33       1.0  0.6128199999999998  0.5751299999999999  0.8158599999999998  1.0000
  C   C34       1.0  0.62988  0.58797  0.75549  1.0000
  C   C35       1.0  0.52787  0.6201  0.7172399999999999  1.0000
  C   C36       1.0  0.46461999999999987  0.5787499999999997  0.9005099999999998  1.0000
  C   C37       1.0  0.54621  0.20894  0.56498  1.0000
  C   C38       1.0  0.6711  0.25342  0.6076099999999999  1.0000
  C   C39       1.0  0.66898  0.32614  0.65885  1.0000
  C   C40       1.0  0.53795  0.3503  0.66397  1.0000
  C   C41       1.0  0.41789  0.30321999999999993  0.6185099999999999  1.0000
  C   C42       1.0  0.7999399999999999  0.37483  0.70541  1.0000
  C   C43       1.0  0.8069399999999998  0.40126999999999996  0.7733399999999998  1.0000
  C   C44       1.0  0.9322300000000001  0.44636  0.81729  1.0000
  C   C45       1.0  0.05086999999999999  0.46705  0.79309  1.0000
  C   C46       1.0  0.04414999999999994  0.4411999999999998  0.7255399999999999  1.0000
  C   C47       1.0  0.92022  0.3949599999999999  0.6819499999999998  1.0000
  C   C48       1.0  0.94027  0.47131  0.88999  1.0000
  C   C49       1.0  0.24106999999999995  0.90338  0.29497  1.0000
  C   C50       1.0  0.32413  0.84681  0.26745  1.0000
  C   C51       1.0  0.4711199999999999  0.86892  0.28599  1.0000
  C   C52       1.0  0.52582  0.9498199999999998  0.33141  1.0000
  C   C53       1.0  0.43616  0.0031099999999999787  0.3559299999999999  1.0000
  C   C54       1.0  0.56706  0.81212  0.26018  1.0000
  C   C55       1.0  0.5302399999999999  0.7560899999999999  0.19635999999999995  1.0000
  C   C56       1.0  0.6257299999999999  0.70571  0.17194999999999994  1.0000
  C   C57       1.0  0.7591799999999999  0.7106699999999998  0.21146  1.0000
  C   C58       1.0  0.7954399999999999  0.7647599999999998  0.2753  1.0000
  C   C59       1.0  0.7005299999999999  0.8150599999999998  0.2995499999999999  1.0000
  C   C60       1.0  0.5860599999999999  0.64588  0.10439  1.0000
  C   C61       1.0  0.77211  0.23631000000000002  0.37364  1.0000
  C   C62       1.0  0.6679  0.2711899999999999  0.33996  1.0000
  C   C63       1.0  0.70208  0.32363  0.29961  1.0000
  C   C64       1.0  0.8437599999999997  0.3387199999999999  0.2964899999999999  1.0000
  C   C65       1.0  0.94175  0.30113  0.3314599999999999  1.0000
  C   C66       1.0  0.59374  0.35946  0.26098  1.0000
  C   C67       1.0  0.60992  0.37276000000000004  0.20043  1.0000
  C   C68       1.0  0.50856  0.40557  0.16217999999999996  1.0000
  C   C69       1.0  0.38717999999999997  0.42486999999999997  0.18414999999999998  1.0000
  C   C70       1.0  0.37011999999999995  0.41203  0.24450999999999998  1.0000
  C   C71       1.0  0.4721399999999999  0.37989999999999996  0.28276999999999997  1.0000
  C   C72       1.0  0.53539  0.42124999999999996  0.09948999999999998  1.0000
  I   I1        1.0  0.76134  0.0012899999999999492  0.4968999999999999  1.0000
  I   I2        1.0  0.97761  0.7705  0.46052999999999994  1.0000
  I   I3        1.0  0.08562999999999993  0.9801999999999997  0.6716399999999999  1.0000
  I   I4        1.0  0.69363  0.77592  0.60415  1.0000
  I   I5        1.0  0.23865999999999996  0.99871  0.50311  1.0000
  I   I6        1.0  0.02239000000000002  0.2295  0.53947  1.0000
  I   I7        1.0  0.91438  0.01979999999999996  0.3283599999999999  1.0000
  I   I8        1.0  0.30638  0.22407999999999992  0.3958499999999999  1.0000
  N   N1        1.0  0.57967  0.7669399999999997  0.43041999999999997  1.0000
  N   N2        1.0  0.70485  0.019059999999999994  0.66106  1.0000
  N   N3        1.0  0.09235000000000002  0.75006  0.63052  1.0000
  N   N4        1.0  0.4203399999999999  0.23305999999999996  0.5695899999999999  1.0000
  N   N5        1.0  0.29514999999999997  0.98094  0.3389499999999999  1.0000
  N   N6        1.0  0.9076499999999998  0.24993999999999994  0.36948  1.0000
  O   O1        1.0  0.17312  0.54152  0.09056  1.0000
  O   O2        1.0  0.9407  0.49575999999999987  0.07122  1.0000
  O   O3        1.0  0.5391  0.36165999999999987  0.92904  1.0000
  O   O4        1.0  0.32049999999999995  0.39611999999999986  0.91606  1.0000
  O   O5        1.0  0.34765999999999997  0.5919499999999999  0.9150499999999999  1.0000
  O   O6        1.0  0.55743  0.55017  0.9368399999999998  1.0000
  O   O7        1.0  0.8268800000000001  0.45848000000000005  0.90944  1.0000
  O   O8        1.0  0.059300000000000026  0.50425  0.92878  1.0000
  O   O9        1.0  0.46090999999999993  0.63834  0.07096  1.0000
  O   O10       1.0  0.6795  0.60388  0.08394  1.0000
  O   O11       1.0  0.65235  0.40805  0.08495  1.0000
  O   O12       1.0  0.4425699999999998  0.44983  0.06316  1.0000
