data_image0
_chemical_formula_structural       Eu4H56C96N8O24
_chemical_formula_sum              "Eu4 H56 C96 N8 O24"
_cell_length_a       12.80086
_cell_length_b       14.439499999999999
_cell_length_c       15.00216
_cell_angle_alpha    68.43695
_cell_angle_beta     67.18963
_cell_angle_gamma    78.01573

_symmetry_space_group_name_H-M    'P 1'
_symmetry_Int_Tables_number       1

loop_
  _symmetry_equiv_pos_as_xyz
  'x,y,z'

loop_
  _atom_site_type_symbol
  _atom_site_label
  _atom_site_symmetry_multiplicity
  _atom_site_fract_x
  _atom_site_fract_y
  _atom_site_fract_z
  _atom_site_occupancy
  Eu  Eu1       1.0  0.43482  0.48264000000000007  0.4029  1.0000
  Eu  Eu2       1.0  0.9452799999999998  0.9497899999999999  0.90505  1.0000
  Eu  Eu3       1.0  0.5651700000000001  0.51734  0.5971  1.0000
  Eu  Eu4       1.0  0.054719999999999984  0.0502  0.09495  1.0000
  H   H1        1.0  0.6964599999999997  0.78808  0.1897  1.0000
  H   H2        1.0  0.19980999999999993  0.71102  0.21937999999999994  1.0000
  H   H3        1.0  0.44536  0.78358  0.48286  1.0000
  H   H4        1.0  0.67513  0.018240000000000006  0.3153  1.0000
  H   H5        1.0  0.20685000000000014  0.7060099999999999  0.7240199999999998  1.0000
  H   H6        1.0  0.16711000000000004  0.7268300000000001  0.9390799999999998  1.0000
  H   H7        1.0  0.3870199999999999  0.49249  0.07191999999999998  1.0000
  H   H8        1.0  0.3015800000000001  0.5737800000000001  0.9349199999999998  1.0000
  H   H9        1.0  0.019839999999999993  0.94285  0.56078  1.0000
  H   H10       1.0  0.50591  0.94431  0.46438  1.0000
  H   H11       1.0  0.59897  0.34352  0.24857  1.0000
  H   H12       1.0  0.76795  0.12339000000000001  0.7878699999999998  1.0000
  H   H13       1.0  0.10117999999999995  0.87733  0.41257  1.0000
  H   H14       1.0  0.8305799999999999  0.55196  0.13198  1.0000
  H   H15       1.0  0.023250000000000052  0.33435999999999977  0.72329  1.0000
  H   H16       1.0  0.11604999999999997  0.06802999999999998  0.57884  1.0000
  H   H17       1.0  0.60793  0.20194  0.18647999999999998  1.0000
  H   H18       1.0  0.17962  0.44831000000000004  0.60743  1.0000
  H   H19       1.0  0.9516699999999999  0.69798  0.02903  1.0000
  H   H20       1.0  0.025070000000000047  0.17608  0.68982  1.0000
  H   H21       1.0  0.22768999999999992  0.7183099999999999  0.42662  1.0000
  H   H22       1.0  0.63028  0.57204  0.1314  1.0000
  H   H23       1.0  0.5715200000000001  0.16003999999999996  0.77835  1.0000
  H   H24       1.0  0.2685799999999999  0.036420000000000015  0.42629  1.0000
  H   H25       1.0  0.48022  0.67738  0.06739  1.0000
  H   H26       1.0  0.40806000000000003  0.84232  0.97251  1.0000
  H   H27       1.0  0.44848  0.08755000000000002  0.27823  1.0000
  H   H28       1.0  0.44048000000000004  0.02100000000000001  0.86632  1.0000
  H   H29       1.0  0.3035399999999999  0.21192  0.8103  1.0000
  H   H30       1.0  0.80021  0.2889600000000001  0.7806299999999998  1.0000
  H   H31       1.0  0.55464  0.21641999999999997  0.51714  1.0000
  H   H32       1.0  0.32486000000000004  0.9817599999999997  0.6847  1.0000
  H   H33       1.0  0.79314  0.29399  0.27597999999999995  1.0000
  H   H34       1.0  0.8328899999999999  0.27317  0.06092  1.0000
  H   H35       1.0  0.61298  0.5074999999999997  0.92808  1.0000
  H   H36       1.0  0.69842  0.42622  0.06508  1.0000
  H   H37       1.0  0.9801500000000001  0.05716000000000004  0.4392199999999999  1.0000
  H   H38       1.0  0.49408  0.05569  0.53562  1.0000
  H   H39       1.0  0.4010299999999997  0.65646  0.75145  1.0000
  H   H40       1.0  0.23205000000000003  0.87661  0.21212999999999999  1.0000
  H   H41       1.0  0.89882  0.12267000000000002  0.58743  1.0000
  H   H42       1.0  0.16942  0.44803999999999994  0.86802  1.0000
  H   H43       1.0  0.9767399999999999  0.66565  0.27671  1.0000
  H   H44       1.0  0.8839400000000001  0.9319699999999997  0.4211699999999999  1.0000
  H   H45       1.0  0.39206  0.79806  0.8135199999999998  1.0000
  H   H46       1.0  0.82038  0.55169  0.39256  1.0000
  H   H47       1.0  0.04833  0.30202  0.9709699999999999  1.0000
  H   H48       1.0  0.9749199999999998  0.82392  0.31017999999999996  1.0000
  H   H49       1.0  0.7723100000000002  0.2816899999999999  0.57338  1.0000
  H   H50       1.0  0.3697199999999998  0.42795999999999984  0.8686  1.0000
  H   H51       1.0  0.42848  0.83996  0.22165  1.0000
  H   H52       1.0  0.7314100000000001  0.9635799999999999  0.57371  1.0000
  H   H53       1.0  0.5197700000000001  0.32262  0.93261  1.0000
  H   H54       1.0  0.59193  0.15768  0.02749  1.0000
  H   H55       1.0  0.55151  0.91245  0.72177  1.0000
  H   H56       1.0  0.55952  0.979  0.13368  1.0000
  C   C1        1.0  0.53397  0.67599  0.35271  1.0000
  C   C2        1.0  0.69577  0.90742  0.24434  1.0000
  C   C3        1.0  0.7968499999999998  0.95222  0.15612999999999996  1.0000
  C   C4        1.0  0.17554  0.72891  0.07917  1.0000
  C   C5        1.0  0.5682699999999999  0.7747099999999999  0.33837  1.0000
  C   C6        1.0  0.65621  0.82085  0.25093  1.0000
  C   C7        1.0  0.29659  0.59627  0.15458  1.0000
  C   C8        1.0  0.22138000000000002  0.68143  0.1569  1.0000
  C   C9        1.0  0.30156999999999984  0.60834  0.58343  1.0000
  C   C10       1.0  0.10879999999999997  0.82894  0.65024  1.0000
  C   C11       1.0  0.10036000000000006  0.8234799999999999  0.08036  1.0000
  C   C12       1.0  0.51413  0.81953  0.4152799999999999  1.0000
  C   C13       1.0  0.05775000000000003  0.86768  0.73834  1.0000
  C   C14       1.0  0.6424099999999999  0.95139  0.32188  1.0000
  C   C15       1.0  0.3456900000000001  0.55176  0.23758999999999997  1.0000
  C   C16       1.0  0.18358  0.7430000000000001  0.65606  1.0000
  C   C17       1.0  0.2644  0.2747  0.4969999999999999  1.0000
  C   C18       1.0  0.20362999999999998  0.6893299999999998  0.99927  1.0000
  C   C19       1.0  0.32689000000000007  0.5579199999999999  0.07369  1.0000
  C   C20       1.0  0.27917  0.60418  0.99701  1.0000
  C   C21       1.0  0.35738999999999993  0.25272  0.4128299999999999  1.0000
  C   C22       1.0  0.22567000000000004  0.7030599999999998  0.57581  1.0000
  C   C23       1.0  0.6789200000000002  0.89905  0.9201299999999998  1.0000
  C   C24       1.0  0.64668  0.72362  0.028959999999999993  1.0000
  C   C25       1.0  0.7203000000000002  0.8026499999999996  0.97561  1.0000
  C   C26       1.0  0.07926999999999987  0.8768900000000001  0.56241  1.0000
  C   C27       1.0  0.5493100000000001  0.90913  0.40536  1.0000
  C   C28       1.0  0.17803999999999998  0.20666000000000004  0.55629  1.0000
  C   C29       1.0  0.5307700000000001  0.29351000000000005  0.28498  1.0000
  C   C30       1.0  0.56591  0.91216  0.91901  1.0000
  C   C31       1.0  0.7095100000000002  0.06465  0.82281  1.0000
  C   C32       1.0  0.12376999999999994  0.83891  0.4808  1.0000
  C   C33       1.0  0.7971000000000001  0.62126  0.08733  1.0000
  C   C34       1.0  0.35636999999999996  0.16782  0.3861799999999999  1.0000
  C   C35       1.0  0.08989999999999997  0.31483  0.6597  1.0000
  C   C36       1.0  0.18209999999999993  0.11968000000000001  0.53005  1.0000
  C   C37       1.0  0.53553  0.21348  0.2511  1.0000
  C   C38       1.0  0.17748999999999998  0.37889  0.59552  1.0000
  C   C39       1.0  0.86494  0.70287  0.030449999999999994  1.0000
  C   C40       1.0  0.09039000000000003  0.22815  0.64049  1.0000
  C   C41       1.0  0.19535000000000002  0.7511400000000001  0.48794999999999994  1.0000
  C   C42       1.0  0.68749  0.6317599999999998  0.08667999999999998  1.0000
  C   C43       1.0  0.5993  0.0847200000000001  0.8176299999999997  1.0000
  C   C44       1.0  0.26673999999999987  0.10195000000000001  0.4467  1.0000
  C   C45       1.0  0.53399  0.73944  0.02549  1.0000
  C   C46       1.0  0.4949099999999999  0.8301600000000001  0.9726499999999998  1.0000
  C   C47       1.0  0.44773999999999997  0.15075  0.30162999999999995  1.0000
  C   C48       1.0  0.52735  0.008089999999999988  0.86644  1.0000
  C   C49       1.0  0.46603000000000006  0.32400999999999996  0.64728  1.0000
  C   C50       1.0  0.30422000000000005  0.09258000000000002  0.75566  1.0000
  C   C51       1.0  0.2031400000000001  0.047780000000000045  0.8438699999999998  1.0000
  C   C52       1.0  0.82447  0.27109  0.9208399999999999  1.0000
  C   C53       1.0  0.43172999999999995  0.22528999999999996  0.66163  1.0000
  C   C54       1.0  0.34379  0.17915000000000003  0.74907  1.0000
  C   C55       1.0  0.70341  0.40371  0.8454199999999998  1.0000
  C   C56       1.0  0.7786300000000002  0.3185600000000001  0.8430999999999997  1.0000
  C   C57       1.0  0.6984299999999999  0.39166  0.4165599999999999  1.0000
  C   C58       1.0  0.8911999999999998  0.17105999999999996  0.34976  1.0000
  C   C59       1.0  0.89964  0.17651  0.91965  1.0000
  C   C60       1.0  0.48587  0.18047000000000002  0.58471  1.0000
  C   C61       1.0  0.94225  0.13232  0.26166  1.0000
  C   C62       1.0  0.3575800000000001  0.04861000000000008  0.6781199999999997  1.0000
  C   C63       1.0  0.6542700000000001  0.44819000000000003  0.7624199999999999  1.0000
  C   C64       1.0  0.81642  0.2569999999999999  0.34394  1.0000
  C   C65       1.0  0.7355999999999999  0.7253  0.503  1.0000
  C   C66       1.0  0.79637  0.31067  0.00073  1.0000
  C   C67       1.0  0.67312  0.44206999999999996  0.9263  1.0000
  C   C68       1.0  0.7208399999999999  0.39581999999999995  0.00298  1.0000
  C   C69       1.0  0.6426200000000001  0.7472699999999997  0.58718  1.0000
  C   C70       1.0  0.77432  0.29694  0.42419  1.0000
  C   C71       1.0  0.32107  0.10096  0.07987  1.0000
  C   C72       1.0  0.35331  0.27638000000000007  0.9710499999999997  1.0000
  C   C73       1.0  0.2797  0.19735  0.024389999999999995  1.0000
  C   C74       1.0  0.92073  0.12311000000000001  0.43758999999999987  1.0000
  C   C75       1.0  0.4506799999999999  0.09087000000000002  0.59464  1.0000
  C   C76       1.0  0.8219600000000001  0.7933400000000002  0.4437099999999999  1.0000
  C   C77       1.0  0.4692399999999999  0.70648  0.71504  1.0000
  C   C78       1.0  0.43409  0.08785  0.08099  1.0000
  C   C79       1.0  0.29047999999999996  0.93535  0.17719  1.0000
  C   C80       1.0  0.87623  0.16108999999999996  0.5192  1.0000
  C   C81       1.0  0.20290000000000005  0.37874  0.9126699999999999  1.0000
  C   C82       1.0  0.64363  0.8321800000000001  0.6138199999999998  1.0000
  C   C83       1.0  0.9100899999999997  0.68517  0.3403  1.0000
  C   C84       1.0  0.8178899999999998  0.88032  0.4699599999999999  1.0000
  C   C85       1.0  0.4644599999999999  0.7865100000000002  0.74891  1.0000
  C   C86       1.0  0.8225  0.62111  0.40448  1.0000
  C   C87       1.0  0.13505000000000014  0.29713000000000006  0.9695499999999998  1.0000
  C   C88       1.0  0.90961  0.7718400000000002  0.3595099999999999  1.0000
  C   C89       1.0  0.8046500000000001  0.24887  0.51205  1.0000
  C   C90       1.0  0.31250000000000006  0.36824000000000007  0.91332  1.0000
  C   C91       1.0  0.40070000000000006  0.91528  0.18236  1.0000
  C   C92       1.0  0.7332499999999998  0.89805  0.5533  1.0000
  C   C93       1.0  0.46600000000000014  0.26056000000000007  0.9745099999999998  1.0000
  C   C94       1.0  0.50509  0.16984  0.02735  1.0000
  C   C95       1.0  0.5522600000000001  0.8492400000000001  0.6983699999999998  1.0000
  C   C96       1.0  0.47265  0.99191  0.13355999999999998  1.0000
  N   N1        1.0  0.26342999999999983  0.35958  0.51701  1.0000
  N   N2        1.0  0.7484099999999997  0.97544  0.87279  1.0000
  N   N3        1.0  0.82807  0.79114  0.9768299999999998  1.0000
  N   N4        1.0  0.4445200000000001  0.31333  0.3629  1.0000
  N   N5        1.0  0.73656  0.64042  0.48299  1.0000
  N   N6        1.0  0.25159000000000004  0.024560000000000002  0.12721  1.0000
  N   N7        1.0  0.17192  0.20886  0.02317  1.0000
  N   N8        1.0  0.5554899999999999  0.68664  0.63713  1.0000
  O   O1        1.0  0.44633999999999996  0.5091500000000001  0.21952999999999998  1.0000
  O   O2        1.0  0.0741900000000001  0.8188800000000002  0.8222299999999999  1.0000
  O   O3        1.0  0.52717  0.60715  0.4378899999999999  1.0000
  O   O4        1.0  0.8042599999999998  0.95428  0.06806  1.0000
  O   O5        1.0  0.8673200000000001  0.9856199999999998  0.17476999999999998  1.0000
  O   O6        1.0  0.3584899999999999  0.58283  0.6431  1.0000
  O   O7        1.0  0.3029  0.55921  0.52751  1.0000
  O   O8        1.0  0.99515  0.9506500000000001  0.72859  1.0000
  O   O9        1.0  0.03699000000000004  0.8517699999999998  0.02649  1.0000
  O   O10       1.0  0.51107  0.66201  0.28403  1.0000
  O   O11       1.0  0.28625000000000006  0.55984  0.32566  1.0000
  O   O12       1.0  0.10618000000000002  0.8707799999999998  0.13533  1.0000
  O   O13       1.0  0.5535800000000001  0.49072999999999994  0.7804999999999999  1.0000
  O   O14       1.0  0.92581  0.18112  0.17777  1.0000
  O   O15       1.0  0.47282000000000013  0.39285000000000003  0.56211  1.0000
  O   O16       1.0  0.19574  0.045720000000000045  0.93195  1.0000
  O   O17       1.0  0.13267  0.014379999999999992  0.82524  1.0000
  O   O18       1.0  0.64151  0.4171699999999999  0.3569  1.0000
  O   O19       1.0  0.6971000000000002  0.44078999999999996  0.47249  1.0000
  O   O20       1.0  0.0048400000000000006  0.04934999999999999  0.27142  1.0000
  O   O21       1.0  0.9630200000000001  0.14822000000000007  0.9735099999999998  1.0000
  O   O22       1.0  0.48893000000000003  0.33798  0.71596  1.0000
  O   O23       1.0  0.7137499999999998  0.44017  0.67434  1.0000
  O   O24       1.0  0.89382  0.12921000000000002  0.86468  1.0000
