data_image0
_chemical_formula_structural       Ho4H60C90S6O48
_chemical_formula_sum              "Ho4 H60 C90 S6 O48"
_cell_length_a       9.49901
_cell_length_b       15.65145
_cell_length_c       22.35624
_cell_angle_alpha    102.88176
_cell_angle_beta     101.79591000000002
_cell_angle_gamma    104.16268

_symmetry_space_group_name_H-M    'P 1'
_symmetry_Int_Tables_number       1

loop_
  _symmetry_equiv_pos_as_xyz
  'x,y,z'

loop_
  _atom_site_type_symbol
  _atom_site_label
  _atom_site_symmetry_multiplicity
  _atom_site_fract_x
  _atom_site_fract_y
  _atom_site_fract_z
  _atom_site_occupancy
  Ho  Ho1       1.0  0.5019800000000001  0.8566  0.80646  1.0000
  Ho  Ho2       1.0  0.04421000000000003  0.90837  0.8524500000000002  1.0000
  Ho  Ho3       1.0  0.48724999999999996  0.14218999999999996  0.19332000000000002  1.0000
  Ho  Ho4       1.0  0.96772  0.08886  0.15033  1.0000
  H   H1        1.0  0.86759  0.83349  0.67093  1.0000
  H   H2        1.0  0.73591  0.83372  0.56404  1.0000
  H   H3        1.0  0.2944099999999999  0.9196299999999997  0.62978  1.0000
  H   H4        1.0  0.66511  0.7801399999999997  0.4535900000000001  1.0000
  H   H5        1.0  0.66807  0.89662  0.48297  1.0000
  H   H6        1.0  0.68662  0.85517  0.40512000000000004  1.0000
  H   H7        1.0  0.9742700000000003  0.84792  0.37086  1.0000
  H   H8        1.0  0.95862  0.9143599999999997  0.2790500000000001  1.0000
  H   H9        1.0  0.44031  0.01139000000000005  0.32621000000000006  1.0000
  H   H10       1.0  0.45814  0.9516899999999998  0.4208100000000001  1.0000
  H   H11       1.0  0.9980100000000001  0.67361  0.90885  1.0000
  H   H12       1.0  0.93616  0.52119  0.9294100000000001  1.0000
  H   H13       1.0  0.28173  0.45789  0.84637  1.0000
  H   H14       1.0  0.35122  0.61383  0.83111  1.0000
  H   H15       1.0  0.10198000000000002  0.26278  0.021130000000000003  1.0000
  H   H16       1.0  0.50529  0.18108  0.03134  1.0000
  H   H17       1.0  0.59747  0.2910999999999999  0.97621  1.0000
  H   H18       1.0  0.6773300000000001  0.46916000000000013  0.9662900000000002  1.0000
  H   H19       1.0  0.6239500000000001  0.35751000000000005  0.9113500000000001  1.0000
  H   H20       1.0  0.5880000000000001  0.44939  0.8840800000000001  1.0000
  H   H21       1.0  0.5849300000000001  0.5622400000000001  0.8054600000000001  1.0000
  H   H22       1.0  0.0022299999999999855  0.5623899999999998  0.7050200000000001  1.0000
  H   H23       1.0  0.93069  0.7031499999999998  0.73385  1.0000
  H   H24       1.0  0.95854  0.41165999999999997  0.64852  1.0000
  H   H25       1.0  0.09716000000000002  0.44429  0.72384  1.0000
  H   H26       1.0  0.9908399999999999  0.32630999999999993  0.6859800000000001  1.0000
  H   H27       1.0  0.25117  0.27529  0.7899  1.0000
  H   H28       1.0  0.21373000000000011  0.14974999999999997  0.8409100000000002  1.0000
  H   H29       1.0  0.6050300000000001  0.08888000000000004  0.7973000000000001  1.0000
  H   H30       1.0  0.64274  0.2141  0.74545  1.0000
  H   H31       1.0  0.13337  0.16676  0.32964  1.0000
  H   H32       1.0  0.26454000000000005  0.16631000000000004  0.43637000000000004  1.0000
  H   H33       1.0  0.70706  0.08081  0.36937000000000003  1.0000
  H   H34       1.0  0.3346200000000001  0.21990000000000007  0.5463800000000001  1.0000
  H   H35       1.0  0.33187  0.1035  0.51705  1.0000
  H   H36       1.0  0.31397  0.14499  0.59498  1.0000
  H   H37       1.0  0.024700000000000027  0.15184  0.62882  1.0000
  H   H38       1.0  0.039840000000000084  0.08530000000000007  0.7209900000000001  1.0000
  H   H39       1.0  0.5582900000000001  0.9884  0.6734400000000001  1.0000
  H   H40       1.0  0.54102  0.04831999999999997  0.5788  1.0000
  H   H41       1.0  0.0009199999999999877  0.32685999999999993  0.09147000000000002  1.0000
  H   H42       1.0  0.06423999999999994  0.4795399999999999  0.07054000000000002  1.0000
  H   H43       1.0  0.7181499999999998  0.5432899999999998  0.15375  1.0000
  H   H44       1.0  0.6494799999999998  0.3864499999999999  0.1688  1.0000
  H   H45       1.0  0.8964500000000002  0.7372800000000002  0.9791000000000002  1.0000
  H   H46       1.0  0.49418999999999996  0.8187699999999998  0.96869  1.0000
  H   H47       1.0  0.40145  0.70813  0.024160000000000004  1.0000
  H   H48       1.0  0.32243  0.53082  0.03386  1.0000
  H   H49       1.0  0.3749199999999998  0.6422799999999997  0.08892000000000003  1.0000
  H   H50       1.0  0.41237  0.5505599999999998  0.11611000000000003  1.0000
  H   H51       1.0  0.41453  0.43642  0.19412  1.0000
  H   H52       1.0  0.9976599999999999  0.43747999999999987  0.29499  1.0000
  H   H53       1.0  0.06823000000000001  0.29703  0.2666700000000001  1.0000
  H   H54       1.0  0.0415399999999999  0.5880099999999998  0.35146  1.0000
  H   H55       1.0  0.90283  0.55534  0.27610000000000007  1.0000
  H   H56       1.0  0.008340000000000023  0.67332  0.31413  1.0000
  H   H57       1.0  0.74901  0.72506  0.20973000000000003  1.0000
  H   H58       1.0  0.7858399999999999  0.8502199999999998  0.15883  1.0000
  H   H59       1.0  0.39519  0.91105  0.20275  1.0000
  H   H60       1.0  0.35792000000000007  0.78573  0.25444  1.0000
  C   C1        1.0  0.16998999999999992  0.8724299999999997  0.7213200000000001  1.0000
  C   C2        1.0  0.09022999999999994  0.8756699999999997  0.65788  1.0000
  C   C3        1.0  0.93233  0.85232  0.6385000000000001  1.0000
  C   C4        1.0  0.85772  0.85271  0.57836  1.0000
  C   C5        1.0  0.93972  0.8771800000000001  0.536  1.0000
  C   C6        1.0  0.09861999999999997  0.90095  0.55606  1.0000
  C   C7        1.0  0.17254  0.90093  0.61585  1.0000
  C   C8        1.0  0.71512  0.85113  0.4540700000000001  1.0000
  C   C9        1.0  0.21678999999999998  0.8960999999999998  0.40076  1.0000
  C   C10       1.0  0.07535  0.88418  0.36099  1.0000
  C   C11       1.0  0.06671000000000003  0.9207700000000001  0.30961000000000005  1.0000
  C   C12       1.0  0.1985500000000001  0.9667  0.29696  1.0000
  C   C13       1.0  0.33895  0.9767499999999998  0.3368100000000001  1.0000
  C   C14       1.0  0.3493399999999999  0.9422599999999998  0.38923000000000013  1.0000
  C   C15       1.0  0.19257  0.004770000000000013  0.24062000000000003  1.0000
  C   C16       1.0  0.21305  0.74617  0.8583  1.0000
  C   C17       1.0  0.1772900000000001  0.6530499999999999  0.8686900000000002  1.0000
  C   C18       1.0  0.061430000000000075  0.62688  0.8966700000000001  1.0000
  C   C19       1.0  0.024900000000000033  0.54108  0.9071800000000002  1.0000
  C   C20       1.0  0.1048799999999999  0.4810899999999999  0.88833  1.0000
  C   C21       1.0  0.22178999999999988  0.5058599999999998  0.86063  1.0000
  C   C22       1.0  0.25943000000000005  0.59281  0.85166  1.0000
  C   C23       1.0  0.26343000000000005  0.33077  0.9803300000000001  1.0000
  C   C24       1.0  0.21025999999999995  0.2682499999999999  0.01159  1.0000
  C   C25       1.0  0.29542  0.21258  0.030650000000000007  1.0000
  C   C26       1.0  0.43585  0.22278  0.017510000000000005  1.0000
  C   C27       1.0  0.48914  0.28530000000000005  0.9857800000000001  1.0000
  C   C28       1.0  0.4038100000000002  0.34079000000000004  0.9666600000000001  1.0000
  C   C29       1.0  0.24084999999999995  0.15043999999999993  0.06885  1.0000
  C   C30       1.0  0.59209  0.42016  0.92415  1.0000
  C   C31       1.0  0.70399  0.72773  0.78562  1.0000
  C   C32       1.0  0.7529299999999999  0.6442299999999999  0.7721000000000001  1.0000
  C   C33       1.0  0.67774  0.5638899999999998  0.7842800000000001  1.0000
  C   C34       1.0  0.7195999999999999  0.4850899999999999  0.76828  1.0000
  C   C35       1.0  0.8379800000000001  0.48199999999999993  0.7397800000000001  1.0000
  C   C36       1.0  0.91194  0.56244  0.72745  1.0000
  C   C37       1.0  0.8706100000000002  0.6419399999999998  0.7438000000000001  1.0000
  C   C38       1.0  0.9870800000000003  0.39707  0.6944400000000002  1.0000
  C   C39       1.0  0.44948  0.2515199999999999  0.76561  1.0000
  C   C40       1.0  0.32793  0.23449999999999993  0.7915600000000002  1.0000
  C   C41       1.0  0.3075700000000001  0.1642300000000001  0.8205300000000002  1.0000
  C   C42       1.0  0.40781999999999996  0.11222999999999993  0.82309  1.0000
  C   C43       1.0  0.52918  0.13031  0.79628  1.0000
  C   C44       1.0  0.5501900000000001  0.19973000000000007  0.7667400000000002  1.0000
  C   C45       1.0  0.38706000000000007  0.037560000000000024  0.8553600000000001  1.0000
  C   C46       1.0  0.83024  0.12701  0.27817  1.0000
  C   C47       1.0  0.91084  0.12427999999999999  0.34179000000000004  1.0000
  C   C48       1.0  0.06833999999999998  0.14748  0.36166  1.0000
  C   C49       1.0  0.14279  0.14721999999999996  0.4218700000000001  1.0000
  C   C50       1.0  0.06075000000000003  0.12291999999999999  0.46423  1.0000
  C   C51       1.0  0.9020799999999999  0.09946  0.44394000000000006  1.0000
  C   C52       1.0  0.8287499999999999  0.09903  0.38381000000000004  1.0000
  C   C53       1.0  0.28481999999999996  0.14891999999999989  0.54603  1.0000
  C   C54       1.0  0.78226  0.10344  0.59912  1.0000
  C   C55       1.0  0.92381  0.11549999999999995  0.63888  1.0000
  C   C56       1.0  0.9318  0.07915  0.69038  1.0000
  C   C57       1.0  0.7999800000000001  0.03317000000000005  0.7029700000000001  1.0000
  C   C58       1.0  0.6596200000000001  0.02326000000000005  0.6630300000000001  1.0000
  C   C59       1.0  0.6495100000000001  0.05751000000000005  0.6105300000000002  1.0000
  C   C60       1.0  0.8063499999999999  0.9944199999999996  0.75937  1.0000
  C   C61       1.0  0.78568  0.25396  0.14178000000000002  1.0000
  C   C62       1.0  0.82219  0.34776999999999997  0.13139000000000003  1.0000
  C   C63       1.0  0.93816  0.37395  0.10352  1.0000
  C   C64       1.0  0.9752700000000001  0.4595999999999999  0.09278000000000002  1.0000
  C   C65       1.0  0.8950200000000001  0.51954  0.11156  1.0000
  C   C66       1.0  0.77804  0.49523  0.13932  1.0000
  C   C67       1.0  0.7407399999999998  0.4082699999999999  0.14829  1.0000
  C   C68       1.0  0.73552  0.66884  0.019740000000000004  1.0000
  C   C69       1.0  0.7882300000000002  0.7317100000000001  0.9887400000000002  1.0000
  C   C70       1.0  0.7023399999999999  0.7865899999999998  0.96922  1.0000
  C   C71       1.0  0.5630099999999998  0.7769299999999998  0.98302  1.0000
  C   C72       1.0  0.5098599999999999  0.7140299999999998  0.01457  1.0000
  C   C73       1.0  0.59528  0.65859  0.03355  1.0000
  C   C74       1.0  0.76055  0.85204  0.93387  1.0000
  C   C75       1.0  0.4071000000000001  0.5797700000000001  0.07609000000000002  1.0000
  C   C76       1.0  0.29572  0.2729699999999999  0.21413  1.0000
  C   C77       1.0  0.24657999999999997  0.35599  0.22811  1.0000
  C   C78       1.0  0.3223599999999999  0.4361399999999999  0.21562000000000006  1.0000
  C   C79       1.0  0.28131000000000006  0.51528  0.23173000000000005  1.0000
  C   C80       1.0  0.16275  0.5181  0.26033  1.0000
  C   C81       1.0  0.08792999999999998  0.43765999999999994  0.27260000000000006  1.0000
  C   C82       1.0  0.12841999999999995  0.3579299999999999  0.25624  1.0000
  C   C83       1.0  0.01265  0.60268  0.30562  1.0000
  C   C84       1.0  0.5511499999999999  0.7486299999999998  0.23452000000000003  1.0000
  C   C85       1.0  0.6722799999999999  0.7658799999999998  0.20838000000000007  1.0000
  C   C86       1.0  0.6923  0.8362  0.17938000000000007  1.0000
  C   C87       1.0  0.5919  0.88825  0.17642  1.0000
  C   C88       1.0  0.47163999999999995  0.8700299999999996  0.20378  1.0000
  C   C89       1.0  0.45064999999999994  0.8004499999999998  0.23331  1.0000
  C   C90       1.0  0.61533  0.9645999999999998  0.14497  1.0000
  S   S1        1.0  0.22866999999999998  0.85006  0.46703000000000006  1.0000
  S   S2        1.0  0.053490000000000044  0.37007  0.90022  1.0000
  S   S3        1.0  0.47772999999999993  0.3432499999999999  0.73011  1.0000
  S   S4        1.0  0.7717200000000001  0.14976999999999993  0.5331400000000001  1.0000
  S   S5        1.0  0.94703  0.63049  0.09986000000000002  1.0000
  S   S6        1.0  0.52264  0.6571899999999998  0.26965000000000006  1.0000
  O   O1        1.0  0.09081000000000004  0.8566900000000001  0.76005  1.0000
  O   O2        1.0  0.31243  0.8832399999999999  0.7340600000000002  1.0000
  O   O3        1.0  0.87818  0.8792499999999998  0.47647  1.0000
  O   O4        1.0  0.18511999999999998  0.93018  0.51627  1.0000
  O   O5        1.0  0.10910000000000009  0.76383  0.45119000000000004  1.0000
  O   O6        1.0  0.38413000000000014  0.8572000000000002  0.4942000000000001  1.0000
  O   O7        1.0  0.062350000000000017  5.9999999999990596e-05  0.2076  1.0000
  O   O8        1.0  0.31664  0.03963000000000001  0.22915000000000005  1.0000
  O   O9        1.0  0.13666000000000017  0.7984600000000001  0.8769800000000002  1.0000
  O   O10       1.0  0.31435000000000013  0.76665  0.8300100000000002  1.0000
  O   O11       1.0  0.9103800000000003  0.35331  0.9153900000000003  1.0000
  O   O12       1.0  0.08144000000000019  0.3022400000000001  0.8518700000000002  1.0000
  O   O13       1.0  0.18486  0.3927999999999999  0.9687000000000001  1.0000
  O   O14       1.0  0.48749999999999993  0.99797  0.8631600000000003  1.0000
  O   O15       1.0  0.2644  0.015340000000000005  0.87247  1.0000
  O   O16       1.0  0.10595  0.13498999999999994  0.0738  1.0000
  O   O17       1.0  0.33486  0.11365999999999998  0.09511000000000003  1.0000
  O   O18       1.0  0.36805000000000004  0.39229  0.7384000000000001  1.0000
  O   O19       1.0  0.64339  0.4058899999999999  0.7817100000000001  1.0000
  O   O20       1.0  0.5712899999999999  0.7184499999999998  0.794  1.0000
  O   O21       1.0  0.44362000000000024  0.40264000000000005  0.9345400000000003  1.0000
  O   O22       1.0  0.7944200000000001  0.80513  0.7884400000000003  1.0000
  O   O23       1.0  0.8708100000000001  0.40181000000000006  0.7267100000000001  1.0000
  O   O24       1.0  0.50179  0.31368  0.6677200000000001  1.0000
  O   O25       1.0  0.9106799999999999  0.14421999999999993  0.23991  1.0000
  O   O26       1.0  0.68835  0.11619999999999997  0.26583  1.0000
  O   O27       1.0  0.12190999999999995  0.12071  0.5238  1.0000
  O   O28       1.0  0.81684  0.07065  0.48434  1.0000
  O   O29       1.0  0.8902500000000001  0.23620999999999998  0.54931  1.0000
  O   O30       1.0  0.6164  0.14225  0.50486  1.0000
  O   O31       1.0  0.93617  0.9989799999999999  0.79233  1.0000
  O   O32       1.0  0.6802100000000001  0.95966  0.7696100000000001  1.0000
  O   O33       1.0  0.8606799999999999  0.20145999999999994  0.12237  1.0000
  O   O34       1.0  0.6829100000000001  0.23334  0.16976  1.0000
  O   O35       1.0  0.09154  0.64771  0.08573  1.0000
  O   O36       1.0  0.91876  0.69832  0.14812  1.0000
  O   O37       1.0  0.81718  0.60769  0.030980000000000004  1.0000
  O   O38       1.0  0.51568  0.0052  0.13725  1.0000
  O   O39       1.0  0.73652  0.98358  0.12669  1.0000
  O   O40       1.0  0.89584  0.8626499999999998  0.9291600000000001  1.0000
  O   O41       1.0  0.66736  0.88948  0.90763  1.0000
  O   O42       1.0  0.63278  0.60867  0.26154000000000005  1.0000
  O   O43       1.0  0.3568399999999999  0.5945  0.21806000000000003  1.0000
  O   O44       1.0  0.42802  0.2808299999999999  0.20644  1.0000
  O   O45       1.0  0.55538  0.59695  0.06555  1.0000
  O   O46       1.0  0.20842000000000005  0.19431000000000004  0.21156000000000005  1.0000
  O   O47       1.0  0.12955999999999995  0.5982099999999998  0.27336000000000005  1.0000
  O   O48       1.0  0.49773000000000006  0.68614  0.33191  1.0000
