data_image0
_chemical_formula_structural       Zn8H56C72N32O16
_chemical_formula_sum              "Zn8 H56 C72 N32 O16"
_cell_length_a       11.34582
_cell_length_b       17.919149999999995
_cell_length_c       17.95188
_cell_angle_alpha    89.82735999999998
_cell_angle_beta     89.86548
_cell_angle_gamma    89.69071

_space_group_name_H-M_alt    "P 1"
_space_group_IT_number       1

loop_
  _space_group_symop_operation_xyz
  'x, y, z'

loop_
  _atom_site_type_symbol
  _atom_site_label
  _atom_site_symmetry_multiplicity
  _atom_site_fract_x
  _atom_site_fract_y
  _atom_site_fract_z
  _atom_site_occupancy
  Zn  Zn1       1.0  0.18020999999999998  0.22058999999999995  0.42175  1.0000
  Zn  Zn2       1.0  0.18114  0.27816  0.07595  1.0000
  Zn  Zn3       1.0  0.6864499999999999  0.57598  0.72367  1.0000
  Zn  Zn4       1.0  0.68651  0.92381  0.77649  1.0000
  Zn  Zn5       1.0  0.81977  0.7794099999999998  0.57834  1.0000
  Zn  Zn6       1.0  0.8188299999999998  0.72184  0.9240599999999999  1.0000
  Zn  Zn7       1.0  0.31355  0.42402  0.2763399999999999  1.0000
  Zn  Zn8       1.0  0.31349  0.07619  0.22352000000000002  1.0000
  H   H1        1.0  0.4664899999999999  0.1929  0.30708  1.0000
  H   H2        1.0  0.55284  0.24596999999999997  0.36862  1.0000
  H   H3        1.0  0.6849599999999999  0.07189999999999999  0.54246  1.0000
  H   H4        1.0  0.7655599999999999  0.009279999999999997  0.65175  1.0000
  H   H5        1.0  0.4312899999999999  0.9547399999999999  0.73216  1.0000
  H   H6        1.0  0.33377  0.01689  0.62488  1.0000
  H   H7        1.0  0.5828899999999999  0.11294  0.43570999999999993  1.0000
  H   H8        1.0  0.46331  0.30592999999999987  0.1923  1.0000
  H   H9        1.0  0.5542  0.25439  0.13135  1.0000
  H   H10       1.0  0.68502  0.4278799999999999  0.9578599999999999  1.0000
  H   H11       1.0  0.7658599999999998  0.49009  0.8484  1.0000
  H   H12       1.0  0.43179  0.54579  0.7680099999999999  1.0000
  H   H13       1.0  0.33385  0.48408999999999996  0.87541  1.0000
  H   H14       1.0  0.58189  0.38684  0.06435  1.0000
  H   H15       1.0  0.9686799999999998  0.6922  0.6937  1.0000
  H   H16       1.0  0.059209999999999985  0.63064  0.7449199999999999  1.0000
  H   H17       1.0  0.18774999999999994  0.45514999999999994  0.57017  1.0000
  H   H18       1.0  0.26519  0.34572  0.50597  1.0000
  H   H19       1.0  0.92816  0.26933  0.45435999999999993  1.0000
  H   H20       1.0  0.8340899999999999  0.3769999999999999  0.51823  1.0000
  H   H21       1.0  0.08659  0.56301  0.613  1.0000
  H   H22       1.0  0.96862  0.80796  0.80657  1.0000
  H   H23       1.0  0.06097  0.8689799999999998  0.75626  1.0000
  H   H24       1.0  0.18635  0.04366  0.9288  1.0000
  H   H25       1.0  0.26424  0.15348  0.99083  1.0000
  H   H26       1.0  0.92781  0.23240999999999998  0.04443  1.0000
  H   H27       1.0  0.83302  0.12466  0.9827  1.0000
  H   H28       1.0  0.08591999999999997  0.9365399999999999  0.8873  1.0000
  H   H29       1.0  0.53349  0.8071  0.69294  1.0000
  H   H30       1.0  0.44714  0.75403  0.63139  1.0000
  H   H31       1.0  0.31506  0.92812  0.45752999999999994  1.0000
  H   H32       1.0  0.23445999999999997  0.99073  0.34825  1.0000
  H   H33       1.0  0.5687  0.04526  0.26785  1.0000
  H   H34       1.0  0.6662  0.9831199999999999  0.37512  1.0000
  H   H35       1.0  0.41707  0.8870699999999998  0.56429  1.0000
  H   H36       1.0  0.53669  0.69408  0.8077  1.0000
  H   H37       1.0  0.44578999999999996  0.74563  0.86865  1.0000
  H   H38       1.0  0.31498  0.5721  0.04214  1.0000
  H   H39       1.0  0.23414999999999994  0.5099099999999998  0.1516  1.0000
  H   H40       1.0  0.5681999999999999  0.45420999999999995  0.23198999999999997  1.0000
  H   H41       1.0  0.66612  0.51592  0.12459  1.0000
  H   H42       1.0  0.41805999999999993  0.61316  0.93564  1.0000
  H   H43       1.0  0.03132999999999999  0.30779  0.3063  1.0000
  H   H44       1.0  0.9407699999999998  0.36936  0.25508  1.0000
  H   H45       1.0  0.8122399999999999  0.54487  0.42984  1.0000
  H   H46       1.0  0.7348099999999999  0.6543  0.49404999999999993  1.0000
  H   H47       1.0  0.07183  0.73067  0.54565  1.0000
  H   H48       1.0  0.16588  0.62301  0.48177  1.0000
  H   H49       1.0  0.91336  0.43699  0.38701  1.0000
  H   H50       1.0  0.0314  0.19205999999999995  0.19345  1.0000
  H   H51       1.0  0.93903  0.13103  0.24377  1.0000
  H   H52       1.0  0.81366  0.95633  0.07119  1.0000
  H   H53       1.0  0.7357699999999999  0.84652  0.00916  1.0000
  H   H54       1.0  0.07219  0.7675999999999998  0.9555799999999999  1.0000
  H   H55       1.0  0.16695  0.8753499999999999  0.0173  1.0000
  H   H56       1.0  0.9140299999999998  0.06347  0.11271  1.0000
  C   C1        1.0  0.38426999999999994  0.29266  0.3425  1.0000
  C   C2        1.0  0.46296  0.22562999999999997  0.35926  1.0000
  C   C3        1.0  0.42793  0.17628999999999995  0.42246  1.0000
  C   C4        1.0  0.4459799999999999  0.09564  0.5161699999999999  1.0000
  C   C5        1.0  0.49932999999999994  0.05044  0.57164  1.0000
  C   C6        1.0  0.6243399999999999  0.04691999999999999  0.58225  1.0000
  C   C7        1.0  0.6708  0.01223  0.64347  1.0000
  C   C8        1.0  0.48296999999999995  0.9811699999999999  0.68838  1.0000
  C   C9        1.0  0.4294499999999999  0.014519999999999998  0.62813  1.0000
  C   C10       1.0  0.387  0.20554  0.15508  1.0000
  C   C11       1.0  0.46310999999999997  0.27362999999999993  0.13985  1.0000
  C   C12       1.0  0.42797  0.3231299999999999  0.07668  1.0000
  C   C13       1.0  0.44599999999999995  0.4043799999999999  0.9835799999999999  1.0000
  C   C14       1.0  0.49942  0.44983  0.9284999999999999  1.0000
  C   C15       1.0  0.62452  0.45296  0.91794  1.0000
  C   C16       1.0  0.67108  0.4874299999999999  0.85668  1.0000
  C   C17       1.0  0.4833  0.51918  0.81181  1.0000
  C   C18       1.0  0.42957  0.48612  0.87211  1.0000
  C   C19       1.0  0.89206  0.65483  0.79439  1.0000
  C   C20       1.0  0.9681899999999998  0.63959  0.72614  1.0000
  C   C21       1.0  0.9326299999999998  0.5766099999999998  0.6770399999999999  1.0000
  C   C22       1.0  0.9492399999999998  0.48355999999999993  0.5959  1.0000
  C   C23       1.0  0.0012599999999999994  0.42822  0.55002  1.0000
  C   C24       1.0  0.12602  0.41628  0.54533  1.0000
  C   C25       1.0  0.17058999999999996  0.35487999999999986  0.50982  1.0000
  C   C26       1.0  0.98127  0.31228  0.48049  1.0000
  C   C27       1.0  0.92961  0.37273999999999996  0.51466  1.0000
  C   C28       1.0  0.89481  0.8465299999999998  0.7056199999999999  1.0000
  C   C29       1.0  0.9694299999999999  0.86073  0.77433  1.0000
  C   C30       1.0  0.93267  0.92381  0.82328  1.0000
  C   C31       1.0  0.9479799999999998  0.01673  0.90439  1.0000
  C   C32       1.0  0.9999099999999999  0.07207  0.9497799999999998  1.0000
  C   C33       1.0  0.12472999999999998  0.08324  0.9534999999999999  1.0000
  C   C34       1.0  0.16965  0.1448  0.9878199999999999  1.0000
  C   C35       1.0  0.9806699999999999  0.18885  0.01834  1.0000
  C   C36       1.0  0.9286099999999998  0.12829  0.98532  1.0000
  C   C37       1.0  0.61572  0.70734  0.65751  1.0000
  C   C38       1.0  0.5370199999999999  0.7743799999999997  0.6407399999999999  1.0000
  C   C39       1.0  0.57209  0.82372  0.57754  1.0000
  C   C40       1.0  0.55405  0.90435  0.48385  1.0000
  C   C41       1.0  0.50069  0.94955  0.42838  1.0000
  C   C42       1.0  0.37568999999999997  0.95308  0.41774  1.0000
  C   C43       1.0  0.32922  0.9877799999999999  0.35652999999999996  1.0000
  C   C44       1.0  0.51703  0.018829999999999993  0.31164  1.0000
  C   C45       1.0  0.57053  0.98547  0.37188  1.0000
  C   C46       1.0  0.613  0.79445  0.84492  1.0000
  C   C47       1.0  0.53688  0.72637  0.86016  1.0000
  C   C48       1.0  0.57205  0.67686  0.92333  1.0000
  C   C49       1.0  0.55401  0.59563  0.01641  1.0000
  C   C50       1.0  0.50059  0.55018  0.07149  1.0000
  C   C51       1.0  0.3754999999999999  0.5470399999999999  0.08205999999999998  1.0000
  C   C52       1.0  0.32893  0.5125599999999999  0.14332  1.0000
  C   C53       1.0  0.5166899999999999  0.48081999999999997  0.18818  1.0000
  C   C54       1.0  0.57041  0.5139  0.12788  1.0000
  C   C55       1.0  0.10794999999999999  0.34517  0.20561  1.0000
  C   C56       1.0  0.03181  0.3604099999999999  0.27387  1.0000
  C   C57       1.0  0.06739  0.4234  0.32297  1.0000
  C   C58       1.0  0.05077  0.51643  0.4041  1.0000
  C   C59       1.0  0.9987399999999999  0.57177  0.44997999999999994  1.0000
  C   C60       1.0  0.87399  0.5837299999999999  0.45468  1.0000
  C   C61       1.0  0.82942  0.64513  0.49021  1.0000
  C   C62       1.0  0.018709999999999994  0.68772  0.51952  1.0000
  C   C63       1.0  0.07036  0.62726  0.48533999999999994  1.0000
  C   C64       1.0  0.10520999999999997  0.15347  0.29441  1.0000
  C   C65       1.0  0.03058  0.13927  0.22567999999999996  1.0000
  C   C66       1.0  0.06735  0.0762  0.17671999999999996  1.0000
  C   C67       1.0  0.05203  0.9832899999999999  0.09561  1.0000
  C   C68       1.0  8.999999999999961e-05  0.92795  0.05022  1.0000
  C   C69       1.0  0.8752899999999998  0.9167599999999999  0.0465  1.0000
  C   C70       1.0  0.8303599999999998  0.8551999999999998  0.01217  1.0000
  C   C71       1.0  0.01933  0.8111699999999997  0.98166  1.0000
  C   C72       1.0  0.07137  0.8717299999999998  0.01469  1.0000
  N   N1        1.0  0.32315999999999995  0.16582  0.45366  1.0000
  N   N2        1.0  0.33094  0.11515  0.51172  1.0000
  N   N3        1.0  0.50867  0.13381  0.4605  1.0000
  N   N4        1.0  0.60283  0.97923  0.6984  1.0000
  N   N5        1.0  0.32343  0.33379  0.04522999999999999  1.0000
  N   N6        1.0  0.33124  0.38485  0.98754  1.0000
  N   N7        1.0  0.50852  0.36592  0.03919  1.0000
  N   N8        1.0  0.60318  0.52055  0.80165  1.0000
  N   N9        1.0  0.82774  0.54587  0.66692  1.0000
  N   N10       1.0  0.83455  0.48833999999999994  0.61601  1.0000
  N   N11       1.0  0.012539999999999999  0.53854  0.63399  1.0000
  N   N12       1.0  0.10094  0.30089999999999995  0.47725  1.0000
  N   N13       1.0  0.82732  0.95472  0.83339  1.0000
  N   N14       1.0  0.8333999999999999  0.01227  0.88441  1.0000
  N   N15       1.0  0.01201  0.9615199999999999  0.86628  1.0000
  N   N16       1.0  0.10029  0.19958999999999993  0.02028  1.0000
  N   N17       1.0  0.67686  0.83419  0.54634  1.0000
  N   N18       1.0  0.6691  0.88485  0.48829  1.0000
  N   N19       1.0  0.4913099999999999  0.86618  0.5395  1.0000
  N   N20       1.0  0.39718  0.02077  0.30159  1.0000
  N   N21       1.0  0.6765899999999999  0.6661999999999999  0.95479  1.0000
  N   N22       1.0  0.66877  0.61514  0.01247  1.0000
  N   N23       1.0  0.49144999999999994  0.63409  0.96082  1.0000
  N   N24       1.0  0.39682  0.47944999999999993  0.19836  1.0000
  N   N25       1.0  0.17228  0.45414999999999994  0.33309  1.0000
  N   N26       1.0  0.16545999999999997  0.5116799999999999  0.38399999999999995  1.0000
  N   N27       1.0  0.98743  0.46146999999999994  0.36601  1.0000
  N   N28       1.0  0.89906  0.69911  0.52277  1.0000
  N   N29       1.0  0.17269999999999996  0.045269999999999984  0.1666  1.0000
  N   N30       1.0  0.16661  0.98773  0.11557999999999999  1.0000
  N   N31       1.0  0.98796  0.03848  0.13374  1.0000
  N   N32       1.0  0.8997099999999999  0.8004  0.9797200000000001  1.0000
  O   O1        1.0  0.27484  0.29231  0.35534  1.0000
  O   O2        1.0  0.43506  0.3483699999999999  0.31104  1.0000
  O   O3        1.0  0.27944  0.20380999999999996  0.13777999999999999  1.0000
  O   O4        1.0  0.43732  0.15115999999999996  0.18942  1.0000
  O   O5        1.0  0.78464  0.63741  0.7967  1.0000
  O   O6        1.0  0.9418599999999999  0.6891799999999998  0.84842  1.0000
  O   O7        1.0  0.78635  0.8625499999999999  0.7036899999999999  1.0000
  O   O8        1.0  0.94649  0.81408  0.65084  1.0000
  O   O9        1.0  0.7251499999999999  0.7076799999999998  0.64467  1.0000
  O   O10       1.0  0.56493  0.6516199999999998  0.68896  1.0000
  O   O11       1.0  0.72056  0.79619  0.86222  1.0000
  O   O12       1.0  0.5627  0.8488499999999998  0.81058  1.0000
  O   O13       1.0  0.21536  0.36259  0.2033  1.0000
  O   O14       1.0  0.05816  0.31082  0.15158  1.0000
  O   O15       1.0  0.21365  0.13744  0.29632  1.0000
  O   O16       1.0  0.05354999999999999  0.18592  0.3492  1.0000
