data_image0
_chemical_formula_structural       Zn4H56C96N8O16
_chemical_formula_sum              "Zn4 H56 C96 N8 O16"
_cell_length_a       11.17474
_cell_length_b       14.61481
_cell_length_c       16.25427
_cell_angle_alpha    90.0
_cell_angle_beta     92.29677
_cell_angle_gamma    90.0

_space_group_name_H-M_alt    "P 1"
_space_group_IT_number       1

loop_
  _space_group_symop_operation_xyz
  'x, y, z'

loop_
  _atom_site_type_symbol
  _atom_site_label
  _atom_site_symmetry_multiplicity
  _atom_site_fract_x
  _atom_site_fract_y
  _atom_site_fract_z
  _atom_site_occupancy
  Zn  Zn1       1.0  0.97852  0.62798  0.96446  1.0000
  Zn  Zn2       1.0  0.47742000000000007  0.14576  0.59387  1.0000
  Zn  Zn3       1.0  0.02148  0.12798  0.03554  1.0000
  Zn  Zn4       1.0  0.52257  0.64576  0.40613  1.0000
  H   H1        1.0  0.68207  0.88792  0.92751  1.0000
  H   H2        1.0  0.58074  0.0023699999999999993  0.83552  1.0000
  H   H3        1.0  0.72729  0.94416  0.56913  1.0000
  H   H4        1.0  0.8553  0.82555  0.5086200000000002  1.0000
  H   H5        1.0  0.9526  0.70676  0.59985  1.0000
  H   H6        1.0  0.9218199999999999  0.70785  0.74938  1.0000
  H   H7        1.0  0.37727999999999995  0.25433  0.83718  1.0000
  H   H8        1.0  0.27244  0.35301  0.9364300000000002  1.0000
  H   H9        1.0  0.11391  0.60289  0.7712  1.0000
  H   H10       1.0  0.1252  0.6457699999999998  0.62551  1.0000
  H   H11       1.0  0.21789000000000003  0.54019  0.52531  1.0000
  H   H12       1.0  0.30552  0.3930399999999999  0.57473  1.0000
  H   H13       1.0  0.54442  0.99275  0.48956  1.0000
  H   H14       1.0  0.4554  0.8934  0.37568  1.0000
  H   H15       1.0  0.11579000000000002  0.02546  0.4130500000000001  1.0000
  H   H16       1.0  0.21916  0.11807  0.52621  1.0000
  H   H17       1.0  0.2744  0.68223  0.21382  1.0000
  H   H18       1.0  0.19076000000000004  0.59879  0.088  1.0000
  H   H19       1.0  0.95494  0.81025  0.03058  1.0000
  H   H20       1.0  0.030320000000000003  0.90379  0.151  1.0000
  H   H21       1.0  0.39388000000000006  0.24108999999999994  0.43657  1.0000
  H   H22       1.0  0.48091000000000006  0.32685  0.32048  1.0000
  H   H23       1.0  0.82658  0.30539  0.44871  1.0000
  H   H24       1.0  0.72489  0.21733  0.55912  1.0000
  H   H25       1.0  0.64457  0.54585  0.16488  1.0000
  H   H26       1.0  0.7327700000000001  0.62717  0.04312000000000001  1.0000
  H   H27       1.0  0.03537  0.4634899999999999  0.05603  1.0000
  H   H28       1.0  0.9596799999999999  0.37286  0.17365  1.0000
  H   H29       1.0  0.31792  0.38792  0.07249  1.0000
  H   H30       1.0  0.41925  0.50237  0.16448  1.0000
  H   H31       1.0  0.27270000000000005  0.44416  0.43087  1.0000
  H   H32       1.0  0.14469  0.32555  0.49139  1.0000
  H   H33       1.0  0.04739  0.20674999999999996  0.40015  1.0000
  H   H34       1.0  0.07817  0.20785  0.25063  1.0000
  H   H35       1.0  0.62272  0.75433  0.16282  1.0000
  H   H36       1.0  0.72755  0.85301  0.06357  1.0000
  H   H37       1.0  0.8860799999999999  0.10289  0.2288  1.0000
  H   H38       1.0  0.87479  0.14577  0.3745000000000001  1.0000
  H   H39       1.0  0.7821  0.04019  0.47469  1.0000
  H   H40       1.0  0.69447  0.8930399999999997  0.42528  1.0000
  H   H41       1.0  0.45557  0.49275  0.51044  1.0000
  H   H42       1.0  0.54459  0.3934  0.62433  1.0000
  H   H43       1.0  0.8841999999999999  0.52546  0.58696  1.0000
  H   H44       1.0  0.7808299999999999  0.61807  0.47379  1.0000
  H   H45       1.0  0.72559  0.18223  0.78618  1.0000
  H   H46       1.0  0.80923  0.09879  0.9120000000000003  1.0000
  H   H47       1.0  0.04505000000000002  0.31025  0.9694200000000002  1.0000
  H   H48       1.0  0.9696700000000001  0.40378  0.8490000000000002  1.0000
  H   H49       1.0  0.60611  0.74109  0.56344  1.0000
  H   H50       1.0  0.51908  0.8268499999999998  0.67953  1.0000
  H   H51       1.0  0.17341  0.8054  0.55129  1.0000
  H   H52       1.0  0.2751  0.7173299999999999  0.44088  1.0000
  H   H53       1.0  0.35542  0.04584  0.83512  1.0000
  H   H54       1.0  0.26723  0.12717  0.95688  1.0000
  H   H55       1.0  0.9646199999999999  0.96349  0.94397  1.0000
  H   H56       1.0  0.04031  0.87286  0.82635  1.0000
  C   C1        1.0  0.82953  0.7573099999999998  0.89404  1.0000
  C   C2        1.0  0.7787299999999999  0.82506  0.83217  1.0000
  C   C3        1.0  0.70018  0.88914  0.8623800000000003  1.0000
  C   C4        1.0  0.64426  0.9544  0.8107  1.0000
  C   C5        1.0  0.666  0.95819  0.72734  1.0000
  C   C6        1.0  0.76971  0.89198  0.60772  1.0000
  C   C7        1.0  0.84206  0.8262  0.57459  1.0000
  C   C8        1.0  0.89674  0.75929  0.62621  1.0000
  C   C9        1.0  0.8790800000000001  0.75916  0.70982  1.0000
  C   C10       1.0  0.80444  0.82573  0.74627  1.0000
  C   C11       1.0  0.74786  0.89412  0.69329  1.0000
  C   C12       1.0  0.5946  0.02682  0.67731  1.0000
  C   C13       1.0  0.38627999999999996  0.27014  0.67655  1.0000
  C   C14       1.0  0.32412  0.33442  0.73212  1.0000
  C   C15       1.0  0.32866  0.31476999999999994  0.81555  1.0000
  C   C16       1.0  0.27073  0.37131  0.87145  1.0000
  C   C17       1.0  0.20966  0.44947  0.84516  1.0000
  C   C18       1.0  0.15659  0.55742  0.7285700000000003  1.0000
  C   C19       1.0  0.16149  0.5804  0.64643  1.0000
  C   C20       1.0  0.21487000000000003  0.52109  0.58993  1.0000
  C   C21       1.0  0.26452  0.4396899999999999  0.61744  1.0000
  C   C22       1.0  0.26427  0.41474  0.70206  1.0000
  C   C23       1.0  0.20742  0.4743  0.7595000000000002  1.0000
  C   C24       1.0  0.14623000000000003  0.50281  0.90942  1.0000
  C   C25       1.0  0.44999  0.99664  0.4708  1.0000
  C   C26       1.0  0.40135000000000004  0.94254  0.40806  1.0000
  C   C27       1.0  0.27883  0.9521599999999998  0.38557  1.0000
  C   C28       1.0  0.21058  0.01595  0.42878  1.0000
  C   C29       1.0  0.26688  0.0671  0.49125000000000013  1.0000
  C   C30       1.0  0.22986999999999996  0.89854  0.32025  1.0000
  C   C31       1.0  0.19799000000000003  0.85043  0.26216  1.0000
  C   C32       1.0  0.15711  0.79944  0.19273  1.0000
  C   C33       1.0  0.20389  0.71248  0.17449  1.0000
  C   C34       1.0  0.15832  0.66609  0.10548  1.0000
  C   C35       1.0  0.02647  0.7853  0.0721  1.0000
  C   C36       1.0  0.06702  0.8362899999999998  0.13946000000000006  1.0000
  C   C37       1.0  0.48949  0.25571  0.4365400000000001  1.0000
  C   C38       1.0  0.53776  0.30378  0.37218  1.0000
  C   C39       1.0  0.66182  0.32184  0.37445  1.0000
  C   C40       1.0  0.73091  0.29144  0.4436200000000001  1.0000
  C   C41       1.0  0.67515  0.24327  0.50504  1.0000
  C   C42       1.0  0.71309  0.36806  0.30815  1.0000
  C   C43       1.0  0.75144  0.40716  0.24838000000000002  1.0000
  C   C44       1.0  0.79565  0.4532  0.17934000000000005  1.0000
  C   C45       1.0  0.73023  0.52523  0.14108  1.0000
  C   C46       1.0  0.7779899999999998  0.5702799999999999  0.07459  1.0000
  C   C47       1.0  0.9481299999999999  0.47766  0.08109  1.0000
  C   C48       1.0  0.9066  0.42886  0.14734  1.0000
  C   C49       1.0  0.17046  0.25731  0.10596  1.0000
  C   C50       1.0  0.22126  0.32506  0.16783000000000006  1.0000
  C   C51       1.0  0.29981  0.38914  0.13762  1.0000
  C   C52       1.0  0.35574  0.4544  0.1893  1.0000
  C   C53       1.0  0.33399  0.45819  0.27266  1.0000
  C   C54       1.0  0.23028  0.3919799999999999  0.39228  1.0000
  C   C55       1.0  0.15793  0.32619  0.42541  1.0000
  C   C56       1.0  0.10324999999999998  0.25929  0.37379  1.0000
  C   C57       1.0  0.12091  0.25916  0.29018  1.0000
  C   C58       1.0  0.19555  0.32573  0.25373  1.0000
  C   C59       1.0  0.25214  0.3941199999999999  0.30672  1.0000
  C   C60       1.0  0.40539  0.52682  0.3227  1.0000
  C   C61       1.0  0.61371  0.77014  0.3234500000000001  1.0000
  C   C62       1.0  0.67587  0.83442  0.26789  1.0000
  C   C63       1.0  0.67133  0.81477  0.18445  1.0000
  C   C64       1.0  0.72926  0.87132  0.12855  1.0000
  C   C65       1.0  0.79033  0.94947  0.15484  1.0000
  C   C66       1.0  0.84341  0.057419999999999985  0.27144  1.0000
  C   C67       1.0  0.8385  0.08039  0.35357  1.0000
  C   C68       1.0  0.78512  0.021089999999999994  0.41007  1.0000
  C   C69       1.0  0.7354699999999998  0.93969  0.38257  1.0000
  C   C70       1.0  0.73572  0.9147399999999998  0.2979400000000001  1.0000
  C   C71       1.0  0.79257  0.9742999999999998  0.24050000000000005  1.0000
  C   C72       1.0  0.85376  0.00281  0.09059  1.0000
  C   C73       1.0  0.55  0.4966399999999999  0.5292  1.0000
  C   C74       1.0  0.59864  0.4425399999999999  0.59194  1.0000
  C   C75       1.0  0.7211600000000001  0.45216  0.61444  1.0000
  C   C76       1.0  0.78941  0.51595  0.5712200000000002  1.0000
  C   C77       1.0  0.73311  0.56711  0.50876  1.0000
  C   C78       1.0  0.77012  0.3985499999999999  0.67974  1.0000
  C   C79       1.0  0.80201  0.35041  0.7378500000000002  1.0000
  C   C80       1.0  0.8428800000000001  0.29944  0.80727  1.0000
  C   C81       1.0  0.7961  0.21247999999999997  0.82551  1.0000
  C   C82       1.0  0.84167  0.16608999999999996  0.8945200000000002  1.0000
  C   C83       1.0  0.9735200000000002  0.28529  0.9279  1.0000
  C   C84       1.0  0.93297  0.33628  0.86054  1.0000
  C   C85       1.0  0.5105  0.75571  0.5634600000000002  1.0000
  C   C86       1.0  0.46223  0.8037899999999999  0.62782  1.0000
  C   C87       1.0  0.33818  0.8218399999999999  0.62555  1.0000
  C   C88       1.0  0.26908000000000004  0.79145  0.5563800000000002  1.0000
  C   C89       1.0  0.32484  0.74327  0.49496  1.0000
  C   C90       1.0  0.2869  0.8680699999999999  0.69186  1.0000
  C   C91       1.0  0.24856  0.90715  0.75161  1.0000
  C   C92       1.0  0.20434  0.9531999999999998  0.82066  1.0000
  C   C93       1.0  0.26976  0.02522  0.8589200000000002  1.0000
  C   C94       1.0  0.22201000000000004  0.07028  0.92541  1.0000
  C   C95       1.0  0.051860000000000024  0.97766  0.9189100000000002  1.0000
  C   C96       1.0  0.09339000000000001  0.9288599999999999  0.85266  1.0000
  N   N1        1.0  0.38459  0.05814  0.51181  1.0000
  N   N2        1.0  0.07071  0.70158  0.0551  1.0000
  N   N3        1.0  0.55666  0.22492  0.50165  1.0000
  N   N4        1.0  0.8857299999999999  0.54754  0.04518000000000001  1.0000
  N   N5        1.0  0.61541  0.55814  0.48819  1.0000
  N   N6        1.0  0.92928  0.20158  0.9449000000000002  1.0000
  N   N7        1.0  0.44333  0.72492  0.49835  1.0000
  N   N8        1.0  0.11426  0.04754  0.9548200000000002  1.0000
  O   O1        1.0  0.93674  0.72624  0.88289  1.0000
  O   O2        1.0  0.76943  0.73568  0.9545500000000002  1.0000
  O   O3        1.0  0.63745  0.06472  0.6131600000000003  1.0000
  O   O4        1.0  0.49032  0.04686  0.70009  1.0000
  O   O5        1.0  0.49685  0.25382  0.6914800000000002  1.0000
  O   O6        1.0  0.32691999999999993  0.2313  0.61686  1.0000
  O   O7        1.0  0.1832  0.50045  0.9832100000000003  1.0000
  O   O8        1.0  0.04986  0.54627  0.88357  1.0000
  O   O9        1.0  0.06325  0.22624  0.11711  1.0000
  O   O10       1.0  0.23056  0.23567999999999995  0.04545  1.0000
  O   O11       1.0  0.3625399999999999  0.5647199999999999  0.38684  1.0000
  O   O12       1.0  0.50968  0.54686  0.29991  1.0000
  O   O13       1.0  0.50314  0.7538199999999998  0.30852  1.0000
  O   O14       1.0  0.67307  0.73131  0.38314  1.0000
  O   O15       1.0  0.81679  0.0004599999999999999  0.0168  1.0000
  O   O16       1.0  0.9501400000000001  0.04627  0.11643  1.0000
