data_image0
_chemical_formula_structural       Zn10H32C108O72
_chemical_formula_sum              "Zn10 H32 C108 O72"
_cell_length_a       13.49032
_cell_length_b       15.69213
_cell_length_c       20.40512
_cell_angle_alpha    90.00469000000001
_cell_angle_beta     90.07231
_cell_angle_gamma    94.60032999999999

_space_group_name_H-M_alt    "P 1"
_space_group_IT_number       1

loop_
  _space_group_symop_operation_xyz
  'x, y, z'

loop_
  _atom_site_type_symbol
  _atom_site_label
  _atom_site_symmetry_multiplicity
  _atom_site_fract_x
  _atom_site_fract_y
  _atom_site_fract_z
  _atom_site_occupancy
  Zn  Zn1       1.0  0.07392999999999997  0.5560399999999998  0.65397  1.0000
  Zn  Zn2       1.0  0.54714  0.9407199999999998  0.56591  1.0000
  Zn  Zn3       1.0  0.92349  0.94565  0.15431  1.0000
  Zn  Zn4       1.0  0.92607  0.4439599999999999  0.34602  1.0000
  Zn  Zn5       1.0  0.45286  0.05928999999999999  0.43409  1.0000
  Zn  Zn6       1.0  0.07653000000000003  0.05431  0.84567  1.0000
  Zn  Zn7       1.0  0.9999900000000002  0.4999999999999999  0.49999  1.0000
  Zn  Zn8       1.0  0.54693  0.4400099999999999  0.9343700000000001  1.0000
  Zn  Zn9       1.0  0.99944  0.0008099999999999997  0.00016  1.0000
  Zn  Zn10      1.0  0.45308  0.55999  0.06563  1.0000
  H   H1        1.0  0.96021  0.8146499999999998  0.95174  1.0000
  H   H2        1.0  0.8152500000000003  0.4808499999999999  0.75517  1.0000
  H   H3        1.0  0.52773  0.84306  0.77125  1.0000
  H   H4        1.0  0.24706  0.3914199999999999  0.11807000000000001  1.0000
  H   H5        1.0  0.70137  0.23398  0.43569  1.0000
  H   H6        1.0  0.49353000000000014  0.7975399999999998  0.9887599999999999  1.0000
  H   H7        1.0  0.2986300000000001  0.7660199999999998  0.56431  1.0000
  H   H8        1.0  0.29937  0.26516  0.93563  1.0000
  H   H9        1.0  0.18524  0.01904  0.2542  1.0000
  H   H10       1.0  0.47069000000000005  0.6592099999999997  0.27016  1.0000
  H   H11       1.0  0.50589  0.70433  0.48802  1.0000
  H   H12       1.0  0.75218  0.10739999999999997  0.61831  1.0000
  H   H13       1.0  0.7168600000000003  0.9009599999999998  0.9386299999999999  1.0000
  H   H14       1.0  0.7006399999999998  0.7348499999999998  0.06437  1.0000
  H   H15       1.0  0.5293100000000001  0.34079  0.72984  1.0000
  H   H16       1.0  0.71802  0.3986099999999999  0.56251  1.0000
  H   H17       1.0  0.49411  0.29568  0.51198  1.0000
  H   H18       1.0  0.18475000000000005  0.51916  0.24483  1.0000
  H   H19       1.0  0.96064  0.31274  0.54955  1.0000
  H   H20       1.0  0.81476  0.98096  0.74579  1.0000
  H   H21       1.0  0.47227000000000013  0.15693999999999994  0.22874999999999998  1.0000
  H   H22       1.0  0.9945800000000002  0.37597  0.22963  1.0000
  H   H23       1.0  0.24782000000000004  0.8926099999999998  0.38169  1.0000
  H   H24       1.0  0.28198  0.6013999999999999  0.43748  1.0000
  H   H25       1.0  0.28314  0.09904999999999997  0.061369999999999994  1.0000
  H   H26       1.0  0.03978000000000001  0.18541  0.04827  1.0000
  H   H27       1.0  0.9945900000000002  0.87837  0.27031  1.0000
  H   H28       1.0  0.7529399999999999  0.60859  0.8819300000000001  1.0000
  H   H29       1.0  0.0054100000000000025  0.62404  0.77037  1.0000
  H   H30       1.0  0.005409999999999998  0.12163999999999997  0.72969  1.0000
  H   H31       1.0  0.039359999999999985  0.6872699999999998  0.45044  1.0000
  H   H32       1.0  0.50648  0.20247  0.01124  1.0000
  C   C1        1.0  0.25418  0.27103  0.9793  1.0000
  C   C2        1.0  0.7048700000000002  0.79492  0.43838  1.0000
  C   C3        1.0  0.86274  0.21049  0.59163  1.0000
  C   C4        1.0  0.15405  0.30753  0.60429  1.0000
  C   C5        1.0  0.12517000000000003  0.39658  0.59579  1.0000
  C   C6        1.0  0.7164900000000002  0.1662  0.52683  1.0000
  C   C7        1.0  0.34945  0.57641  0.17873  1.0000
  C   C8        1.0  0.16675  0.21774999999999994  0.98754  1.0000
  C   C9        1.0  0.23449000000000006  0.68138  0.88744  1.0000
  C   C10       1.0  0.3307500000000001  0.08677  0.24889000000000003  1.0000
  C   C11       1.0  0.15329000000000004  0.17095  0.65601  1.0000
  C   C12       1.0  0.6143  0.86768  0.85923  1.0000
  C   C13       1.0  0.8449200000000002  0.19250999999999993  0.10308  1.0000
  C   C14       1.0  0.84855  0.8884299999999998  0.28824  1.0000
  C   C15       1.0  0.22562000000000004  0.84296  0.41723  1.0000
  C   C16       1.0  0.38437000000000004  0.63499  0.35817  1.0000
  C   C17       1.0  0.87434  0.4807999999999999  0.62887  1.0000
  C   C18       1.0  0.28351  0.83381  0.47317000000000004  1.0000
  C   C19       1.0  0.76516  0.23377999999999996  0.07894  1.0000
  C   C20       1.0  0.22516  0.34172999999999987  0.08243  1.0000
  C   C21       1.0  0.59869  0.3695  0.70946  1.0000
  C   C22       1.0  0.75889  0.94904  0.77765  1.0000
  C   C23       1.0  0.6702400000000002  0.4123499999999999  0.74996  1.0000
  C   C24       1.0  0.13727000000000003  0.78951  0.40837  1.0000
  C   C25       1.0  0.22356000000000004  0.05548  0.15488  1.0000
  C   C26       1.0  0.32977  0.5876499999999998  0.25004  1.0000
  C   C27       1.0  0.63589  0.82424  0.48973999999999995  1.0000
  C   C28       1.0  0.23278  0.26588  0.57885  1.0000
  C   C29       1.0  0.22265999999999997  0.5570399999999998  0.34406  1.0000
  C   C30       1.0  0.8486600000000002  0.3867899999999999  0.21207000000000004  1.0000
  C   C31       1.0  0.12565999999999997  0.5192099999999997  0.37113  1.0000
  C   C32       1.0  0.6247600000000002  0.6080999999999998  0.98425  1.0000
  C   C33       1.0  0.63293  0.32322  0.01164  1.0000
  C   C34       1.0  0.25365  0.77214  0.5205  1.0000
  C   C35       1.0  0.62461  0.10718  0.51582  1.0000
  C   C36       1.0  0.66926  0.9132299999999998  0.7511  1.0000
  C   C37       1.0  0.77645  0.9445099999999997  0.8451100000000001  1.0000
  C   C38       1.0  0.15133999999999997  0.6132399999999999  0.7879300000000001  1.0000
  C   C39       1.0  0.8658700000000001  0.84538  0.06415  1.0000
  C   C40       1.0  0.15145  0.11156999999999997  0.71176  1.0000
  C   C41       1.0  0.40275  0.12839  0.20837  1.0000
  C   C42       1.0  0.7773400000000003  0.44296999999999986  0.65594  1.0000
  C   C43       1.0  0.36708  0.67679  0.98836  1.0000
  C   C44       1.0  0.77438  0.15705  0.58276  1.0000
  C   C45       1.0  0.70183  0.29428  0.06312  1.0000
  C   C46       1.0  0.9270500000000003  0.19405  0.64718  1.0000
  C   C47       1.0  0.40131  0.6305099999999998  0.29053  1.0000
  C   C48       1.0  0.15368000000000007  0.67212  0.8439200000000001  1.0000
  C   C49       1.0  0.29514  0.20507999999999996  0.56162  1.0000
  C   C50       1.0  0.10786000000000001  0.7276999999999998  0.45575000000000004  1.0000
  C   C51       1.0  0.37539000000000006  0.8928199999999997  0.48418000000000005  1.0000
  C   C52       1.0  0.7166300000000001  0.6671499999999998  0.97331  1.0000
  C   C53       1.0  0.7748400000000002  0.65828  0.9175700000000001  1.0000
  C   C54       1.0  0.9004000000000002  0.75442  0.35524  1.0000
  C   C55       1.0  0.34913000000000005  0.0786  0.32055  1.0000
  C   C56       1.0  0.2833800000000001  0.3328599999999999  0.02669  1.0000
  C   C57       1.0  0.2981900000000001  0.70575  0.93689  1.0000
  C   C58       1.0  0.23295000000000002  0.18047  0.61176  1.0000
  C   C59       1.0  0.76722  0.73413  0.42115  1.0000
  C   C60       1.0  0.8745000000000003  0.9805699999999998  0.87183  1.0000
  C   C61       1.0  0.155  0.80754  0.897  1.0000
  C   C62       1.0  0.3641100000000001  0.17576  0.51026  1.0000
  C   C63       1.0  0.2963100000000001  0.09596999999999997  0.11382999999999999  1.0000
  C   C64       1.0  0.10814  0.22605999999999996  0.0434  1.0000
  C   C65       1.0  0.7048200000000002  0.40174  0.61495  1.0000
  C   C66       1.0  0.9272400000000001  0.6959899999999998  0.85337  1.0000
  C   C67       1.0  0.16593  0.7193099999999998  0.51194  1.0000
  C   C68       1.0  0.74635  0.22786999999999993  0.47950000000000004  1.0000
  C   C69       1.0  0.07275  0.30401  0.14664  1.0000
  C   C70       1.0  0.8999000000000003  0.25355  0.144  1.0000
  C   C71       1.0  0.37525  0.39191  0.01575  1.0000
  C   C72       1.0  0.6156300000000002  0.3650199999999999  0.64182  1.0000
  C   C73       1.0  0.8732200000000002  0.10379999999999998  0.09346  1.0000
  C   C74       1.0  0.8921400000000002  0.2723099999999999  0.54425  1.0000
  C   C75       1.0  0.13194  0.6562499999999998  0.56326  1.0000
  C   C76       1.0  0.10005999999999998  0.7464799999999998  0.8560300000000001  1.0000
  C   C77       1.0  0.12549  0.01948  0.12816  1.0000
  C   C78       1.0  0.7670500000000001  0.81953  0.38824  1.0000
  C   C79       1.0  0.07295  0.80596  0.35282  1.0000
  C   C80       1.0  0.8332600000000002  0.7822599999999997  0.01246  1.0000
  C   C81       1.0  0.65086  0.9214099999999997  0.67945  1.0000
  C   C82       1.0  0.53444  0.82376  0.9005100000000001  1.0000
  C   C83       1.0  0.7037  0.9040299999999998  0.88617  1.0000
  C   C84       1.0  0.13694  0.2879299999999999  0.09097  1.0000
  C   C85       1.0  0.84595  0.69247  0.39571000000000006  1.0000
  C   C86       1.0  0.76553  0.31871  0.11255  1.0000
  C   C87       1.0  0.5355300000000001  0.32137  0.60017  1.0000
  C   C88       1.0  0.8918699999999999  0.7739599999999998  0.95659  1.0000
  C   C89       1.0  0.46556  0.17625  0.09949  1.0000
  C   C90       1.0  0.8467100000000001  0.82905  0.34399  1.0000
  C   C91       1.0  0.09960999999999999  0.24558  0.64475  1.0000
  C   C92       1.0  0.5972500000000002  0.87161  0.79163  1.0000
  C   C93       1.0  0.24111  0.05096  0.22234  1.0000
  C   C94       1.0  0.75977  0.4480699999999999  0.72337  1.0000
  C   C95       1.0  0.65055  0.42359  0.82127  1.0000
  C   C96       1.0  0.23481000000000005  0.7662299999999997  0.92109  1.0000
  C   C97       1.0  0.7458400000000001  0.7289799999999997  0.0207  1.0000
  C   C98       1.0  0.86806  0.34375  0.43674  1.0000
  C   C99       1.0  0.86306  0.7120699999999998  0.90903  1.0000
  C   C100      1.0  0.8340700000000002  0.2806899999999999  0.48806000000000005  1.0000
  C   C101      1.0  0.8463200000000001  0.32795  0.15606  1.0000
  C   C102      1.0  0.46448  0.67864  0.39982  1.0000
  C   C103      1.0  0.38571  0.13232  0.14077  1.0000
  C   C104      1.0  0.13417  0.15466999999999995  0.93582  1.0000
  C   C105      1.0  0.87484  0.60342  0.40421000000000007  1.0000
  C   C106      1.0  0.24023000000000005  0.55193  0.27663  1.0000
  C   C107      1.0  0.29518999999999995  0.5982699999999997  0.38505  1.0000
  C   C108      1.0  0.1267  0.89628  0.9066199999999999  1.0000
  O   O1        1.0  0.87984  0.56094  0.35113  1.0000
  O   O2        1.0  0.5504  0.83143  0.9648599999999999  1.0000
  O   O3        1.0  0.27739  0.06001999999999998  0.35852  1.0000
  O   O4        1.0  0.55128  0.32933  0.53576  1.0000
  O   O5        1.0  0.55996  0.9095299999999997  0.65903  1.0000
  O   O6        1.0  0.5899100000000002  0.6058199999999998  0.04234  1.0000
  O   O7        1.0  0.46144000000000013  0.28162  0.62397  1.0000
  O   O8        1.0  0.7803300000000002  0.42883  0.22709  1.0000
  O   O9        1.0  0.4155  0.23019  0.47729000000000005  1.0000
  O   O10       1.0  0.36487  0.5956199999999998  0.9935799999999999  1.0000
  O   O11       1.0  0.5845000000000001  0.7698199999999997  0.52271  1.0000
  O   O12       1.0  0.9968000000000001  0.74053  0.34  1.0000
  O   O13       1.0  0.5897300000000001  0.5658  0.93511  1.0000
  O   O14       1.0  0.8950600000000002  0.46255  0.57001  1.0000
  O   O15       1.0  0.58443  0.26842  0.97722  1.0000
  O   O16       1.0  0.99614  0.23875  0.15922  1.0000
  O   O17       1.0  0.64003  0.9052899999999998  0.49623000000000006  1.0000
  O   O18       1.0  0.41032  0.9347  0.43483  1.0000
  O   O19       1.0  0.8200400000000001  0.3504799999999999  0.3836  1.0000
  O   O20       1.0  0.4101  0.3941899999999999  0.9576599999999998  1.0000
  O   O21       1.0  0.18449  0.14755  0.8838400000000001  1.0000
  O   O22       1.0  0.81555  0.85247  0.11615  1.0000
  O   O23       1.0  0.9184500000000001  0.63243  0.81828  1.0000
  O   O24       1.0  0.17996000000000006  0.6495299999999998  0.6164  1.0000
  O   O25       1.0  0.06952999999999998  0.9745399999999997  0.16782  1.0000
  O   O26       1.0  0.92984  0.38559  0.25344  1.0000
  O   O27       1.0  0.04938  0.60986  0.55502  1.0000
  O   O28       1.0  0.41028  0.43421  0.06489  1.0000
  O   O29       1.0  0.7802999999999999  0.9306799999999997  0.27331  1.0000
  O   O30       1.0  0.10526000000000002  0.91864  0.96392  1.0000
  O   O31       1.0  0.27954000000000007  0.5542499999999998  0.13998  1.0000
  O   O32       1.0  0.12016000000000003  0.4390699999999999  0.64887  1.0000
  O   O33       1.0  0.8945400000000002  0.08158999999999997  0.03607  1.0000
  O   O34       1.0  0.4155800000000001  0.73159  0.02279  1.0000
  O   O35       1.0  0.12487  0.9396999999999998  0.85382  1.0000
  O   O36       1.0  0.9492000000000003  0.89164  0.05753  1.0000
  O   O37       1.0  0.003209999999999999  0.25948  0.65999  1.0000
  O   O38       1.0  0.58968  0.06530999999999998  0.56517  1.0000
  O   O39       1.0  0.10486  0.03857  0.06931  1.0000
  O   O40       1.0  0.44873  0.6706699999999998  0.46424  1.0000
  O   O41       1.0  0.07048  0.47277999999999987  0.33171  1.0000
  O   O42       1.0  0.21967000000000003  0.57119  0.77292  1.0000
  O   O43       1.0  0.55941  0.4111799999999999  0.84093  1.0000
  O   O44       1.0  0.89426  0.57965  0.46157  1.0000
  O   O45       1.0  0.46070999999999995  0.7838399999999998  0.87623  1.0000
  O   O46       1.0  0.9186  0.13014  0.68188  1.0000
  O   O47       1.0  0.41012  0.8959299999999998  0.5423  1.0000
  O   O48       1.0  0.9295200000000002  0.88766  0.24662000000000003  1.0000
  O   O49       1.0  0.44004000000000004  0.09047999999999998  0.34096  1.0000
  O   O50       1.0  0.21970000000000003  0.06931999999999998  0.72668  1.0000
  O   O51       1.0  0.58988  0.10406999999999997  0.4577  1.0000
  O   O52       1.0  0.63513  0.4043899999999999  0.00642  1.0000
  O   O53       1.0  0.35997000000000007  0.09470999999999997  0.50377  1.0000
  O   O54       1.0  0.95062  0.39014  0.44498000000000004  1.0000
  O   O55       1.0  0.08139999999999999  0.8698699999999998  0.31812  1.0000
  O   O56       1.0  0.0038499999999999806  0.7612599999999998  0.84078  1.0000
  O   O57       1.0  0.53857  0.71838  0.37603  1.0000
  O   O58       1.0  0.10573999999999999  0.4203499999999999  0.53843  1.0000
  O   O59       1.0  0.05075000000000002  0.10846999999999997  0.94236  1.0000
  O   O60       1.0  0.5392800000000001  0.21617  0.12376999999999999  1.0000
  O   O61       1.0  0.07048  0.11234  0.75338  1.0000
  O   O62       1.0  0.07016  0.61441  0.74656  1.0000
  O   O63       1.0  0.7226  0.93999  0.64147  1.0000
  O   O64       1.0  0.10495000000000002  0.53746  0.42998999999999993  1.0000
  O   O65       1.0  0.44961000000000007  0.16857999999999995  0.03513  1.0000
  O   O66       1.0  0.9295200000000002  0.52722  0.66829  1.0000
  O   O67       1.0  0.87516  0.06030999999999999  0.14617  1.0000
  O   O68       1.0  0.4405900000000001  0.5888199999999998  0.15907  1.0000
  O   O69       1.0  0.08155000000000001  0.3675799999999999  0.18171  1.0000
  O   O70       1.0  0.8951100000000001  0.96156  0.9307  1.0000
  O   O71       1.0  0.72047  0.44576  0.8600100000000002  1.0000
  O   O72       1.0  0.9304600000000002  0.02549  0.83216  1.0000
