data_image0
_chemical_formula_structural       Ag16H96C64N48
_chemical_formula_sum              "Ag16 H96 C64 N48"
_cell_length_a       11.70938
_cell_length_b       11.99572
_cell_length_c       21.40544
_cell_angle_alpha    89.99890000000002
_cell_angle_beta     90.00446
_cell_angle_gamma    115.32159

_symmetry_space_group_name_H-M    'P 1'
_symmetry_Int_Tables_number       1

loop_
  _symmetry_equiv_pos_as_xyz
  'x,y,z'

loop_
  _atom_site_type_symbol
  _atom_site_label
  _atom_site_symmetry_multiplicity
  _atom_site_fract_x
  _atom_site_fract_y
  _atom_site_fract_z
  _atom_site_occupancy
  Ag  Ag1       1.0  0.46772  0.41606000000000004  0.81386  1.0000
  Ag  Ag2       1.0  0.6492200000000001  0.31916  0.94693  1.0000
  Ag  Ag3       1.0  0.5507  0.091  0.81336  1.0000
  Ag  Ag4       1.0  0.36268000000000006  0.18638000000000005  0.94721  1.0000
  Ag  Ag5       1.0  0.032240000000000026  0.58389  0.31376  1.0000
  Ag  Ag6       1.0  0.8508200000000001  0.68084  0.44692  1.0000
  Ag  Ag7       1.0  0.9492800000000001  0.9089900000000001  0.3133  1.0000
  Ag  Ag8       1.0  0.13739000000000007  0.8137400000000001  0.44712  1.0000
  Ag  Ag9       1.0  0.53229  0.58395  0.18614  1.0000
  Ag  Ag10      1.0  0.35079  0.68085  0.05307  1.0000
  Ag  Ag11      1.0  0.4493100000000001  0.90901  0.18664  1.0000
  Ag  Ag12      1.0  0.63733  0.81363  0.05279  1.0000
  Ag  Ag13      1.0  0.9677700000000001  0.41612000000000005  0.68624  1.0000
  Ag  Ag14      1.0  0.14919000000000002  0.31918  0.55308  1.0000
  Ag  Ag15      1.0  0.05073000000000001  0.09102  0.6867  1.0000
  Ag  Ag16      1.0  0.8626200000000002  0.18627  0.55288  1.0000
  H   H1        1.0  0.6994300000000001  0.46515  0.70493  1.0000
  H   H2        1.0  0.85322  0.25423  0.87781  1.0000
  H   H3        1.0  0.9600500000000001  0.31708  0.81503  1.0000
  H   H4        1.0  0.06464000000000003  0.4112700000000001  0.9166099999999999  1.0000
  H   H5        1.0  0.9436700000000002  0.45926000000000006  0.93288  1.0000
  H   H6        1.0  0.04906999999999998  0.52649  0.8696799999999999  1.0000
  H   H7        1.0  0.63163  0.88141  0.89885  1.0000
  H   H8        1.0  0.64045  0.19580000000000006  0.07227  1.0000
  H   H9        1.0  0.63419  0.056790000000000014  0.10384  1.0000
  H   H10       1.0  0.83798  0.23229000000000002  0.13397  1.0000
  H   H11       1.0  0.87423  0.2728  0.05406  1.0000
  H   H12       1.0  0.8685100000000002  0.13141000000000003  0.08319  1.0000
  H   H13       1.0  0.31915  0.03988  0.70495  1.0000
  H   H14       1.0  0.16499000000000003  0.25265000000000004  0.8769  1.0000
  H   H15       1.0  0.05980000000000002  0.19137000000000004  0.8133699999999999  1.0000
  H   H16       1.0  0.9521100000000002  0.09711000000000003  0.9142000000000001  1.0000
  H   H17       1.0  0.9670100000000001  0.9815500000000001  0.86728  1.0000
  H   H18       1.0  0.07105  0.04669  0.93121  1.0000
  H   H19       1.0  0.39325  0.6295  0.8999899999999998  1.0000
  H   H20       1.0  0.3314100000000001  0.43044000000000004  0.10301  1.0000
  H   H21       1.0  0.33858000000000005  0.29671000000000003  0.07195  1.0000
  H   H22       1.0  0.12213000000000002  0.24942  0.11707  1.0000
  H   H23       1.0  0.10604000000000004  0.35457000000000005  0.06356  1.0000
  H   H24       1.0  0.11307000000000006  0.21789000000000003  0.03559  1.0000
  H   H25       1.0  0.8003  0.53484  0.20491000000000004  1.0000
  H   H26       1.0  0.64671  0.7457600000000002  0.37784  1.0000
  H   H27       1.0  0.5398400000000001  0.6829100000000001  0.31508  1.0000
  H   H28       1.0  0.43529  0.5887600000000001  0.41666  1.0000
  H   H29       1.0  0.5562600000000002  0.5407700000000001  0.43294  1.0000
  H   H30       1.0  0.45081000000000004  0.47350000000000003  0.36975  1.0000
  H   H31       1.0  0.8684300000000001  0.11869000000000002  0.39885999999999994  1.0000
  H   H32       1.0  0.8595900000000002  0.80417  0.57226  1.0000
  H   H33       1.0  0.86584  0.9431800000000002  0.60382  1.0000
  H   H34       1.0  0.6621200000000002  0.7676800000000001  0.63397  1.0000
  H   H35       1.0  0.62577  0.72714  0.55408  1.0000
  H   H36       1.0  0.6315000000000001  0.86853  0.5832  1.0000
  H   H37       1.0  0.18094000000000007  0.9603400000000001  0.20486  1.0000
  H   H38       1.0  0.33509000000000005  0.74747  0.37682  1.0000
  H   H39       1.0  0.44033000000000017  0.8087600000000003  0.31332  1.0000
  H   H40       1.0  0.5479100000000001  0.9029300000000002  0.41418  1.0000
  H   H41       1.0  0.5331  0.01856  0.36729  1.0000
  H   H42       1.0  0.42900000000000016  0.9533600000000001  0.43118  1.0000
  H   H43       1.0  0.10656000000000003  0.37047  0.39999999999999997  1.0000
  H   H44       1.0  0.16874  0.5696  0.60296  1.0000
  H   H45       1.0  0.16155  0.70334  0.57193  1.0000
  H   H46       1.0  0.37797  0.75061  0.61705  1.0000
  H   H47       1.0  0.3941000000000001  0.6455  0.56354  1.0000
  H   H48       1.0  0.38708000000000004  0.78218  0.53557  1.0000
  H   H49       1.0  0.30058  0.53486  0.29507  1.0000
  H   H50       1.0  0.14679000000000014  0.7457900000000002  0.12219  1.0000
  H   H51       1.0  0.03997000000000002  0.68293  0.18497  1.0000
  H   H52       1.0  0.9353700000000001  0.5887400000000002  0.08339  1.0000
  H   H53       1.0  0.056350000000000025  0.54075  0.06712  1.0000
  H   H54       1.0  0.9509400000000002  0.47352000000000005  0.13032  1.0000
  H   H55       1.0  0.36838  0.11860000000000002  0.10114999999999999  1.0000
  H   H56       1.0  0.35957000000000006  0.8042100000000001  0.92773  1.0000
  H   H57       1.0  0.3658200000000001  0.9432200000000001  0.89616  1.0000
  H   H58       1.0  0.16203  0.76772  0.86603  1.0000
  H   H59       1.0  0.12578000000000006  0.7272100000000001  0.9459399999999999  1.0000
  H   H60       1.0  0.13150000000000014  0.8686000000000001  0.9168099999999999  1.0000
  H   H61       1.0  0.6808700000000002  0.9601400000000002  0.29505  1.0000
  H   H62       1.0  0.8350200000000002  0.7473600000000001  0.1231  1.0000
  H   H63       1.0  0.9402100000000002  0.80864  0.18663  1.0000
  H   H64       1.0  0.04790000000000008  0.9029000000000003  0.0858  1.0000
  H   H65       1.0  0.03301  0.018460000000000004  0.13272  1.0000
  H   H66       1.0  0.9289700000000004  0.9533300000000001  0.06879  1.0000
  H   H67       1.0  0.6067600000000001  0.37052000000000007  0.10001  1.0000
  H   H68       1.0  0.6686  0.56958  0.8969899999999998  1.0000
  H   H69       1.0  0.66143  0.7033  0.9280499999999999  1.0000
  H   H70       1.0  0.8778800000000002  0.7505900000000001  0.88293  1.0000
  H   H71       1.0  0.8939700000000002  0.6454400000000001  0.93644  1.0000
  H   H72       1.0  0.8869500000000001  0.78212  0.96441  1.0000
  H   H73       1.0  0.19971000000000003  0.46517000000000003  0.79509  1.0000
  H   H74       1.0  0.35330000000000006  0.25425  0.62216  1.0000
  H   H75       1.0  0.46017  0.31710000000000005  0.68492  1.0000
  H   H76       1.0  0.5647200000000002  0.41125  0.58333  1.0000
  H   H77       1.0  0.44376000000000015  0.4592500000000001  0.56706  1.0000
  H   H78       1.0  0.5492000000000001  0.52651  0.63025  1.0000
  H   H79       1.0  0.13157999999999997  0.8813200000000001  0.60114  1.0000
  H   H80       1.0  0.14042000000000004  0.19584  0.42774000000000006  1.0000
  H   H81       1.0  0.13418  0.05683  0.3961799999999999  1.0000
  H   H82       1.0  0.3378900000000001  0.23233000000000004  0.36603  1.0000
  H   H83       1.0  0.37424  0.27287  0.44592  1.0000
  H   H84       1.0  0.36851000000000006  0.13148  0.41680000000000006  1.0000
  H   H85       1.0  0.8190800000000001  0.03967  0.7951399999999998  1.0000
  H   H86       1.0  0.66492  0.25254  0.62318  1.0000
  H   H87       1.0  0.55968  0.19125000000000006  0.68668  1.0000
  H   H88       1.0  0.45210000000000017  0.09708000000000003  0.58582  1.0000
  H   H89       1.0  0.4669100000000001  0.98145  0.63271  1.0000
  H   H90       1.0  0.5710100000000001  0.04665  0.56882  1.0000
  H   H91       1.0  0.89346  0.62954  0.6  1.0000
  H   H92       1.0  0.8312700000000002  0.43041000000000007  0.39704  1.0000
  H   H93       1.0  0.8384600000000002  0.29667  0.42807  1.0000
  H   H94       1.0  0.6220400000000001  0.24940000000000004  0.38295  1.0000
  H   H95       1.0  0.60591  0.35452  0.43646  1.0000
  H   H96       1.0  0.61294  0.21783000000000005  0.46442  1.0000
  C   C1        1.0  0.81406  0.37418000000000007  0.8184099999999999  1.0000
  C   C2        1.0  0.7225600000000001  0.43447000000000013  0.74874  1.0000
  C   C3        1.0  0.9062500000000001  0.33912  0.8512  1.0000
  C   C4        1.0  0.9962900000000002  0.43999  0.89507  1.0000
  C   C5        1.0  0.66115  0.07670000000000002  0.00589  1.0000
  C   C6        1.0  0.6398400000000001  0.9590400000000001  0.9274399999999999  1.0000
  C   C7        1.0  0.6835100000000001  0.13051  0.06988  1.0000
  C   C8        1.0  0.82455  0.19575  0.08617  1.0000
  C   C9        1.0  0.20453  0.13266  0.8176899999999999  1.0000
  C   C10       1.0  0.29605  0.07125000000000001  0.7485299999999999  1.0000
  C   C11       1.0  0.11215000000000003  0.16828  0.84989  1.0000
  C   C12       1.0  0.020120000000000006  0.06744000000000001  0.8931000000000001  1.0000
  C   C13       1.0  0.3354700000000001  0.42239  0.00413  1.0000
  C   C14       1.0  0.37727  0.5487  0.9277699999999999  1.0000
  C   C15       1.0  0.29483  0.36084  0.06586  1.0000
  C   C16       1.0  0.15045000000000006  0.29144000000000003  0.07075  1.0000
  C   C17       1.0  0.6857900000000002  0.62576  0.31843  1.0000
  C   C18       1.0  0.77726  0.56552  0.24873999999999996  1.0000
  C   C19       1.0  0.5936300000000001  0.6608600000000001  0.35125  1.0000
  C   C20       1.0  0.5036100000000001  0.5600200000000001  0.39513  1.0000
  C   C21       1.0  0.8389000000000001  0.9232800000000002  0.50586  1.0000
  C   C22       1.0  0.8602500000000002  0.041040000000000014  0.4274299999999999  1.0000
  C   C23       1.0  0.8165200000000002  0.8694700000000001  0.56985  1.0000
  C   C24       1.0  0.6754900000000001  0.8042100000000001  0.58616  1.0000
  C   C25       1.0  0.29557000000000005  0.8674500000000002  0.31758  1.0000
  C   C26       1.0  0.20402000000000012  0.9288700000000002  0.24843  1.0000
  C   C27       1.0  0.3879400000000001  0.83184  0.34982  1.0000
  C   C28       1.0  0.4799400000000001  0.93264  0.39307  1.0000
  C   C29       1.0  0.16463000000000005  0.5776800000000001  0.5041  1.0000
  C   C30       1.0  0.12261  0.45127  0.42777  1.0000
  C   C31       1.0  0.20532000000000006  0.63922  0.56583  1.0000
  C   C32       1.0  0.34968  0.70862  0.57073  1.0000
  C   C33       1.0  0.18595  0.62583  0.18159  1.0000
  C   C34       1.0  0.27745  0.56555  0.25126  1.0000
  C   C35       1.0  0.09376000000000007  0.6608900000000001  0.1488  1.0000
  C   C36       1.0  0.003720000000000018  0.5600200000000001  0.10493  1.0000
  C   C37       1.0  0.33886  0.92331  0.99411  1.0000
  C   C38       1.0  0.36017000000000005  0.04097000000000001  0.07256  1.0000
  C   C39       1.0  0.31650000000000006  0.8695  0.9301199999999998  1.0000
  C   C40       1.0  0.17546000000000012  0.80426  0.9138300000000001  1.0000
  C   C41       1.0  0.7954900000000003  0.8673600000000001  0.18231  1.0000
  C   C42       1.0  0.7039600000000001  0.92876  0.25147  1.0000
  C   C43       1.0  0.88786  0.8317300000000001  0.15011  1.0000
  C   C44       1.0  0.97989  0.93257  0.1069  1.0000
  C   C45       1.0  0.66454  0.57763  0.99587  1.0000
  C   C46       1.0  0.6227500000000001  0.4513100000000001  0.07223  1.0000
  C   C47       1.0  0.70519  0.63917  0.93414  1.0000
  C   C48       1.0  0.8495600000000002  0.7085700000000001  0.92925  1.0000
  C   C49       1.0  0.31422  0.37425  0.68157  1.0000
  C   C50       1.0  0.22275000000000006  0.43449000000000004  0.75126  1.0000
  C   C51       1.0  0.40638  0.33915  0.64875  1.0000
  C   C52       1.0  0.49640000000000006  0.43999  0.60487  1.0000
  C   C53       1.0  0.16111000000000003  0.07673000000000002  0.49414  1.0000
  C   C54       1.0  0.13976000000000005  0.95897  0.57257  1.0000
  C   C55       1.0  0.18349  0.13054  0.43015  1.0000
  C   C56       1.0  0.32452  0.19580000000000006  0.4138299999999999  1.0000
  C   C57       1.0  0.7044400000000001  0.13256000000000004  0.68242  1.0000
  C   C58       1.0  0.7959900000000001  0.07114000000000001  0.7515700000000001  1.0000
  C   C59       1.0  0.61207  0.16817000000000001  0.65018  1.0000
  C   C60       1.0  0.52007  0.06737000000000001  0.60693  1.0000
  C   C61       1.0  0.83538  0.42233  0.49589  1.0000
  C   C62       1.0  0.8774100000000001  0.54874  0.57223  1.0000
  C   C63       1.0  0.7946900000000002  0.36079  0.43417  1.0000
  C   C64       1.0  0.65033  0.2914  0.42927  1.0000
  N   N1        1.0  0.70883  0.3711400000000001  0.84473  1.0000
  N   N2        1.0  0.6496800000000001  0.41031  0.79967  1.0000
  N   N3        1.0  0.8263200000000003  0.4139200000000001  0.7581  1.0000
  N   N4        1.0  0.6475400000000001  0.13544000000000003  0.9551899999999999  1.0000
  N   N5        1.0  0.63386  0.059800000000000006  0.90449  1.0000
  N   N6        1.0  0.6567400000000001  0.96484  0.9903  1.0000
  N   N7        1.0  0.31025000000000014  0.13711  0.8440899999999999  1.0000
  N   N8        1.0  0.36937  0.09716  0.7993899999999999  1.0000
  N   N9        1.0  0.19197  0.0913  0.75771  1.0000
  N   N10       1.0  0.3616700000000001  0.36896  0.95465  1.0000
  N   N11       1.0  0.38848000000000005  0.45011  0.9052800000000001  1.0000
  N   N12       1.0  0.3444000000000001  0.5361500000000001  0.9890900000000001  1.0000
  N   N13       1.0  0.7910000000000003  0.6287300000000001  0.34476  1.0000
  N   N14       1.0  0.85015  0.58959  0.29967  1.0000
  N   N15       1.0  0.6735300000000002  0.5861000000000001  0.2581  1.0000
  N   N16       1.0  0.8525000000000003  0.86459  0.45514  1.0000
  N   N17       1.0  0.86621  0.9402900000000001  0.40444  1.0000
  N   N18       1.0  0.8433600000000002  0.03520000000000001  0.49029  1.0000
  N   N19       1.0  0.18982  0.86295  0.34396  1.0000
  N   N20       1.0  0.13068000000000007  0.90291  0.29928  1.0000
  N   N21       1.0  0.30811  0.90883  0.25759  1.0000
  N   N22       1.0  0.13844000000000012  0.6311200000000001  0.45461  1.0000
  N   N23       1.0  0.11146000000000003  0.5499  0.40529  1.0000
  N   N24       1.0  0.15557000000000004  0.4638600000000001  0.48908  1.0000
  N   N25       1.0  0.29118000000000005  0.6288700000000002  0.15527  1.0000
  N   N26       1.0  0.35033  0.5897  0.20032999999999998  1.0000
  N   N27       1.0  0.1736900000000001  0.5860900000000001  0.24190000000000003  1.0000
  N   N28       1.0  0.35247000000000017  0.8645700000000001  0.04481  1.0000
  N   N29       1.0  0.36615000000000014  0.9402100000000002  0.09551  1.0000
  N   N30       1.0  0.34327  0.03517  0.0097  1.0000
  N   N31       1.0  0.68976  0.8629  0.15591  1.0000
  N   N32       1.0  0.63064  0.90285  0.20061  1.0000
  N   N33       1.0  0.8080400000000002  0.9087200000000001  0.24229  1.0000
  N   N34       1.0  0.63834  0.63105  0.04535  1.0000
  N   N35       1.0  0.61153  0.5499  0.09471999999999998  1.0000
  N   N36       1.0  0.65561  0.4638600000000001  0.01091  1.0000
  N   N37       1.0  0.2090100000000001  0.3712800000000001  0.65524  1.0000
  N   N38       1.0  0.14986  0.41042  0.70033  1.0000
  N   N39       1.0  0.3264900000000001  0.4139200000000001  0.7419  1.0000
  N   N40       1.0  0.14751000000000006  0.13542  0.54486  1.0000
  N   N41       1.0  0.1338  0.059720000000000016  0.59555  1.0000
  N   N42       1.0  0.15665  0.96481  0.50971  1.0000
  N   N43       1.0  0.81019  0.13706000000000002  0.65604  1.0000
  N   N44       1.0  0.8693300000000003  0.0971  0.70072  1.0000
  N   N45       1.0  0.6919  0.09118  0.74241  1.0000
  N   N46       1.0  0.8615700000000002  0.36889000000000005  0.54539  1.0000
  N   N47       1.0  0.8885500000000002  0.45011  0.59471  1.0000
  N   N48       1.0  0.8444400000000001  0.5361500000000001  0.51092  1.0000
