data_image0
_chemical_formula_structural       Na2Cd6H64C104N8Cl2O24
_chemical_formula_sum              "Na2 Cd6 H64 C104 N8 Cl2 O24"
_cell_length_a       10.14774
_cell_length_b       18.65772
_cell_length_c       20.36661
_cell_angle_alpha    89.83503
_cell_angle_beta     85.03032
_cell_angle_gamma    87.67197

_space_group_name_H-M_alt    "P 1"
_space_group_IT_number       1

loop_
  _space_group_symop_operation_xyz
  'x, y, z'

loop_
  _atom_site_type_symbol
  _atom_site_label
  _atom_site_symmetry_multiplicity
  _atom_site_fract_x
  _atom_site_fract_y
  _atom_site_fract_z
  _atom_site_occupancy
  Na  Na1       1.0  0.9001900000000003  0.7092699999999997  0.88968  1.0000
  Na  Na2       1.0  0.09984999999999998  0.29074  0.11031000000000002  1.0000
  Cd  Cd1       1.0  0.8943600000000002  0.54373  0.95895  1.0000
  Cd  Cd2       1.0  0.39829999999999993  0.95565  0.45452  1.0000
  Cd  Cd3       1.0  0.10557000000000001  0.4563999999999999  0.04142  1.0000
  Cd  Cd4       1.0  0.6007  0.04432  0.54649  1.0000
  Cd  Cd5       1.0  0.88267  0.96273  0.0176  1.0000
  Cd  Cd6       1.0  0.11732999999999998  0.037279999999999994  0.98238  1.0000
  H   H1        1.0  0.10293999999999999  0.60761  0.20317999999999997  1.0000
  H   H2        1.0  0.08703999999999998  0.70114  0.29139  1.0000
  H   H3        1.0  0.80652  0.8241699999999997  0.18594  1.0000
  H   H4        1.0  0.82615  0.7319999999999998  0.09715  1.0000
  H   H5        1.0  0.72058  0.8362499999999999  0.30602  1.0000
  H   H6        1.0  0.9164700000000001  0.96489  0.4379  1.0000
  H   H7        1.0  0.1477  0.82019  0.30621  1.0000
  H   H8        1.0  0.35261  0.76342  0.59254  1.0000
  H   H9        1.0  0.31932  0.67844  0.68766  1.0000
  H   H10       1.0  0.5458  0.8127699999999999  0.80306  1.0000
  H   H11       1.0  0.57804  0.8967599999999999  0.70707  1.0000
  H   H12       1.0  0.20948000000000006  0.67636  0.80497  1.0000
  H   H13       1.0  0.3935  0.5493899999999999  0.95053  1.0000
  H   H14       1.0  0.62827  0.6863499999999999  0.8210599999999999  1.0000
  H   H15       1.0  0.8968299999999999  0.39293  0.79716  1.0000
  H   H16       1.0  0.91161  0.29926  0.70908  1.0000
  H   H17       1.0  0.19215999999999997  0.17594  0.8143200000000002  1.0000
  H   H18       1.0  0.17362000000000002  0.2683  0.90295  1.0000
  H   H19       1.0  0.2778500000000001  0.16343  0.6955  1.0000
  H   H20       1.0  0.08359  0.03507  0.5627  1.0000
  H   H21       1.0  0.8511  0.18005  0.6936  1.0000
  H   H22       1.0  0.6475  0.23666  0.40829  1.0000
  H   H23       1.0  0.68121  0.32118  0.31296  1.0000
  H   H24       1.0  0.45447999999999994  0.18654  0.19782  1.0000
  H   H25       1.0  0.42246  0.10302  0.29406  1.0000
  H   H26       1.0  0.79067  0.3234999999999999  0.19534  1.0000
  H   H27       1.0  0.60642  0.45031999999999994  0.04979  1.0000
  H   H28       1.0  0.37170000000000003  0.31343  0.17933  1.0000
  H   H29       1.0  0.45722000000000007  0.39002  0.85433  1.0000
  H   H30       1.0  0.53442  0.44425  0.91202  1.0000
  H   H31       1.0  0.38441  0.40072  0.9371300000000001  1.0000
  H   H32       1.0  0.7198599999999999  0.39324999999999993  0.9427  1.0000
  H   H33       1.0  0.85617  0.28734  0.97531  1.0000
  H   H34       1.0  0.5270700000000001  0.15505  0.9423799999999999  1.0000
  H   H35       1.0  0.40175000000000005  0.26571  0.91242  1.0000
  H   H36       1.0  0.7574500000000001  0.24063999999999997  0.08688  1.0000
  H   H37       1.0  0.87989  0.18863999999999997  0.19035  1.0000
  H   H38       1.0  0.73104  0.16059  0.83839  1.0000
  H   H39       1.0  0.85126  0.05945999999999999  0.76183  1.0000
  H   H40       1.0  0.78792  0.08114  0.25447  1.0000
  H   H41       1.0  0.7924499999999999  0.10594  0.37424  1.0000
  H   H42       1.0  0.21593  0.05902  0.24214  1.0000
  H   H43       1.0  0.20489000000000002  0.08751  0.36203  1.0000
  H   H44       1.0  0.9006400000000001  0.13904  0.45993  1.0000
  H   H45       1.0  0.01307  0.06347  0.46743  1.0000
  H   H46       1.0  0.07677  0.15  0.45092  1.0000
  H   H47       1.0  0.54277  0.6099899999999999  0.14568  1.0000
  H   H48       1.0  0.46557  0.5557499999999999  0.08799  1.0000
  H   H49       1.0  0.61559  0.5992699999999997  0.06289  1.0000
  H   H50       1.0  0.28014000000000006  0.6067599999999997  0.05730999999999999  1.0000
  H   H51       1.0  0.14384000000000005  0.71266  0.024680000000000004  1.0000
  H   H52       1.0  0.47291999999999995  0.84495  0.05762  1.0000
  H   H53       1.0  0.59825  0.7343  0.08758  1.0000
  H   H54       1.0  0.24254999999999993  0.75936  0.9131200000000002  1.0000
  H   H55       1.0  0.12013000000000006  0.8113799999999998  0.8096399999999999  1.0000
  H   H56       1.0  0.26893  0.8394  0.16161  1.0000
  H   H57       1.0  0.14871000000000006  0.94054  0.23817  1.0000
  H   H58       1.0  0.21212  0.9188199999999999  0.74554  1.0000
  H   H59       1.0  0.20756000000000008  0.8937999999999998  0.62579  1.0000
  H   H60       1.0  0.7841100000000002  0.94101  0.75787  1.0000
  H   H61       1.0  0.79512  0.91241  0.638  1.0000
  H   H62       1.0  0.09938999999999996  0.8608799999999999  0.54009  1.0000
  H   H63       1.0  0.9869700000000003  0.9364599999999998  0.53269  1.0000
  H   H64       1.0  0.9232300000000001  0.84993  0.54908  1.0000
  C   C1        1.0  0.97318  0.60612  0.09391  1.0000
  C   C2        1.0  0.96353  0.6631599999999999  0.14549  1.0000
  C   C3        1.0  0.03905000000000002  0.6554399999999998  0.1999  1.0000
  C   C4        1.0  0.03006  0.7076  0.24877  1.0000
  C   C5        1.0  0.9444300000000001  0.76845  0.24505  1.0000
  C   C6        1.0  0.8700600000000001  0.77629  0.19015  1.0000
  C   C7        1.0  0.8802  0.72453  0.14066  1.0000
  C   C8        1.0  0.93544  0.82272  0.29783  1.0000
  C   C9        1.0  0.81288  0.8531499999999999  0.32343  1.0000
  C   C10       1.0  0.8069800000000001  0.90363  0.37434  1.0000
  C   C11       1.0  0.92378  0.9253899999999999  0.39855  1.0000
  C   C12       1.0  0.04630999999999999  0.89518  0.37386  1.0000
  C   C13       1.0  0.051200000000000016  0.84322  0.32434  1.0000
  C   C14       1.0  0.17243  0.9166999999999998  0.39979  1.0000
  C   C15       1.0  0.6767900000000003  0.9329199999999999  0.40619000000000005  1.0000
  C   C16       1.0  0.49374000000000007  0.88348  0.58568  1.0000
  C   C17       1.0  0.4698800000000001  0.834  0.64393  1.0000
  C   C18       1.0  0.39385000000000003  0.77344  0.63907  1.0000
  C   C19       1.0  0.37494000000000005  0.7266199999999999  0.69218  1.0000
  C   C20       1.0  0.4327800000000001  0.73933  0.75106  1.0000
  C   C21       1.0  0.50554  0.80127  0.75655  1.0000
  C   C22       1.0  0.52328  0.84819  0.70352  1.0000
  C   C23       1.0  0.42069  0.6875299999999999  0.8058  1.0000
  C   C24       1.0  0.29869  0.65938  0.8276900000000001  1.0000
  C   C25       1.0  0.2882799999999999  0.6118  0.8808700000000002  1.0000
  C   C26       1.0  0.40195  0.58782  0.91026  1.0000
  C   C27       1.0  0.52452  0.6151999999999997  0.88865  1.0000
  C   C28       1.0  0.53245  0.66571  0.83765  1.0000
  C   C29       1.0  0.64778  0.59065  0.9183  1.0000
  C   C30       1.0  0.15544  0.58982  0.9094500000000001  1.0000
  C   C31       1.0  0.026750000000000003  0.39405  0.9064700000000001  1.0000
  C   C32       1.0  0.03609000000000001  0.33716999999999997  0.85475  1.0000
  C   C33       1.0  0.96036  0.34497  0.80043  1.0000
  C   C34       1.0  0.9687899999999998  0.29273  0.75163  1.0000
  C   C35       1.0  0.05413000000000002  0.23176999999999998  0.75536  1.0000
  C   C36       1.0  0.12879999999999997  0.22389999999999996  0.8101500000000001  1.0000
  C   C37       1.0  0.11924000000000004  0.27574  0.85955  1.0000
  C   C38       1.0  0.06318000000000001  0.17741999999999997  0.70267  1.0000
  C   C39       1.0  0.18587  0.14667  0.67765  1.0000
  C   C40       1.0  0.19241  0.0961  0.62679  1.0000
  C   C41       1.0  0.07596  0.07453  0.6021  1.0000
  C   C42       1.0  0.9532700000000001  0.10486  0.62639  1.0000
  C   C43       1.0  0.94778  0.15698  0.6758  1.0000
  C   C44       1.0  0.82749  0.08321  0.60025  1.0000
  C   C45       1.0  0.32297  0.06674  0.59543  1.0000
  C   C46       1.0  0.50524  0.11639999999999999  0.41518  1.0000
  C   C47       1.0  0.5299499999999999  0.16604999999999998  0.35706  1.0000
  C   C48       1.0  0.6062699999999999  0.22651999999999997  0.36178  1.0000
  C   C49       1.0  0.62537  0.2731  0.30847  1.0000
  C   C50       1.0  0.56745  0.26041999999999993  0.24956000000000003  1.0000
  C   C51       1.0  0.49485999999999997  0.19838  0.24423  1.0000
  C   C52       1.0  0.47705  0.15166  0.29738  1.0000
  C   C53       1.0  0.57937  0.31223  0.1947  1.0000
  C   C54       1.0  0.70136  0.3403799999999999  0.17266  1.0000
  C   C55       1.0  0.71174  0.3879199999999999  0.11943  1.0000
  C   C56       1.0  0.59802  0.41189999999999993  0.09008  1.0000
  C   C57       1.0  0.47546000000000005  0.3845499999999999  0.11172000000000001  1.0000
  C   C58       1.0  0.46757  0.33404  0.16277  1.0000
  C   C59       1.0  0.35228  0.40917  0.08193  1.0000
  C   C60       1.0  0.8445000000000001  0.4100699999999999  0.09078  1.0000
  C   C61       1.0  0.47796000000000005  0.39625999999999995  0.90588  1.0000
  C   C62       1.0  0.6818499999999998  0.33958  0.94429  1.0000
  C   C63       1.0  0.7558399999999998  0.28002  0.9623399999999999  1.0000
  C   C64       1.0  0.7056100000000001  0.21082  0.96036  1.0000
  C   C65       1.0  0.57466  0.20627  0.94217  1.0000
  C   C66       1.0  0.50305  0.26701  0.92574  1.0000
  C   C67       1.0  0.78506  0.1453  0.97444  1.0000
  C   C68       1.0  0.82983  0.13758  0.03901000000000001  1.0000
  C   C69       1.0  0.8123000000000001  0.18988  0.08926  1.0000
  C   C70       1.0  0.8769399999999999  0.16316  0.14273  1.0000
  C   C71       1.0  0.92965  0.09364999999999998  0.12522  1.0000
  C   C72       1.0  0.81754  0.09915  0.92126  1.0000
  C   C73       1.0  0.78687  0.11403999999999997  0.85441  1.0000
  C   C74       1.0  0.84795  0.06166  0.81505  1.0000
  C   C75       1.0  0.9163100000000001  0.01209  0.8566099999999999  1.0000
  C   C76       1.0  0.0056900000000000015  0.04783  0.16633  1.0000
  C   C77       1.0  0.0024700000000000043  0.06619  0.23651  1.0000
  C   C78       1.0  0.88267  0.08244  0.27561  1.0000
  C   C79       1.0  0.88273  0.09747999999999997  0.34188  1.0000
  C   C80       1.0  0.12001  0.06901  0.26936  1.0000
  C   C81       1.0  0.11634999999999997  0.08556999999999998  0.33542  1.0000
  C   C82       1.0  0.9967600000000001  0.11456  0.44222  1.0000
  C   C83       1.0  0.52203  0.6037399999999998  0.09413  1.0000
  C   C84       1.0  0.31814  0.66043  0.05571  1.0000
  C   C85       1.0  0.24415  0.71998  0.03766  1.0000
  C   C86       1.0  0.2943800000000001  0.7891799999999999  0.03964000000000001  1.0000
  C   C87       1.0  0.42534000000000005  0.7937299999999998  0.057830000000000006  1.0000
  C   C88       1.0  0.49695  0.73299  0.07426  1.0000
  C   C89       1.0  0.21494000000000002  0.8547  0.025550000000000003  1.0000
  C   C90       1.0  0.17017  0.8624199999999999  0.96099  1.0000
  C   C91       1.0  0.18769000000000002  0.8101199999999998  0.9107400000000001  1.0000
  C   C92       1.0  0.12306000000000003  0.83684  0.85727  1.0000
  C   C93       1.0  0.07037000000000006  0.9063499999999999  0.8747799999999999  1.0000
  C   C94       1.0  0.18246  0.90086  0.07874000000000002  1.0000
  C   C95       1.0  0.21312000000000003  0.8859599999999999  0.14559  1.0000
  C   C96       1.0  0.15204999999999996  0.9383399999999998  0.18495  1.0000
  C   C97       1.0  0.08372000000000002  0.9879199999999999  0.14338  1.0000
  C   C98       1.0  0.99435  0.9521799999999999  0.8336699999999999  1.0000
  C   C99       1.0  0.9975700000000002  0.9337899999999999  0.76349  1.0000
  C   C100      1.0  0.11735999999999999  0.9174899999999999  0.72441  1.0000
  C   C101      1.0  0.11728999999999998  0.90235  0.65815  1.0000
  C   C102      1.0  0.8800300000000001  0.9309699999999999  0.73066  1.0000
  C   C103      1.0  0.8836699999999998  0.9143299999999999  0.6646  1.0000
  C   C104      1.0  0.0032599999999999947  0.88533  0.55783  1.0000
  N   N1        1.0  0.9015199999999999  0.07777  0.06109  1.0000
  N   N2        1.0  0.89871  0.03641  0.92197  1.0000
  N   N3        1.0  0.9985300000000001  0.10034  0.37109  1.0000
  N   N4        1.0  0.55661  0.33287  0.926  1.0000
  N   N5        1.0  0.09847999999999997  0.92223  0.93891  1.0000
  N   N6        1.0  0.10131999999999997  0.9636  0.07803  1.0000
  N   N7        1.0  0.001490000000000011  0.8994799999999998  0.62896  1.0000
  N   N8        1.0  0.44340000000000007  0.66714  0.074  1.0000
  Cl  Cl1       1.0  0.76593  0.85261  0.013790000000000002  1.0000
  Cl  Cl2       1.0  0.23402999999999993  0.14741  0.98622  1.0000
  O   O1        1.0  0.6534000000000001  0.53083  0.94785  1.0000
  O   O2        1.0  0.74723  0.63161  0.9122500000000001  1.0000
  O   O3        1.0  0.15240999999999996  0.54572  0.9569900000000001  1.0000
  O   O4        1.0  0.05117000000000001  0.6176799999999999  0.88664  1.0000
  O   O5        1.0  0.4245700000000001  0.87302  0.53782  1.0000
  O   O6        1.0  0.58086  0.9300099999999999  0.59085  1.0000
  O   O7        1.0  0.16647000000000003  0.9679999999999999  0.442  1.0000
  O   O8        1.0  0.2797799999999999  0.8835999999999999  0.37965  1.0000
  O   O9        1.0  0.6807299999999998  0.9860099999999999  0.44468  1.0000
  O   O10       1.0  0.57289  0.90211  0.39266  1.0000
  O   O11       1.0  0.90122  0.6153999999999997  0.04561  1.0000
  O   O12       1.0  0.05349  0.55303  0.10271  1.0000
  O   O13       1.0  0.3467  0.4690099999999999  0.05234  1.0000
  O   O14       1.0  0.25284  0.36821  0.08785  1.0000
  O   O15       1.0  0.8474199999999998  0.45426999999999995  0.04335  1.0000
  O   O16       1.0  0.94895  0.38227  0.11347000000000002  1.0000
  O   O17       1.0  0.57248  0.12701  0.46379  1.0000
  O   O18       1.0  0.41915  0.06952999999999998  0.40911000000000003  1.0000
  O   O19       1.0  0.83356  0.03179  0.55821  1.0000
  O   O20       1.0  0.72005  0.11639  0.6202400000000001  1.0000
  O   O21       1.0  0.31935  0.014539999999999999  0.55584  1.0000
  O   O22       1.0  0.4268700000000001  0.09655  0.6104  1.0000
  O   O23       1.0  0.09900000000000002  0.38464  0.95462  1.0000
  O   O24       1.0  0.94619  0.44709  0.89812  1.0000
