data_image0
_chemical_formula_structural       Cu8H36C96O32
_chemical_formula_sum              "Cu8 H36 C96 O32"
_cell_length_a       12.21653
_cell_length_b       15.18765
_cell_length_c       26.51418
_cell_angle_alpha    90.02712
_cell_angle_beta     97.00926
_cell_angle_gamma    89.88909999999998

_space_group_name_H-M_alt    "P 1"
_space_group_IT_number       1

loop_
  _space_group_symop_operation_xyz
  'x, y, z'

loop_
  _atom_site_type_symbol
  _atom_site_label
  _atom_site_symmetry_multiplicity
  _atom_site_fract_x
  _atom_site_fract_y
  _atom_site_fract_z
  _atom_site_occupancy
  Cu  Cu1       1.0  0.14144000000000004  0.47631  0.13337000000000002  1.0000
  Cu  Cu2       1.0  0.98552  0.6243800000000003  0.8004700000000001  1.0000
  Cu  Cu3       1.0  0.6474600000000001  0.02361  0.6333000000000002  1.0000
  Cu  Cu4       1.0  0.01446000000000002  0.37567  0.19954000000000005  1.0000
  Cu  Cu5       1.0  0.51441  0.12412  0.6998400000000002  1.0000
  Cu  Cu6       1.0  0.85861  0.52377  0.86669  1.0000
  Cu  Cu7       1.0  0.35283000000000003  0.9764500000000003  0.36647000000000013  1.0000
  Cu  Cu8       1.0  0.48563  0.8755100000000002  0.30001000000000005  1.0000
  H   H1        1.0  0.81469  0.49756000000000006  0.59637  1.0000
  H   H2        1.0  0.28388  0.8700300000000002  0.045280000000000015  1.0000
  H   H3        1.0  0.73828  0.73875  0.39725  1.0000
  H   H4        1.0  0.23603000000000007  0.7614800000000003  0.8971600000000002  1.0000
  H   H5        1.0  0.83535  0.23438000000000006  0.60755  1.0000
  H   H6        1.0  0.55855  0.25090000000000007  0.09741  1.0000
  H   H7        1.0  0.71604  0.13002  0.9546900000000003  1.0000
  H   H8        1.0  0.26198  0.26109000000000004  0.60287  1.0000
  H   H9        1.0  0.41783999999999993  0.07637000000000002  0.51125  1.0000
  H   H10       1.0  0.21588000000000002  0.36902  0.45490000000000014  1.0000
  H   H11       1.0  0.44148  0.7491100000000003  0.90259  1.0000
  H   H12       1.0  0.25947  0.17481000000000005  0.25285  1.0000
  H   H13       1.0  0.91777  0.42237000000000013  0.01043  1.0000
  H   H14       1.0  0.31529  0.00338  0.09652000000000002  1.0000
  H   H15       1.0  0.63289  0.2778000000000001  0.94538  1.0000
  H   H16       1.0  0.5218  0.9755700000000003  0.8292700000000002  1.0000
  H   H17       1.0  0.02211  0.52427  0.3297  1.0000
  H   H18       1.0  0.05715  0.24877000000000005  0.59721  1.0000
  H   H19       1.0  0.86738  0.7800200000000002  0.5546100000000002  1.0000
  H   H20       1.0  0.76393  0.23859000000000005  0.1028  1.0000
  H   H21       1.0  0.13310000000000002  0.2212  0.44535000000000013  1.0000
  H   H22       1.0  0.47817999999999994  0.024510000000000007  0.17066000000000006  1.0000
  H   H23       1.0  0.185  0.50244  0.40366000000000013  1.0000
  H   H24       1.0  0.36688  0.72211  0.0546  1.0000
  H   H25       1.0  0.08221000000000005  0.5775300000000002  0.9894300000000003  1.0000
  H   H26       1.0  0.16484  0.7655900000000002  0.39264  1.0000
  H   H27       1.0  0.33541  0.26572000000000007  0.10702000000000003  1.0000
  H   H28       1.0  0.943  0.7514500000000002  0.40299  1.0000
  H   H29       1.0  0.97759  0.47599  0.6703600000000002  1.0000
  H   H30       1.0  0.5817599999999999  0.9236900000000002  0.4884200000000001  1.0000
  H   H31       1.0  0.24078  0.67319  0.24705000000000005  1.0000
  H   H32       1.0  0.74051  0.8251700000000002  0.74715  1.0000
  H   H33       1.0  0.75937  0.3268200000000001  0.7531100000000001  1.0000
  H   H34       1.0  0.7840799999999999  0.6311700000000002  0.54527  1.0000
  H   H35       1.0  0.68469  0.9966500000000003  0.90347  1.0000
  H   H36       1.0  0.66456  0.7343900000000002  0.8929900000000002  1.0000
  C   C1        1.0  0.39552999999999994  0.81909  0.96721  1.0000
  C   C2        1.0  0.77749  0.3524200000000001  0.9725400000000001  1.0000
  C   C3        1.0  0.60892  0.9704300000000002  0.74088  1.0000
  C   C4        1.0  0.76649  0.27043  0.06624  1.0000
  C   C5        1.0  0.20956  0.7272300000000003  0.3195900000000001  1.0000
  C   C6        1.0  0.22238000000000002  0.6475400000000002  0.02737  1.0000
  C   C7        1.0  0.80297  0.33452  0.72  1.0000
  C   C8        1.0  0.9264599999999998  0.36001  0.10579000000000002  1.0000
  C   C9        1.0  0.5304900000000001  0.87054  0.9125800000000002  1.0000
  C   C10       1.0  0.2876000000000001  0.80215  0.31832000000000005  1.0000
  C   C11       1.0  0.34688  0.21749000000000004  0.13753  1.0000
  C   C12       1.0  0.19395  0.20811  0.4780500000000001  1.0000
  C   C13       1.0  0.58812  0.10325  0.0028  1.0000
  C   C14       1.0  0.94783  0.44735  0.55707  1.0000
  C   C15       1.0  0.4118400000000001  0.89679  0.9971800000000002  1.0000
  C   C16       1.0  0.80643  0.7927900000000002  0.5219  1.0000
  C   C17       1.0  0.84809  0.3334400000000001  0.06122000000000001  1.0000
  C   C18       1.0  0.30569  0.70918  0.022030000000000008  1.0000
  C   C19       1.0  0.21076999999999999  0.30212  0.18118  1.0000
  C   C20       1.0  0.7903399999999999  0.27285  0.68048  1.0000
  C   C21       1.0  0.21812  0.5993800000000002  0.07654  1.0000
  C   C22       1.0  0.28208  0.09701000000000003  0.42441  1.0000
  C   C23       1.0  0.49092  0.9608400000000002  0.98508  1.0000
  C   C24       1.0  0.34825000000000006  0.91567  0.03766  1.0000
  C   C25       1.0  0.41365  0.14348000000000002  0.13329  1.0000
  C   C26       1.0  0.91239  0.6038800000000002  0.49738  1.0000
  C   C27       1.0  0.91279  0.35705  0.63321  1.0000
  C   C28       1.0  0.99127  0.53942  0.48527  1.0000
  C   C29       1.0  0.5862800000000002  0.8565900000000002  0.86669  1.0000
  C   C30       1.0  0.45533000000000007  0.8080800000000002  0.9258000000000001  1.0000
  C   C31       1.0  0.634  0.00969  0.9335800000000001  1.0000
  C   C32       1.0  0.10350999999999999  0.3185100000000001  0.53265  1.0000
  C   C33       1.0  0.95669  0.69249  0.42620000000000013  1.0000
  C   C34       1.0  0.7818  0.4005800000000001  0.92334  1.0000
  C   C35       1.0  0.15201  0.6666  0.93873  1.0000
  C   C36       1.0  0.12725  0.5933800000000002  0.28361000000000003  1.0000
  C   C37       1.0  0.08725000000000001  0.6430700000000001  0.36693000000000003  1.0000
  C   C38       1.0  0.73481  0.7710400000000002  0.43362  1.0000
  C   C39       1.0  0.8466199999999999  0.2830600000000001  0.6378200000000003  1.0000
  C   C40       1.0  0.8656099999999999  0.5104  0.56635  1.0000
  C   C41       1.0  0.57559  0.8598500000000002  0.3924600000000001  1.0000
  C   C42       1.0  0.8727799999999999  0.4066400000000001  0.71651  1.0000
  C   C43       1.0  0.15340000000000004  0.7170600000000003  0.3623000000000001  1.0000
  C   C44       1.0  0.8484399999999999  0.58524  0.53774  1.0000
  C   C45       1.0  0.10893  0.52877  0.241  1.0000
  C   C46       1.0  0.39117  0.029560000000000006  0.2591200000000001  1.0000
  C   C47       1.0  0.89662  0.6816900000000001  0.46754  1.0000
  C   C48       1.0  0.052080000000000015  0.55279  0.44308000000000003  1.0000
  C   C49       1.0  0.14572000000000004  0.62624  0.9856600000000002  1.0000
  C   C50       1.0  0.18809  0.25121  0.52466  1.0000
  C   C51       1.0  0.13421  0.4897100000000001  0.43376  1.0000
  C   C52       1.0  0.35419999999999996  0.12517000000000006  0.51511  1.0000
  C   C53       1.0  0.6517  0.08437  0.9623200000000002  1.0000
  C   C54       1.0  0.23355000000000004  0.7296500000000002  0.9337200000000001  1.0000
  C   C55       1.0  0.70976  0.7721800000000001  0.8199300000000003  1.0000
  C   C56       1.0  0.57366  0.9178500000000003  0.8268900000000002  1.0000
  C   C57       1.0  0.2902  0.22785000000000005  0.18008  1.0000
  C   C58       1.0  0.65267  0.8341900000000002  0.43789  1.0000
  C   C59       1.0  0.42453  0.14002  0.60744  1.0000
  C   C60       1.0  0.08760999999999998  0.3963400000000001  0.50281  1.0000
  C   C61       1.0  0.812  0.74903  0.47545  1.0000
  C   C62       1.0  0.27748  0.14618  0.47319  1.0000
  C   C63       1.0  0.6267500000000001  0.90567  0.7834200000000002  1.0000
  C   C64       1.0  0.44843999999999995  0.052870000000000014  0.05714000000000002  1.0000
  C   C65       1.0  0.55153  0.94716  0.94285  1.0000
  C   C66       1.0  0.9685  0.3706000000000001  0.58727  1.0000
  C   C67       1.0  0.50907  0.03918  0.01491  1.0000
  C   C68       1.0  0.2652300000000001  0.22887000000000005  0.5664500000000001  1.0000
  C   C69       1.0  0.37326  0.09435  0.21658000000000005  1.0000
  C   C70       1.0  0.71789  0.9048600000000002  0.5751800000000001  1.0000
  C   C71       1.0  0.30337  0.16669000000000006  0.21985000000000002  1.0000
  C   C72       1.0  0.92556  0.41858  0.67293  1.0000
  C   C73       1.0  0.71216  0.19794000000000006  0.6816200000000002  1.0000
  C   C74       1.0  0.42628  0.08219000000000003  0.17309  1.0000
  C   C75       1.0  0.03154000000000001  0.62956  0.41288  1.0000
  C   C76       1.0  0.19697  0.6655300000000002  0.28011  1.0000
  C   C77       1.0  0.15149000000000007  0.41494  0.4624300000000001  1.0000
  C   C78       1.0  0.69661  0.83332  0.7801400000000002  1.0000
  C   C79       1.0  0.00869000000000001  0.4607900000000001  0.51491  1.0000
  C   C80       1.0  0.46945  0.12950000000000003  0.0874  1.0000
  C   C81       1.0  0.60445  0.18095000000000003  0.032780000000000004  1.0000
  C   C82       1.0  0.34723000000000004  0.16563  0.5620700000000001  1.0000
  C   C83       1.0  0.07436  0.58157  0.32718  1.0000
  C   C84       1.0  0.85424  0.3737100000000001  0.01425  1.0000
  C   C85       1.0  0.36597  0.99033  0.06640000000000001  1.0000
  C   C86       1.0  0.68892  0.24802000000000005  0.02466  1.0000
  C   C87       1.0  0.54464  0.19195000000000007  0.07419  1.0000
  C   C88       1.0  0.07371  0.6399900000000002  0.89419  1.0000
  C   C89       1.0  0.89111  0.47122  0.7591300000000002  1.0000
  C   C90       1.0  0.64576  0.8751000000000002  0.48472  1.0000
  C   C91       1.0  0.69417  0.2908  0.97792  1.0000
  C   C92       1.0  0.78921  0.6979100000000003  0.8188400000000002  1.0000
  C   C93       1.0  0.72297  0.85488  0.52665  1.0000
  C   C94       1.0  0.3110800000000001  0.75203  0.97532  1.0000
  C   C95       1.0  0.043429999999999996  0.3077  0.57398  1.0000
  C   C96       1.0  0.65308  0.7825900000000002  0.86247  1.0000
  O   O1        1.0  0.78271  0.6341900000000003  0.8497  1.0000
  O   O2        1.0  0.9501700000000002  0.5393000000000002  0.7501900000000002  1.0000
  O   O3        1.0  0.51393  0.9268500000000002  0.39436000000000004  1.0000
  O   O4        1.0  0.87754  0.4374500000000001  0.9190000000000003  1.0000
  O   O5        1.0  0.07267000000000005  0.68642  0.8529600000000003  1.0000
  O   O6        1.0  0.5777  0.81346  0.35127  1.0000
  O   O7        1.0  0.45007  0.96125  0.25012  1.0000
  O   O8        1.0  0.42217  0.18613000000000005  0.6487200000000002  1.0000
  O   O9        1.0  0.98624  0.42754  0.10260000000000002  1.0000
  O   O10       1.0  0.7003  0.40716  0.89052  1.0000
  O   O11       1.0  0.12241  0.56259  0.081  1.0000
  O   O12       1.0  0.37848999999999994  0.062410000000000014  0.41908  1.0000
  O   O13       1.0  0.6388  0.20501000000000005  0.7119700000000001  1.0000
  O   O14       1.0  0.01424000000000001  0.5723  0.89738  1.0000
  O   O15       1.0  0.14998  0.54433  0.20046000000000005  1.0000
  O   O16       1.0  0.34977  0.0448  0.29957  1.0000
  O   O17       1.0  0.8001799999999999  0.91803  0.6071  1.0000
  O   O18       1.0  0.21732999999999994  0.3658700000000001  0.15035  1.0000
  O   O19       1.0  0.62085  0.9376700000000001  0.58071  1.0000
  O   O20       1.0  0.36088  0.79505  0.28795  1.0000
  O   O21       1.0  0.65031  0.9552100000000002  0.7004400000000002  1.0000
  O   O22       1.0  0.8610699999999999  0.7050100000000002  0.7877800000000001  1.0000
  O   O23       1.0  0.13887  0.29499  0.21221000000000004  1.0000
  O   O24       1.0  0.27776  0.86641  0.34851000000000004  1.0000
  O   O25       1.0  0.54996  0.03875  0.7498500000000002  1.0000
  O   O26       1.0  0.92725  0.31362  0.14703  1.0000
  O   O27       1.0  0.48701  0.07351  0.6055100000000001  1.0000
  O   O28       1.0  0.04974  0.46075  0.24987  1.0000
  O   O29       1.0  0.29981  0.5927700000000002  0.10924  1.0000
  O   O30       1.0  0.8500800000000001  0.45567000000000013  0.7996700000000002  1.0000
  O   O31       1.0  0.72225  0.13372000000000006  0.6514600000000003  1.0000
  O   O32       1.0  0.19981  0.08657  0.3922  1.0000
