data_image0
_chemical_formula_structural       Zn8H64C84N28O16
_chemical_formula_sum              "Zn8 H64 C84 N28 O16"
_cell_length_a       11.01583
_cell_length_b       11.240069999999998
_cell_length_c       21.71506
_cell_angle_alpha    90.00002
_cell_angle_beta     90.00446999999998
_cell_angle_gamma    89.74764

_space_group_name_H-M_alt    "P 1"
_space_group_IT_number       1

loop_
  _space_group_symop_operation_xyz
  'x, y, z'

loop_
  _atom_site_type_symbol
  _atom_site_label
  _atom_site_symmetry_multiplicity
  _atom_site_fract_x
  _atom_site_fract_y
  _atom_site_fract_z
  _atom_site_occupancy
  Zn  Zn1       1.0  0.8567900000000003  0.8938699999999999  0.8829599999999999  1.0000
  Zn  Zn2       1.0  0.6582200000000001  0.14804999999999996  0.83255  1.0000
  Zn  Zn3       1.0  0.64056  0.10569999999999997  0.38282  1.0000
  Zn  Zn4       1.0  0.83907  0.8527699999999999  0.33254  1.0000
  Zn  Zn5       1.0  0.13894  0.39032  0.61715  1.0000
  Zn  Zn6       1.0  0.33652  0.64425  0.66728  1.0000
  Zn  Zn7       1.0  0.35926  0.60859  0.11691999999999998  1.0000
  Zn  Zn8       1.0  0.16081  0.35085  0.16735  1.0000
  H   H1        1.0  0.82906  0.8513099999999998  0.09057  1.0000
  H   H2        1.0  0.6803  0.8710399999999999  0.61922  1.0000
  H   H3        1.0  0.26013  0.012769999999999997  0.30509  1.0000
  H   H4        1.0  0.48805  0.72644  0.0175  1.0000
  H   H5        1.0  0.55955  0.7999699999999998  0.70972  1.0000
  H   H6        1.0  0.53935  0.7726499999999998  0.82646  1.0000
  H   H7        1.0  0.5469200000000001  0.70898  0.20673  1.0000
  H   H8        1.0  0.9665200000000002  0.89131  0.46399  1.0000
  H   H9        1.0  0.9567500000000001  0.98396  0.7472000000000001  1.0000
  H   H10       1.0  0.09907000000000002  0.9558899999999999  0.22412999999999997  1.0000
  H   H11       1.0  0.88405  0.96531  0.63855  1.0000
  H   H12       1.0  0.1711  0.9650099999999998  0.49735  1.0000
  H   H13       1.0  0.32316000000000006  0.0204  0.41511999999999993  1.0000
  H   H14       1.0  0.9062200000000002  0.31919999999999993  0.93137  1.0000
  H   H15       1.0  0.9347500000000001  0.30199  0.85137  1.0000
  H   H16       1.0  0.046520000000000006  0.25174  0.90517  1.0000
  H   H17       1.0  0.6670200000000001  0.14897999999999997  0.59112  1.0000
  H   H18       1.0  0.8196000000000001  0.12894  0.11964  1.0000
  H   H19       1.0  0.23829  0.98525  0.80495  1.0000
  H   H20       1.0  0.009800000000000001  0.26731  0.51729  1.0000
  H   H21       1.0  0.93977  0.1993  0.21051999999999998  1.0000
  H   H22       1.0  0.9588500000000001  0.22619999999999998  0.32737  1.0000
  H   H23       1.0  0.9509400000000001  0.29004  0.70643  1.0000
  H   H24       1.0  0.5304700000000001  0.10903  0.96406  1.0000
  H   H25       1.0  0.5417  0.01629  0.24692  1.0000
  H   H26       1.0  0.39977  0.0427  0.72412  1.0000
  H   H27       1.0  0.6156200000000001  0.03463  0.13843  1.0000
  H   H28       1.0  0.32599000000000006  0.03465  0.99724  1.0000
  H   H29       1.0  0.17461000000000002  0.9782099999999999  0.91494  1.0000
  H   H30       1.0  0.5905000000000001  0.68091  0.4315399999999999  1.0000
  H   H31       1.0  0.5612  0.69629  0.35157  1.0000
  H   H32       1.0  0.45005000000000006  0.7474299999999999  0.40525  1.0000
  H   H33       1.0  0.16925000000000004  0.34932  0.40901  1.0000
  H   H34       1.0  0.32020000000000004  0.37312  0.8804300000000002  1.0000
  H   H35       1.0  0.7398500000000002  0.51454  0.19475999999999996  1.0000
  H   H36       1.0  0.5106300000000001  0.22437  0.48296999999999995  1.0000
  H   H37       1.0  0.4407300000000001  0.30125  0.78983  1.0000
  H   H38       1.0  0.4597300000000001  0.2727  0.67307  1.0000
  H   H39       1.0  0.4537600000000001  0.20692999999999998  0.29361  1.0000
  H   H40       1.0  0.03263  0.38945999999999986  0.03572  1.0000
  H   H41       1.0  0.03900000000000001  0.4794499999999999  0.75301  1.0000
  H   H42       1.0  0.9008300000000001  0.45596  0.27559  1.0000
  H   H43       1.0  0.11463  0.4656399999999999  0.8614199999999999  1.0000
  H   H44       1.0  0.8282100000000001  0.46551  0.00247  1.0000
  H   H45       1.0  0.6765500000000001  0.52273  0.08469  1.0000
  H   H46       1.0  0.08791000000000004  0.8132899999999998  0.56816  1.0000
  H   H47       1.0  0.059250000000000004  0.7993499999999999  0.64837  1.0000
  H   H48       1.0  0.94801  0.7476799999999998  0.5951  1.0000
  H   H49       1.0  0.32856  0.64894  0.90852  1.0000
  H   H50       1.0  0.18013  0.62631  0.38011  1.0000
  H   H51       1.0  0.76059  0.4874199999999999  0.69439  1.0000
  H   H52       1.0  0.9883700000000001  0.77682  0.98257  1.0000
  H   H53       1.0  0.05942  0.69816  0.28951  1.0000
  H   H54       1.0  0.03945  0.72642  0.17321  1.0000
  H   H55       1.0  0.04418000000000001  0.7914799999999999  0.7930599999999999  1.0000
  H   H56       1.0  0.4644000000000001  0.60556  0.53554  1.0000
  H   H57       1.0  0.4592600000000001  0.5161199999999999  0.25242  1.0000
  H   H58       1.0  0.5991100000000001  0.5451799999999999  0.77544  1.0000
  H   H59       1.0  0.38484  0.53209  0.36091  1.0000
  H   H60       1.0  0.6696900000000001  0.53215  0.50212  1.0000
  H   H61       1.0  0.82291  0.47837  0.58431  1.0000
  H   H62       1.0  0.40982000000000013  0.18166  0.06902  1.0000
  H   H63       1.0  0.4374400000000001  0.19959  0.14894  1.0000
  H   H64       1.0  0.5495700000000001  0.24846999999999997  0.0953  1.0000
  C   C1        1.0  0.8871600000000002  0.14219  0.89588  1.0000
  C   C2        1.0  0.6984400000000001  0.78337  0.15623  1.0000
  C   C3        1.0  0.7391700000000001  0.81359  0.09685999999999999  1.0000
  C   C4        1.0  0.7160900000000001  0.8787599999999999  0.66576  1.0000
  C   C5        1.0  0.6639900000000001  0.7952299999999999  0.04613  1.0000
  C   C6        1.0  0.69578  0.8505699999999999  0.7755899999999999  1.0000
  C   C7        1.0  0.19809000000000002  0.98576  0.34144  1.0000
  C   C8        1.0  0.5491000000000001  0.74442  0.05563  1.0000
  C   C9        1.0  0.64887  0.83896  0.71573  1.0000
  C   C10       1.0  0.70719  0.8265299999999998  0.9835300000000001  1.0000
  C   C11       1.0  0.6294200000000001  0.8125699999999998  0.82973  1.0000
  C   C12       1.0  0.58224  0.7335299999999999  0.16178  1.0000
  C   C13       1.0  0.03508  0.91787  0.4306  1.0000
  C   C14       1.0  0.8704400000000002  0.9416399999999999  0.73657  1.0000
  C   C15       1.0  0.041280000000000004  0.93172  0.26286  1.0000
  C   C16       1.0  0.08184  0.94391  0.32541  1.0000
  C   C17       1.0  0.82954  0.93116  0.67624  1.0000
  C   C18       1.0  0.14837  0.9588  0.44873999999999997  1.0000
  C   C19       1.0  0.23224000000000003  0.9913699999999998  0.40284  1.0000
  C   C20       1.0  0.9489300000000005  0.26124  0.89693  1.0000
  C   C21       1.0  0.77155  0.8067199999999999  0.21134999999999998  1.0000
  C   C22       1.0  0.60952  0.85737  0.39483999999999997  1.0000
  C   C23       1.0  0.7987600000000001  0.21668999999999997  0.6563  1.0000
  C   C24       1.0  0.7575100000000001  0.18545  0.59716  1.0000
  C   C25       1.0  0.7832500000000001  0.12132999999999997  0.16607  1.0000
  C   C26       1.0  0.8331100000000001  0.20157  0.54642  1.0000
  C   C27       1.0  0.8024000000000002  0.14963999999999997  0.27591  1.0000
  C   C28       1.0  0.29996000000000006  0.01284  0.84136  1.0000
  C   C29       1.0  0.94868  0.2513599999999999  0.55564  1.0000
  C   C30       1.0  0.85007  0.16094  0.21621999999999997  1.0000
  C   C31       1.0  0.78984  0.16981  0.48388  1.0000
  C   C32       1.0  0.8684300000000003  0.18697999999999995  0.33029  1.0000
  C   C33       1.0  0.9154900000000002  0.26533  0.66155  1.0000
  C   C34       1.0  0.46216  0.08199999999999999  0.9306299999999998  1.0000
  C   C35       1.0  0.628  0.05882  0.23646  1.0000
  C   C36       1.0  0.45706  0.06729999999999998  0.76296  1.0000
  C   C37       1.0  0.4161100000000001  0.05517  0.8254399999999998  1.0000
  C   C38       1.0  0.6696500000000001  0.06904  0.17624  1.0000
  C   C39       1.0  0.34896  0.040659999999999995  0.94867  1.0000
  C   C40       1.0  0.26547000000000004  0.00748  0.9027000000000001  1.0000
  C   C41       1.0  0.5476100000000002  0.73826  0.39688  1.0000
  C   C42       1.0  0.7255599999999999  0.19526999999999997  0.71155  1.0000
  C   C43       1.0  0.10699  0.63712  0.60527  1.0000
  C   C44       1.0  0.30117  0.28146999999999994  0.34371  1.0000
  C   C45       1.0  0.25956  0.31168  0.40296000000000004  1.0000
  C   C46       1.0  0.28324  0.37907999999999986  0.83405  1.0000
  C   C47       1.0  0.33419  0.2932  0.45392  1.0000
  C   C48       1.0  0.30187  0.34801  0.72438  1.0000
  C   C49       1.0  0.8016500000000002  0.48679999999999995  0.15834  1.0000
  C   C50       1.0  0.44978  0.24244  0.4446899999999999  1.0000
  C   C51       1.0  0.35028000000000004  0.33862  0.78404  1.0000
  C   C52       1.0  0.2896  0.32402999999999993  0.51644  1.0000
  C   C53       1.0  0.3685  0.31081  0.67008  1.0000
  C   C54       1.0  0.41781  0.23161  0.33845  1.0000
  C   C55       1.0  0.9642700000000001  0.4169199999999999  0.06915  1.0000
  C   C56       1.0  0.12615  0.43804  0.76359  1.0000
  C   C57       1.0  0.9585000000000002  0.4313999999999999  0.23682  1.0000
  C   C58       1.0  0.9178400000000002  0.44371999999999995  0.1743  1.0000
  C   C59       1.0  0.16872  0.43024  0.82377  1.0000
  C   C60       1.0  0.85107  0.45912999999999987  0.05105  1.0000
  C   C61       1.0  0.7673900000000001  0.49273  0.09698  1.0000
  C   C62       1.0  0.04557000000000001  0.75688  0.60324  1.0000
  C   C63       1.0  0.22828000000000007  0.30471  0.28851  1.0000
  C   C64       1.0  0.3899600000000001  0.3595999999999999  0.10406  1.0000
  C   C65       1.0  0.19664  0.71658  0.8433  1.0000
  C   C66       1.0  0.23845  0.68711  0.90257  1.0000
  C   C67       1.0  0.21661  0.6195099999999999  0.33366  1.0000
  C   C68       1.0  0.16422000000000003  0.7067699999999999  0.95357  1.0000
  C   C69       1.0  0.19724000000000005  0.64965  0.22394  1.0000
  C   C70       1.0  0.6979800000000002  0.51379  0.65805  1.0000
  C   C71       1.0  0.04893000000000001  0.7580899999999999  0.9442599999999999  1.0000
  C   C72       1.0  0.14948  0.6599  0.28368  1.0000
  C   C73       1.0  0.20869  0.67601  0.01612  1.0000
  C   C74       1.0  0.13040000000000002  0.6877199999999999  0.16985  1.0000
  C   C75       1.0  0.08024  0.7671499999999999  0.83795  1.0000
  C   C76       1.0  0.53352  0.5797799999999999  0.56892  1.0000
  C   C77       1.0  0.37254  0.55847  0.26299  1.0000
  C   C78       1.0  0.54071  0.56798  0.73667  1.0000
  C   C79       1.0  0.58125  0.55534  0.67411  1.0000
  C   C80       1.0  0.3306700000000001  0.5673699999999999  0.32325  1.0000
  C   C81       1.0  0.64721  0.53901  0.55073  1.0000
  C   C82       1.0  0.73176  0.5073899999999999  0.59662  1.0000
  C   C83       1.0  0.45192000000000004  0.23995999999999995  0.10335  1.0000
  C   C84       1.0  0.26935  0.69187  0.78825  1.0000
  N   N1        1.0  0.80634  0.90275  0.7853400000000001  1.0000
  N   N2        1.0  0.0024900000000000005  0.90741  0.37102  1.0000
  N   N3        1.0  0.51026  0.7140499999999999  0.11243  1.0000
  N   N4        1.0  0.68317  0.8297599999999999  0.88278  1.0000
  N   N5        1.0  0.6304300000000002  0.7996199999999999  0.93658  1.0000
  N   N6        1.0  0.8807800000000002  0.8582699999999999  0.20138  1.0000
  N   N7        1.0  0.9324000000000001  0.88408  0.25579  1.0000
  N   N8        1.0  0.69153  0.09793999999999999  0.28533  1.0000
  N   N9        1.0  0.4949800000000001  0.09233999999999999  0.87109  1.0000
  N   N10       1.0  0.9879  0.2830599999999999  0.61219  1.0000
  N   N11       1.0  0.8140400000000002  0.16947999999999996  0.38313  1.0000
  N   N12       1.0  0.8663000000000001  0.19869  0.43714  1.0000
  N   N13       1.0  0.6173700000000001  0.1416  0.70167  1.0000
  N   N14       1.0  0.5656100000000001  0.11580999999999998  0.75601  1.0000
  N   N15       1.0  0.18976  0.39794  0.71487  1.0000
  N   N16       1.0  0.9969900000000002  0.40621  0.1287  1.0000
  N   N17       1.0  0.48946  0.21214999999999995  0.38798  1.0000
  N   N18       1.0  0.31371  0.32704  0.61718  1.0000
  N   N19       1.0  0.36685000000000006  0.29763  0.56334  1.0000
  N   N20       1.0  0.11899000000000001  0.35701  0.29834  1.0000
  N   N21       1.0  0.06739  0.3829  0.24392  1.0000
  N   N22       1.0  0.30881  0.5985899999999998  0.21426999999999996  1.0000
  N   N23       1.0  0.50116  0.59092  0.6285  1.0000
  N   N24       1.0  0.009010000000000002  0.78785  0.88751  1.0000
  N   N25       1.0  0.18469000000000002  0.6719399999999999  0.11682  1.0000
  N   N26       1.0  0.13152  0.70211  0.06309  1.0000
  N   N27       1.0  0.37945  0.6412599999999999  0.79814  1.0000
  N   N28       1.0  0.43091  0.61453  0.74376  1.0000
  O   O1        1.0  0.77032  0.13967  0.90057  1.0000
  O   O2        1.0  0.81209  0.87382  0.97821  1.0000
  O   O3        1.0  0.9511700000000001  0.04888999999999999  0.8902399999999999  1.0000
  O   O4        1.0  0.72697  0.7812899999999999  0.2654  1.0000
  O   O5        1.0  0.7261800000000002  0.86002  0.40048999999999996  1.0000
  O   O6        1.0  0.6855600000000001  0.12103  0.47828999999999994  1.0000
  O   O7        1.0  0.5457900000000001  0.9504799999999999  0.38738  1.0000
  O   O8        1.0  0.76924  0.22374999999999995  0.76541  1.0000
  O   O9        1.0  0.22358  0.6316999999999999  0.5995  1.0000
  O   O10       1.0  0.18372  0.37032  0.52174  1.0000
  O   O11       1.0  0.04247000000000001  0.54516  0.61259  1.0000
  O   O12       1.0  0.27304  0.27846  0.2345  1.0000
  O   O13       1.0  0.27314000000000005  0.36319999999999997  0.09943000000000002  1.0000
  O   O14       1.0  0.31446  0.62957  0.0215  1.0000
  O   O15       1.0  0.45388  0.4525  0.10955  1.0000
  O   O16       1.0  0.22363000000000002  0.7158999999999999  0.73418  1.0000
