data_image0
_chemical_formula_structural       Cd6H44C76N8O24
_chemical_formula_sum              "Cd6 H44 C76 N8 O24"
_cell_length_a       11.76874
_cell_length_b       13.33569
_cell_length_c       16.05892
_cell_angle_alpha    71.86221
_cell_angle_beta     68.35357
_cell_angle_gamma    63.53499999999999

_symmetry_space_group_name_H-M    'P 1'
_symmetry_Int_Tables_number       1

loop_
  _symmetry_equiv_pos_as_xyz
  'x,y,z'

loop_
  _atom_site_type_symbol
  _atom_site_label
  _atom_site_symmetry_multiplicity
  _atom_site_fract_x
  _atom_site_fract_y
  _atom_site_fract_z
  _atom_site_occupancy
  Cd  Cd1       1.0  0.5351999999999998  0.025110000000000004  0.86796  1.0000
  Cd  Cd2       1.0  0.9277900000000001  0.4750199999999999  0.63233  1.0000
  Cd  Cd3       1.0  0.46481  0.97489  0.13204  1.0000
  Cd  Cd4       1.0  0.07222000000000003  0.52497  0.36767  1.0000
  Cd  Cd5       1.0  0.5509900000000001  0.7498999999999998  0.7502600000000003  1.0000
  Cd  Cd6       1.0  0.4490200000000001  0.25009  0.24974000000000002  1.0000
  H   H1        1.0  0.29181  0.27777999999999997  0.12435  1.0000
  H   H2        1.0  0.28895  0.61863  0.04894  1.0000
  H   H3        1.0  0.46236999999999995  0.40613  0.84684  1.0000
  H   H4        1.0  0.26142000000000004  0.20565000000000003  0.82927  1.0000
  H   H5        1.0  0.05517999999999994  0.21249999999999994  0.8149400000000002  1.0000
  H   H6        1.0  0.17623999999999992  0.85296  0.9346100000000003  1.0000
  H   H7        1.0  0.37356000000000017  0.8626099999999999  0.94199  1.0000
  H   H8        1.0  0.6748599999999999  0.20052  0.82447  1.0000
  H   H9        1.0  0.8786300000000001  0.21345000000000003  0.82344  1.0000
  H   H10       1.0  0.02610999999999995  0.84677  0.90992  1.0000
  H   H11       1.0  0.8140800000000006  0.85165  0.90914  1.0000
  H   H12       1.0  0.19430999999999998  0.22321000000000002  0.37545  1.0000
  H   H13       1.0  0.4577800000000002  0.8810799999999998  0.4502800000000001  1.0000
  H   H14       1.0  0.21617000000000017  0.09346999999999998  0.6527  1.0000
  H   H15       1.0  0.79786  0.29486  0.67088  1.0000
  H   H16       1.0  0.5845200000000002  0.28743  0.68491  1.0000
  H   H17       1.0  0.4619700000000001  0.64697  0.56525  1.0000
  H   H18       1.0  0.6762300000000001  0.6377899999999997  0.55795  1.0000
  H   H19       1.0  0.20168  0.29887  0.67554  1.0000
  H   H20       1.0  0.41734000000000004  0.28627999999999987  0.6766  1.0000
  H   H21       1.0  0.2807299999999999  0.6530000000000001  0.59024  1.0000
  H   H22       1.0  0.07293000000000006  0.6478199999999997  0.59128  1.0000
  H   H23       1.0  0.7082000000000007  0.7222199999999998  0.87565  1.0000
  H   H24       1.0  0.7110600000000001  0.38136  0.95106  1.0000
  H   H25       1.0  0.53764  0.59387  0.15317000000000003  1.0000
  H   H26       1.0  0.73859  0.7943399999999999  0.17073  1.0000
  H   H27       1.0  0.9448299999999998  0.7874899999999999  0.18506000000000003  1.0000
  H   H28       1.0  0.82377  0.14703999999999998  0.06539  1.0000
  H   H29       1.0  0.6264500000000001  0.13738999999999996  0.05801000000000001  1.0000
  H   H30       1.0  0.32515000000000005  0.7994799999999999  0.17554  1.0000
  H   H31       1.0  0.12137000000000009  0.7865399999999998  0.17656  1.0000
  H   H32       1.0  0.9739  0.15322999999999998  0.09009  1.0000
  H   H33       1.0  0.18593000000000004  0.14835  0.09086  1.0000
  H   H34       1.0  0.8056900000000004  0.7767899999999998  0.6245500000000003  1.0000
  H   H35       1.0  0.5422300000000001  0.11891999999999994  0.54972  1.0000
  H   H36       1.0  0.78384  0.9065200000000001  0.34731  1.0000
  H   H37       1.0  0.20215000000000002  0.70513  0.3291200000000001  1.0000
  H   H38       1.0  0.41548999999999986  0.71256  0.31509000000000004  1.0000
  H   H39       1.0  0.53804  0.35303  0.43475  1.0000
  H   H40       1.0  0.32377999999999996  0.36221  0.44205  1.0000
  H   H41       1.0  0.79832  0.70113  0.32446  1.0000
  H   H42       1.0  0.5826700000000001  0.7137099999999998  0.3234  1.0000
  H   H43       1.0  0.7192800000000003  0.3469999999999999  0.40976  1.0000
  H   H44       1.0  0.9270800000000001  0.35216999999999987  0.40872  1.0000
  C   C1        1.0  0.4178400000000001  0.22152000000000002  0.9528  1.0000
  C   C2        1.0  0.3775899999999999  0.3312499999999998  0.9820500000000001  1.0000
  C   C3        1.0  0.3139000000000001  0.34689999999999993  0.07257000000000001  1.0000
  C   C4        1.0  0.27854  0.45175  0.09621  1.0000
  C   C5        1.0  0.3121600000000001  0.53878  0.03006  1.0000
  C   C6        1.0  0.3811900000000001  0.52142  0.94062  1.0000
  C   C7        1.0  0.41065000000000007  0.41875  0.91666  1.0000
  C   C8        1.0  0.4329799999999998  0.6072100000000001  0.8719  1.0000
  C   C9        1.0  0.21080999999999997  0.47102  0.19209  1.0000
  C   C10       1.0  0.2373300000000001  0.12984999999999997  0.85137  1.0000
  C   C11       1.0  0.12161999999999998  0.13269999999999993  0.8443900000000002  1.0000
  C   C12       1.0  0.09439000000000002  0.03260999999999999  0.87398  1.0000
  C   C13       1.0  0.18709000000000012  0.93466  0.91057  1.0000
  C   C14       1.0  0.3003600000000001  0.9388599999999999  0.9152  1.0000
  C   C15       1.0  0.75617  0.12427999999999999  0.84229  1.0000
  C   C16       1.0  0.8711299999999998  0.13037  0.84225  1.0000
  C   C17       1.0  0.9727699999999998  0.030419999999999933  0.8680300000000002  1.0000
  C   C18       1.0  0.9519600000000001  0.92808  0.8905400000000002  1.0000
  C   C19       1.0  0.8338400000000002  0.92935  0.88944  1.0000
  C   C20       1.0  0.09227999999999996  0.27876  0.5472300000000001  1.0000
  C   C21       1.0  0.19146999999999995  0.16905000000000006  0.51763  1.0000
  C   C22       1.0  0.23397  0.15370999999999999  0.4270900000000001  1.0000
  C   C23       1.0  0.32728000000000007  0.048609999999999993  0.4033  1.0000
  C   C24       1.0  0.38206999999999997  0.96112  0.46928  1.0000
  C   C25       1.0  0.34425000000000006  0.97819  0.55873  1.0000
  C   C26       1.0  0.24685000000000007  0.08108999999999998  0.58286  1.0000
  C   C27       1.0  0.4127700000000001  0.8917499999999999  0.62757  1.0000
  C   C28       1.0  0.37420999999999993  0.029579999999999988  0.30742  1.0000
  C   C29       1.0  0.71931  0.3705  0.64874  1.0000
  C   C30       1.0  0.5996599999999999  0.36737000000000003  0.65559  1.0000
  C   C31       1.0  0.5009300000000001  0.46735  0.62601  1.0000
  C   C32       1.0  0.5312800000000001  0.5653900000000001  0.58937  1.0000
  C   C33       1.0  0.6533400000000001  0.56145  0.58476  1.0000
  C   C34       1.0  0.22368000000000002  0.37522  0.65781  1.0000
  C   C35       1.0  0.34470999999999996  0.3693  0.65781  1.0000
  C   C36       1.0  0.37116000000000027  0.4693299999999999  0.63204  1.0000
  C   C37       1.0  0.26943000000000017  0.5715999999999999  0.60963  1.0000
  C   C38       1.0  0.15150000000000002  0.57017  0.61086  1.0000
  C   C39       1.0  0.5821699999999999  0.77848  0.0472  1.0000
  C   C40       1.0  0.6224200000000002  0.66875  0.01795  1.0000
  C   C41       1.0  0.6861099999999998  0.6530999999999999  0.9274400000000003  1.0000
  C   C42       1.0  0.7214699999999997  0.5482499999999999  0.9038000000000003  1.0000
  C   C43       1.0  0.6878500000000002  0.4612200000000001  0.96994  1.0000
  C   C44       1.0  0.6188200000000001  0.47858  0.059380000000000016  1.0000
  C   C45       1.0  0.5893600000000002  0.5812499999999999  0.08335000000000001  1.0000
  C   C46       1.0  0.56703  0.3927899999999999  0.1281  1.0000
  C   C47       1.0  0.7892000000000001  0.52898  0.80791  1.0000
  C   C48       1.0  0.7626800000000001  0.87014  0.14863  1.0000
  C   C49       1.0  0.8783899999999999  0.8672899999999998  0.15561  1.0000
  C   C50       1.0  0.9056199999999999  0.96738  0.12603  1.0000
  C   C51       1.0  0.8129199999999998  0.06532999999999997  0.08943000000000002  1.0000
  C   C52       1.0  0.69965  0.06114  0.0848  1.0000
  C   C53       1.0  0.24384000000000006  0.87572  0.15771  1.0000
  C   C54       1.0  0.1288799999999999  0.86962  0.15775000000000006  1.0000
  C   C55       1.0  0.027240000000000084  0.9695699999999999  0.13197  1.0000
  C   C56       1.0  0.04805000000000002  0.07190999999999997  0.10946  1.0000
  C   C57       1.0  0.16617  0.07065  0.11056  1.0000
  C   C58       1.0  0.9077299999999999  0.72123  0.45277  1.0000
  C   C59       1.0  0.80854  0.8309499999999997  0.48237  1.0000
  C   C60       1.0  0.76604  0.84628  0.57292  1.0000
  C   C61       1.0  0.6727300000000003  0.9513799999999998  0.5967  1.0000
  C   C62       1.0  0.61794  0.03887999999999999  0.53072  1.0000
  C   C63       1.0  0.65576  0.021809999999999996  0.44127  1.0000
  C   C64       1.0  0.7531600000000002  0.91891  0.41715  1.0000
  C   C65       1.0  0.58724  0.10825000000000001  0.37243  1.0000
  C   C66       1.0  0.6258  0.9704199999999997  0.69258  1.0000
  C   C67       1.0  0.28069999999999995  0.62949  0.35126  1.0000
  C   C68       1.0  0.4003500000000001  0.63263  0.34441000000000005  1.0000
  C   C69       1.0  0.49908000000000013  0.5326499999999997  0.37399  1.0000
  C   C70       1.0  0.46872999999999976  0.43461  0.4106300000000001  1.0000
  C   C71       1.0  0.34667  0.4385499999999999  0.41524  1.0000
  C   C72       1.0  0.7763299999999999  0.62478  0.34220000000000006  1.0000
  C   C73       1.0  0.6553  0.6306999999999999  0.34219  1.0000
  C   C74       1.0  0.62885  0.53066  0.3679600000000001  1.0000
  C   C75       1.0  0.7305800000000001  0.4284  0.39037000000000005  1.0000
  C   C76       1.0  0.84851  0.42983  0.38914  1.0000
  N   N1        1.0  0.32619000000000004  0.0344  0.88583  1.0000
  N   N2        1.0  0.73618  0.02584999999999999  0.86625  1.0000
  N   N3        1.0  0.7461199999999999  0.46609  0.6143000000000001  1.0000
  N   N4        1.0  0.12818000000000002  0.4735699999999999  0.634  1.0000
  N   N5        1.0  0.6738200000000002  0.9655999999999998  0.11417000000000002  1.0000
  N   N6        1.0  0.26383000000000006  0.97415  0.13375  1.0000
  N   N7        1.0  0.25388000000000005  0.5339  0.3857  1.0000
  N   N8        1.0  0.87183  0.52642  0.366  1.0000
  O   O1        1.0  0.42087  0.13117  0.01234  1.0000
  O   O2        1.0  0.45080000000000003  0.22197  0.86751  1.0000
  O   O3        1.0  0.5014799999999999  0.5843  0.7926600000000003  1.0000
  O   O4        1.0  0.4114499999999999  0.69816  0.8960900000000003  1.0000
  O   O5        1.0  0.13620999999999997  0.57142  0.20621  1.0000
  O   O6        1.0  0.22921  0.38528  0.25829  1.0000
  O   O7        1.0  0.06384999999999995  0.36943  0.48803000000000013  1.0000
  O   O8        1.0  0.04028000000000001  0.27791  0.6326  1.0000
  O   O9        1.0  0.3783100000000002  0.9149799999999998  0.70674  1.0000
  O   O10       1.0  0.5064600000000001  0.80016  0.60391  1.0000
  O   O11       1.0  0.41236  0.92962  0.29316  1.0000
  O   O12       1.0  0.37425  0.11511999999999997  0.24132  1.0000
  O   O13       1.0  0.5791399999999998  0.8688199999999999  0.98766  1.0000
  O   O14       1.0  0.54921  0.7780299999999999  0.13249  1.0000
  O   O15       1.0  0.49853000000000003  0.4157  0.20734  1.0000
  O   O16       1.0  0.58856  0.30184  0.10391  1.0000
  O   O17       1.0  0.8637999999999997  0.42857  0.7937900000000002  1.0000
  O   O18       1.0  0.7707999999999999  0.6147199999999999  0.74171  1.0000
  O   O19       1.0  0.93616  0.6305699999999999  0.51198  1.0000
  O   O20       1.0  0.9597299999999999  0.7220900000000002  0.36741  1.0000
  O   O21       1.0  0.6216999999999999  0.08501  0.2932600000000001  1.0000
  O   O22       1.0  0.49355000000000004  0.19984  0.39609  1.0000
  O   O23       1.0  0.5876499999999999  0.07037999999999998  0.70684  1.0000
  O   O24       1.0  0.6257599999999995  0.8848799999999998  0.75868  1.0000
