data_image0
_chemical_formula_structural       Co4H84C104N8O16
_chemical_formula_sum              "Co4 H84 C104 N8 O16"
_cell_length_a       7.263
_cell_length_b       14.223729999999998
_cell_length_c       24.78346
_cell_angle_alpha    105.81179
_cell_angle_beta     89.90566
_cell_angle_gamma    89.96732

_space_group_name_H-M_alt    "P 1"
_space_group_IT_number       1

loop_
  _space_group_symop_operation_xyz
  'x, y, z'

loop_
  _atom_site_type_symbol
  _atom_site_label
  _atom_site_symmetry_multiplicity
  _atom_site_fract_x
  _atom_site_fract_y
  _atom_site_fract_z
  _atom_site_occupancy
  Co  Co1       1.0  0.6361500000000002  0.44509  0.49068  1.0000
  Co  Co2       1.0  0.63816  0.55504  0.00939  1.0000
  Co  Co3       1.0  0.35845  0.55536  0.50954  1.0000
  Co  Co4       1.0  0.3617100000000001  0.44496  0.99062  1.0000
  H   H1        1.0  0.05699  0.57349  0.61994  1.0000
  H   H2        1.0  0.20797000000000002  0.6681900000000001  0.7074200000000002  1.0000
  H   H3        1.0  0.71162  0.83576  0.756  1.0000
  H   H4        1.0  0.5578500000000002  0.73603  0.66994  1.0000
  H   H5        1.0  0.15837  0.9198800000000001  0.73784  1.0000
  H   H6        1.0  0.3283400000000001  0.83118  0.7389399999999999  1.0000
  H   H7        1.0  0.2976  0.93393  0.79831  1.0000
  H   H8        1.0  0.84047  0.86252  0.84502  1.0000
  H   H9        1.0  0.8953200000000002  0.95144  0.8089199999999999  1.0000
  H   H10       1.0  0.03487000000000001  0.93828  0.86523  1.0000
  H   H11       1.0  0.9083600000000002  0.679  0.82219  1.0000
  H   H12       1.0  0.02795  0.58245  0.8841  1.0000
  H   H13       1.0  0.5556200000000001  0.72081  0.88883  1.0000
  H   H14       1.0  0.43952000000000013  0.81447  0.82487  1.0000
  H   H15       1.0  0.028950000000000014  0.34922  0.51304  1.0000
  H   H16       1.0  0.62705  0.24298999999999998  0.3894599999999999  1.0000
  H   H17       1.0  0.90184  0.10041  0.37904  1.0000
  H   H18       1.0  0.2921  0.12555  0.38452  1.0000
  H   H19       1.0  0.52883  0.018919999999999992  0.40828  1.0000
  H   H20       1.0  0.28758  0.068  0.57294  1.0000
  H   H21       1.0  0.05267  0.17250999999999997  0.54836  1.0000
  H   H22       1.0  0.05604000000000001  0.42599999999999993  0.8800199999999999  1.0000
  H   H23       1.0  0.20701000000000006  0.33154999999999996  0.7920799999999999  1.0000
  H   H24       1.0  0.71188  0.16341  0.74461  1.0000
  H   H25       1.0  0.55821  0.2626499999999999  0.83089  1.0000
  H   H26       1.0  0.16001  0.07870999999999999  0.76155  1.0000
  H   H27       1.0  0.32924  0.16752999999999996  0.76016  1.0000
  H   H28       1.0  0.2977800000000001  0.06522999999999993  0.7006899999999999  1.0000
  H   H29       1.0  0.8397100000000002  0.13754  0.65542  1.0000
  H   H30       1.0  0.8959500000000001  0.047559999999999936  0.6906399999999999  1.0000
  H   H31       1.0  0.034370000000000005  0.06211999999999994  0.63427  1.0000
  H   H32       1.0  0.90744  0.32031  0.67813  1.0000
  H   H33       1.0  0.02698  0.41782  0.61659  1.0000
  H   H34       1.0  0.55502  0.2796000000000001  0.61118  1.0000
  H   H35       1.0  0.43963  0.18471000000000004  0.67458  1.0000
  H   H36       1.0  0.030390000000000004  0.65157  0.9867  1.0000
  H   H37       1.0  0.62689  0.75797  0.11030999999999999  1.0000
  H   H38       1.0  0.9014300000000002  0.90035  0.12071  1.0000
  H   H39       1.0  0.29101  0.87541  0.11556  1.0000
  H   H40       1.0  0.52823  0.98201  0.09201  1.0000
  H   H41       1.0  0.2912700000000001  0.93261  0.92706  1.0000
  H   H42       1.0  0.055880000000000006  0.82807  0.95135  1.0000
  H   H43       1.0  0.9418400000000002  0.42703  0.38003  1.0000
  H   H44       1.0  0.79211  0.33292  0.29219  1.0000
  H   H45       1.0  0.2884800000000001  0.16468999999999998  0.24449999999999997  1.0000
  H   H46       1.0  0.4403500000000001  0.26368  0.33098  1.0000
  H   H47       1.0  0.84123  0.07999000000000002  0.26207  1.0000
  H   H48       1.0  0.67103  0.16848  0.2608  1.0000
  H   H49       1.0  0.7031300000000001  0.06603  0.20138  1.0000
  H   H50       1.0  0.16032  0.13798000000000002  0.1553  1.0000
  H   H51       1.0  0.10483000000000003  0.048829999999999985  0.19116999999999998  1.0000
  H   H52       1.0  0.96607  0.06225  0.13475  1.0000
  H   H53       1.0  0.09118  0.32102  0.17774  1.0000
  H   H54       1.0  0.97163  0.41752  0.1158  1.0000
  H   H55       1.0  0.44396  0.27913  0.11105  1.0000
  H   H56       1.0  0.5597800000000002  0.18556999999999996  0.17500999999999997  1.0000
  H   H57       1.0  0.96789  0.65274  0.48684  1.0000
  H   H58       1.0  0.37006  0.7580200000000001  0.61054  1.0000
  H   H59       1.0  0.09456000000000003  0.90056  0.62139  1.0000
  H   H60       1.0  0.70367  0.8752200000000002  0.61563  1.0000
  H   H61       1.0  0.46668  0.98181  0.59188  1.0000
  H   H62       1.0  0.7105200000000003  0.93481  0.42771  1.0000
  H   H63       1.0  0.9450900000000002  0.82998  0.45216  1.0000
  H   H64       1.0  0.94339  0.5744500000000001  0.11997  1.0000
  H   H65       1.0  0.7925200000000001  0.66873  0.20787999999999995  1.0000
  H   H66       1.0  0.28825  0.8365  0.25554  1.0000
  H   H67       1.0  0.44151999999999997  0.73747  0.16923  1.0000
  H   H68       1.0  0.84026  0.9208500000000001  0.23824  1.0000
  H   H69       1.0  0.67045  0.83225  0.23973  1.0000
  H   H70       1.0  0.7020100000000002  0.93489  0.29904  1.0000
  H   H71       1.0  0.15975  0.86349  0.3447  1.0000
  H   H72       1.0  0.10286000000000002  0.95244  0.3088  1.0000
  H   H73       1.0  0.9648100000000002  0.93898  0.36544999999999994  1.0000
  H   H74       1.0  0.09091000000000003  0.67988  0.32233  1.0000
  H   H75       1.0  0.97121  0.58299  0.38422  1.0000
  H   H76       1.0  0.4439400000000001  0.72249  0.38987  1.0000
  H   H77       1.0  0.56014  0.81636  0.32602  1.0000
  H   H78       1.0  0.96942  0.34845  0.013329999999999998  1.0000
  H   H79       1.0  0.37312  0.24182999999999993  0.8898  1.0000
  H   H80       1.0  0.0984  0.09952000000000001  0.87946  1.0000
  H   H81       1.0  0.7087800000000001  0.12459000000000002  0.88457  1.0000
  H   H82       1.0  0.4716400000000001  0.017919999999999985  0.9081  1.0000
  H   H83       1.0  0.70881  0.06721  0.07303  1.0000
  H   H84       1.0  0.94406  0.17186  0.04874  1.0000
  C   C1        1.0  0.7060300000000003  0.59218  0.58659  1.0000
  C   C2        1.0  0.7977500000000002  0.64933  0.63916  1.0000
  C   C3        1.0  0.98116  0.63  0.65031  1.0000
  C   C4        1.0  0.06599  0.68462  0.69908  1.0000
  C   C5        1.0  0.9727  0.76079  0.7374  1.0000
  C   C6        1.0  0.78834  0.7786100000000001  0.72646  1.0000
  C   C7        1.0  0.7016600000000002  0.72322  0.678  1.0000
  C   C8        1.0  0.22563  0.88026  0.76463  1.0000
  C   C9        1.0  0.07858000000000002  0.82313  0.78789  1.0000
  C   C10       1.0  0.95401  0.89804  0.8288599999999999  1.0000
  C   C11       1.0  0.16306000000000004  0.75705  0.82088  1.0000
  C   C12       1.0  0.05012  0.68898  0.83692  1.0000
  C   C13       1.0  0.11711  0.63395  0.87124  1.0000
  C   C14       1.0  0.2992100000000001  0.64643  0.8909399999999997  1.0000
  C   C15       1.0  0.41457000000000005  0.71149  0.8735799999999999  1.0000
  C   C16       1.0  0.34735  0.7649799999999999  0.8382799999999999  1.0000
  C   C17       1.0  0.36632  0.59416  0.9317  1.0000
  C   C18       1.0  0.95413  0.30122  0.47863  1.0000
  C   C19       1.0  0.7524100000000002  0.24277  0.41282  1.0000
  C   C20       1.0  0.88499  0.17242999999999997  0.40744  1.0000
  C   C21       1.0  0.15755000000000002  0.15426  0.46469  1.0000
  C   C22       1.0  0.29205000000000003  0.11094999999999992  0.42540999999999995  1.0000
  C   C23       1.0  0.4250400000000001  0.05110999999999999  0.43945  1.0000
  C   C24       1.0  0.42788  0.03290999999999996  0.49264999999999987  1.0000
  C   C25       1.0  0.29116  0.07859  0.53124  1.0000
  C   C26       1.0  0.1574  0.13849000000000003  0.51787  1.0000
  C   C27       1.0  0.70686  0.40763999999999995  0.9138399999999999  1.0000
  C   C28       1.0  0.79774  0.34978  0.86125  1.0000
  C   C29       1.0  0.98079  0.36925  0.84976  1.0000
  C   C30       1.0  0.06564  0.31472  0.80087  1.0000
  C   C31       1.0  0.9726900000000003  0.23833999999999994  0.76277  1.0000
  C   C32       1.0  0.78865  0.22039  0.77408  1.0000
  C   C33       1.0  0.70184  0.27569  0.82267  1.0000
  C   C34       1.0  0.22618  0.11863999999999994  0.73472  1.0000
  C   C35       1.0  0.07841  0.1761000000000001  0.71203  1.0000
  C   C36       1.0  0.95382  0.10162000000000002  0.6710099999999999  1.0000
  C   C37       1.0  0.16266  0.2424199999999999  0.67916  1.0000
  C   C38       1.0  0.04946  0.3107  0.66339  1.0000
  C   C39       1.0  0.11637000000000003  0.36619  0.62924  1.0000
  C   C40       1.0  0.29869  0.35385  0.60944  1.0000
  C   C41       1.0  0.41404  0.28863  0.62661  1.0000
  C   C42       1.0  0.34707  0.23460999999999996  0.66167  1.0000
  C   C43       1.0  0.36656000000000005  0.40565  0.56848  1.0000
  C   C44       1.0  0.9550700000000002  0.69956  0.02111  1.0000
  C   C45       1.0  0.75247  0.75806  0.08691  1.0000
  C   C46       1.0  0.88498  0.82833  0.09230999999999999  1.0000
  C   C47       1.0  0.15845000000000006  0.84648  0.03519  1.0000
  C   C48       1.0  0.2919  0.88991  0.07464  1.0000
  C   C49       1.0  0.42521  0.94974  0.06073  1.0000
  C   C50       1.0  0.42942000000000013  0.96785  0.00752  1.0000
  C   C51       1.0  0.2937700000000001  0.92207  0.9687699999999999  1.0000
  C   C52       1.0  0.15970000000000006  0.86218  0.982  1.0000
  C   C53       1.0  0.29143  0.40755  0.41401  1.0000
  C   C54       1.0  0.20061000000000007  0.35051999999999994  0.36130999999999996  1.0000
  C   C55       1.0  0.01777  0.37033  0.3498  1.0000
  C   C56       1.0  0.9334900000000003  0.31596  0.30088  1.0000
  C   C57       1.0  0.02681  0.23952  0.26273  1.0000
  C   C58       1.0  0.21087000000000003  0.22152  0.27396  1.0000
  C   C59       1.0  0.2969  0.27661  0.32261  1.0000
  C   C60       1.0  0.77437  0.11967  0.23525  1.0000
  C   C61       1.0  0.92135  0.17709  0.21216  1.0000
  C   C62       1.0  0.04647  0.10234999999999998  0.17125999999999997  1.0000
  C   C63       1.0  0.8365000000000002  0.24298000000000003  0.1791  1.0000
  C   C64       1.0  0.9494200000000003  0.31100999999999995  0.16302  1.0000
  C   C65       1.0  0.88248  0.36603  0.12869  1.0000
  C   C66       1.0  0.7003800000000002  0.35357000000000005  0.10901  1.0000
  C   C67       1.0  0.585  0.28846  0.12633  1.0000
  C   C68       1.0  0.65222  0.23499  0.16164  1.0000
  C   C69       1.0  0.63328  0.40594  0.06833  1.0000
  C   C70       1.0  0.04282  0.7003900000000001  0.52134  1.0000
  C   C71       1.0  0.24467  0.75841  0.5872  1.0000
  C   C72       1.0  0.11190000000000003  0.8287000000000001  0.59281  1.0000
  C   C73       1.0  0.83924  0.8473  0.53564  1.0000
  C   C74       1.0  0.7041500000000003  0.89018  0.57483  1.0000
  C   C75       1.0  0.57106  0.95003  0.56081  1.0000
  C   C76       1.0  0.5687800000000001  0.96875  0.50774  1.0000
  C   C77       1.0  0.7062400000000002  0.92362  0.46926999999999996  1.0000
  C   C78       1.0  0.83995  0.86365  0.4826  1.0000
  C   C79       1.0  0.29298  0.59249  0.08619  1.0000
  C   C80       1.0  0.20212  0.65029  0.13883  1.0000
  C   C81       1.0  0.018970000000000008  0.63094  0.15029  1.0000
  C   C82       1.0  0.93413  0.68536  0.19921  1.0000
  C   C83       1.0  0.02706  0.76158  0.23743  1.0000
  C   C84       1.0  0.21122  0.7795300000000002  0.22613  1.0000
  C   C85       1.0  0.29797  0.72431  0.17747999999999997  1.0000
  C   C86       1.0  0.7735200000000002  0.88119  0.26513  1.0000
  C   C87       1.0  0.9209  0.82389  0.2881  1.0000
  C   C88       1.0  0.04538  0.8988700000000001  0.32886  1.0000
  C   C89       1.0  0.8362900000000002  0.7580599999999998  0.32131  1.0000
  C   C90       1.0  0.94915  0.68984  0.33721  1.0000
  C   C91       1.0  0.88212  0.63469  0.37152  1.0000
  C   C92       1.0  0.6999200000000002  0.64715  0.3913499999999999  1.0000
  C   C93       1.0  0.5848900000000001  0.71282  0.37439  1.0000
  C   C94       1.0  0.6521400000000003  0.7664299999999998  0.3391  1.0000
  C   C95       1.0  0.6323400000000001  0.59431  0.43183999999999995  1.0000
  C   C96       1.0  0.04478  0.30044  0.97894  1.0000
  C   C97       1.0  0.24745000000000006  0.24181999999999995  0.9131899999999998  1.0000
  C   C98       1.0  0.11494000000000003  0.17158  0.90782  1.0000
  C   C99       1.0  0.8414100000000002  0.15349  0.96492  1.0000
  C   C100      1.0  0.70793  0.11006  0.92548  1.0000
  C   C101      1.0  0.57467  0.050189999999999915  0.9393799999999999  1.0000
  C   C102      1.0  0.5705400000000003  0.03203  0.99258  1.0000
  C   C103      1.0  0.7062400000000002  0.07778999999999998  0.03132  1.0000
  C   C104      1.0  0.84024  0.13773  0.0181  1.0000
  N   N1        1.0  0.7972800000000002  0.32255  0.45682999999999996  1.0000
  N   N2        1.0  0.01285  0.20999  0.44967  1.0000
  N   N3        1.0  0.79792  0.67826  0.04289  1.0000
  N   N4        1.0  0.0134  0.79075  0.05009  1.0000
  N   N5        1.0  0.19984  0.67887  0.54301  1.0000
  N   N6        1.0  0.98393  0.7914  0.55057  1.0000
  N   N7        1.0  0.20198  0.3216899999999999  0.95716  1.0000
  N   N8        1.0  0.98646  0.20922  0.95001  1.0000
  O   O1        1.0  0.7938900000000002  0.51939  0.55507  1.0000
  O   O2        1.0  0.54579  0.61969  0.5764  1.0000
  O   O3        1.0  0.26808  0.5241  0.93925  1.0000
  O   O4        1.0  0.5161  0.6238  0.95758  1.0000
  O   O5        1.0  0.79476  0.48089  0.94465  1.0000
  O   O6        1.0  0.5471899999999998  0.38028  0.92482  1.0000
  O   O7        1.0  0.26832  0.47562  0.56073  1.0000
  O   O8        1.0  0.5165  0.37578  0.54255  1.0000
  O   O9        1.0  0.20385  0.48114  0.4447999999999999  1.0000
  O   O10       1.0  0.45022  0.37958  0.42522  1.0000
  O   O11       1.0  0.73173  0.47592  0.06076  1.0000
  O   O12       1.0  0.4833900000000001  0.37638  0.04248  1.0000
  O   O13       1.0  0.20495  0.51933  0.05530999999999999  1.0000
  O   O14       1.0  0.45272  0.61974  0.07521  1.0000
  O   O15       1.0  0.73066  0.52414  0.43924  1.0000
  O   O16       1.0  0.48204  0.62378  0.4577  1.0000
