data_image0
_chemical_formula_structural       Zn6H66C70N22O36
_chemical_formula_sum              "Zn6 H66 C70 N22 O36"
_cell_length_a       12.37599
_cell_length_b       13.10573
_cell_length_c       16.09044
_cell_angle_alpha    78.98541
_cell_angle_beta     90.0
_cell_angle_gamma    90.0

_space_group_name_H-M_alt    "P 1"
_space_group_IT_number       1

loop_
  _space_group_symop_operation_xyz
  'x, y, z'

loop_
  _atom_site_type_symbol
  _atom_site_label
  _atom_site_symmetry_multiplicity
  _atom_site_fract_x
  _atom_site_fract_y
  _atom_site_fract_z
  _atom_site_occupancy
  Zn  Zn1       1.0  0.30874  0.5267899999999999  0.8730100000000002  1.0000
  Zn  Zn2       1.0  0.30874  0.9731899999999998  0.6269900000000003  1.0000
  Zn  Zn3       1.0  0.6912599999999999  0.47321  0.12699000000000005  1.0000
  Zn  Zn4       1.0  0.6912599999999999  0.02679999999999998  0.3730100000000001  1.0000
  Zn  Zn5       1.0  0.31145  0.7499899999999997  0.7500500000000002  1.0000
  Zn  Zn6       1.0  0.68855  0.25  0.24995000000000006  1.0000
  H   H1        1.0  0.48730000000000007  0.37744999999999995  0.9816400000000002  1.0000
  H   H2        1.0  0.43639000000000006  0.26225999999999994  0.13999000000000006  1.0000
  H   H3        1.0  0.16324  0.44065  0.03579  1.0000
  H   H4        1.0  0.060450000000000004  0.32117  0.11789000000000002  1.0000
  H   H5        1.0  0.63737  0.4333299999999999  0.8194100000000002  1.0000
  H   H6        1.0  0.55897  0.36989999999999984  0.7521800000000002  1.0000
  H   H7        1.0  0.55712  0.5358899999999998  0.64177  1.0000
  H   H8        1.0  0.64086  0.5962399999999997  0.7075200000000003  1.0000
  H   H9        1.0  0.72882  0.18176999999999993  0.5861500000000002  1.0000
  H   H10       1.0  0.87239  0.17929999999999996  0.5799  1.0000
  H   H11       1.0  0.72577  0.32782  0.4574300000000001  1.0000
  H   H12       1.0  0.87024  0.31962  0.45318000000000014  1.0000
  H   H13       1.0  0.06809  0.35501  0.7451400000000002  1.0000
  H   H14       1.0  2e-05  0.42995999999999995  0.8096100000000003  1.0000
  H   H15       1.0  0.08864000000000001  0.5084599999999998  0.6303400000000002  1.0000
  H   H16       1.0  0.0026600000000000005  0.5839999999999999  0.68261  1.0000
  H   H17       1.0  0.48730000000000007  0.12254000000000001  0.51836  1.0000
  H   H18       1.0  0.43639000000000006  0.23772999999999997  0.3600200000000001  1.0000
  H   H19       1.0  0.16324  0.059349999999999965  0.4642100000000001  1.0000
  H   H20       1.0  0.060450000000000004  0.17882999999999996  0.38211  1.0000
  H   H21       1.0  0.63737  0.06667  0.68059  1.0000
  H   H22       1.0  0.55897  0.13010000000000002  0.74782  1.0000
  H   H23       1.0  0.55713  0.9640999999999998  0.8582300000000003  1.0000
  H   H24       1.0  0.64087  0.9037499999999999  0.7924900000000002  1.0000
  H   H25       1.0  0.72882  0.3182299999999999  0.9138500000000002  1.0000
  H   H26       1.0  0.87239  0.3206999999999999  0.9201  1.0000
  H   H27       1.0  0.72577  0.17218  0.04257000000000001  1.0000
  H   H28       1.0  0.87024  0.18037999999999998  0.046820000000000014  1.0000
  H   H29       1.0  0.06809  0.14499  0.75486  1.0000
  H   H30       1.0  2e-05  0.07002999999999994  0.6904000000000002  1.0000
  H   H31       1.0  0.08862999999999999  0.9915399999999999  0.8696700000000003  1.0000
  H   H32       1.0  0.0026600000000000005  0.91599  0.8173900000000002  1.0000
  H   H33       1.0  0.5127  0.62254  0.018360000000000008  1.0000
  H   H34       1.0  0.56361  0.7377299999999999  0.86002  1.0000
  H   H35       1.0  0.83675  0.55935  0.9642100000000002  1.0000
  H   H36       1.0  0.93955  0.67882  0.8821100000000002  1.0000
  H   H37       1.0  0.36263  0.56667  0.18059  1.0000
  H   H38       1.0  0.44103  0.6301  0.24782000000000007  1.0000
  H   H39       1.0  0.44288  0.46409999999999996  0.3582300000000001  1.0000
  H   H40       1.0  0.35912999999999995  0.40375  0.29249  1.0000
  H   H41       1.0  0.27118  0.8182299999999998  0.4138500000000001  1.0000
  H   H42       1.0  0.1276  0.8206999999999997  0.4201000000000001  1.0000
  H   H43       1.0  0.27423  0.6721799999999999  0.5425800000000002  1.0000
  H   H44       1.0  0.12976  0.68038  0.5468300000000003  1.0000
  H   H45       1.0  0.93191  0.64499  0.2548600000000001  1.0000
  H   H46       1.0  0.99998  0.5700299999999999  0.19040000000000007  1.0000
  H   H47       1.0  0.9113600000000001  0.49154  0.3696700000000001  1.0000
  H   H48       1.0  0.9973400000000001  0.41598999999999997  0.31739  1.0000
  H   H49       1.0  0.5127  0.8774499999999998  0.4816400000000001  1.0000
  H   H50       1.0  0.56361  0.76226  0.63999  1.0000
  H   H51       1.0  0.83676  0.9406499999999999  0.53579  1.0000
  H   H52       1.0  0.93955  0.8211699999999997  0.6178900000000003  1.0000
  H   H53       1.0  0.36263  0.93333  0.31941  1.0000
  H   H54       1.0  0.44103  0.8699  0.25218  1.0000
  H   H55       1.0  0.44287  0.03588999999999998  0.14177000000000006  1.0000
  H   H56       1.0  0.35912999999999995  0.09624999999999996  0.20752000000000007  1.0000
  H   H57       1.0  0.27118  0.6817699999999999  0.08615000000000003  1.0000
  H   H58       1.0  0.1276  0.6792999999999998  0.07990000000000003  1.0000
  H   H59       1.0  0.27423  0.8278099999999999  0.9574300000000002  1.0000
  H   H60       1.0  0.12976  0.8196199999999997  0.9531800000000002  1.0000
  H   H61       1.0  0.93191  0.85501  0.24514000000000005  1.0000
  H   H62       1.0  0.99998  0.92996  0.3096100000000001  1.0000
  H   H63       1.0  0.9113600000000001  0.00845999999999999  0.13033000000000006  1.0000
  H   H64       1.0  0.9973400000000001  0.084  0.18261  1.0000
  H   H65       1.0  0.95966  0.24999999999999994  0.25  1.0000
  H   H66       1.0  0.04034  0.7499999999999997  0.75  1.0000
  C   C1        1.0  0.4123  0.37264999999999987  0.016730000000000005  1.0000
  C   C2        1.0  0.38787  0.31472  0.09454000000000003  1.0000
  C   C3        1.0  0.24286999999999997  0.40606999999999993  0.040980000000000016  1.0000
  C   C4        1.0  0.21656  0.29087  0.18078000000000005  1.0000
  C   C5        1.0  0.10392  0.29057999999999995  0.17608000000000004  1.0000
  C   C6        1.0  0.8163299999999999  0.43254  0.74372  1.0000
  C   C7        1.0  0.70861  0.33747999999999995  0.6538000000000003  1.0000
  C   C8        1.0  0.90893  0.3323999999999999  0.6492500000000002  1.0000
  C   C9        1.0  0.61874  0.43091999999999997  0.7534700000000002  1.0000
  C   C10       1.0  0.578  0.5368199999999999  0.70799  1.0000
  C   C11       1.0  0.47924  0.5713499999999999  0.7513900000000002  1.0000
  C   C12       1.0  0.80092  0.2288  0.56745  1.0000
  C   C13       1.0  0.7956600000000001  0.27639  0.4726500000000001  1.0000
  C   C14       1.0  0.78797  0.18488999999999994  0.42745  1.0000
  C   C15       1.0  0.01422  0.42116999999999993  0.7443300000000003  1.0000
  C   C16       1.0  0.0625  0.5210699999999998  0.69299  1.0000
  C   C17       1.0  0.15941  0.5566099999999999  0.7384000000000002  1.0000
  C   C18       1.0  0.4123  0.12734999999999996  0.4832700000000001  1.0000
  C   C19       1.0  0.38787  0.18528  0.40546  1.0000
  C   C20       1.0  0.24286999999999997  0.09392999999999999  0.45902  1.0000
  C   C21       1.0  0.21656  0.20911999999999994  0.3192200000000001  1.0000
  C   C22       1.0  0.10392  0.20942  0.32392  1.0000
  C   C23       1.0  0.8163299999999999  0.06744999999999993  0.7562900000000002  1.0000
  C   C24       1.0  0.70861  0.1625199999999999  0.8462100000000002  1.0000
  C   C25       1.0  0.90893  0.16760000000000003  0.85075  1.0000
  C   C26       1.0  0.61873  0.06907999999999996  0.7465400000000002  1.0000
  C   C27       1.0  0.57801  0.9631699999999997  0.7920100000000002  1.0000
  C   C28       1.0  0.47924  0.92865  0.7486200000000002  1.0000
  C   C29       1.0  0.80092  0.2711899999999999  0.9325500000000002  1.0000
  C   C30       1.0  0.79567  0.2236  0.02735  1.0000
  C   C31       1.0  0.78797  0.31511  0.07255000000000003  1.0000
  C   C32       1.0  0.01422  0.07882999999999994  0.7556700000000002  1.0000
  C   C33       1.0  0.0625  0.97892  0.80701  1.0000
  C   C34       1.0  0.15942  0.9433799999999998  0.7616100000000002  1.0000
  C   C35       1.0  0.5877  0.6273499999999999  0.9832700000000002  1.0000
  C   C36       1.0  0.61213  0.68528  0.9054700000000002  1.0000
  C   C37       1.0  0.75713  0.5939199999999999  0.9590200000000002  1.0000
  C   C38       1.0  0.78344  0.7091199999999999  0.81922  1.0000
  C   C39       1.0  0.8960800000000001  0.7094199999999999  0.8239200000000002  1.0000
  C   C40       1.0  0.18367  0.5674499999999999  0.25629  1.0000
  C   C41       1.0  0.29139  0.66252  0.34621000000000013  1.0000
  C   C42       1.0  0.09107  0.6675999999999997  0.3507500000000001  1.0000
  C   C43       1.0  0.38126  0.56908  0.24653000000000005  1.0000
  C   C44       1.0  0.42199000000000003  0.46318  0.29201  1.0000
  C   C45       1.0  0.52076  0.42865  0.24861  1.0000
  C   C46       1.0  0.19908  0.77119  0.43255  1.0000
  C   C47       1.0  0.20433  0.7236  0.5273600000000003  1.0000
  C   C48       1.0  0.21203  0.8151  0.57256  1.0000
  C   C49       1.0  0.98577  0.5788300000000001  0.25567  1.0000
  C   C50       1.0  0.9375  0.47893  0.3070100000000001  1.0000
  C   C51       1.0  0.84058  0.44337999999999994  0.2616000000000001  1.0000
  C   C52       1.0  0.5877  0.87265  0.51673  1.0000
  C   C53       1.0  0.61213  0.81472  0.5945400000000002  1.0000
  C   C54       1.0  0.75713  0.90607  0.54098  1.0000
  C   C55       1.0  0.78344  0.7908699999999997  0.68078  1.0000
  C   C56       1.0  0.8960800000000001  0.79058  0.6760800000000002  1.0000
  C   C57       1.0  0.18367  0.93254  0.24372000000000005  1.0000
  C   C58       1.0  0.29139  0.83748  0.1538  1.0000
  C   C59       1.0  0.09107  0.8323999999999998  0.14925  1.0000
  C   C60       1.0  0.38126  0.9309199999999999  0.2534700000000001  1.0000
  C   C61       1.0  0.42199000000000003  0.03681999999999998  0.20799000000000006  1.0000
  C   C62       1.0  0.52076  0.07134999999999997  0.2513800000000001  1.0000
  C   C63       1.0  0.19908  0.7288  0.06745000000000002  1.0000
  C   C64       1.0  0.20433  0.7763899999999999  0.9726500000000002  1.0000
  C   C65       1.0  0.21202  0.68489  0.9274600000000002  1.0000
  C   C66       1.0  0.98577  0.9211599999999998  0.24433000000000005  1.0000
  C   C67       1.0  0.9375  0.021069999999999988  0.19299000000000005  1.0000
  C   C68       1.0  0.84058  0.05660999999999997  0.23840000000000006  1.0000
  C   C69       1.0  0.04757  0.24999999999999994  0.25  1.0000
  C   C70       1.0  0.95242  0.7499999999999997  0.75  1.0000
  N   N1        1.0  0.32161  0.42933  0.98425  1.0000
  N   N2        1.0  0.27959  0.3357499999999999  0.10900000000000003  1.0000
  N   N3        1.0  0.71852  0.39920999999999984  0.71522  1.0000
  N   N4        1.0  0.80648  0.3047199999999999  0.6239400000000003  1.0000
  N   N5        1.0  0.90911  0.3946399999999998  0.7107600000000002  1.0000
  N   N6        1.0  0.32161  0.07067  0.51575  1.0000
  N   N7        1.0  0.27959  0.16424999999999995  0.39101000000000014  1.0000
  N   N8        1.0  0.71852  0.10078999999999994  0.7847800000000003  1.0000
  N   N9        1.0  0.80648  0.19526999999999994  0.8760700000000002  1.0000
  N   N10       1.0  0.90911  0.10534999999999994  0.7892400000000003  1.0000
  N   N11       1.0  0.67839  0.57067  0.01575  1.0000
  N   N12       1.0  0.72041  0.6642399999999998  0.8910100000000002  1.0000
  N   N13       1.0  0.28148  0.6007900000000002  0.28478  1.0000
  N   N14       1.0  0.19352000000000003  0.69527  0.3760700000000001  1.0000
  N   N15       1.0  0.09089  0.60535  0.28924000000000005  1.0000
  N   N16       1.0  0.67839  0.92933  0.4842500000000001  1.0000
  N   N17       1.0  0.72041  0.8357499999999998  0.6090000000000002  1.0000
  N   N18       1.0  0.28148  0.8992099999999997  0.21522  1.0000
  N   N19       1.0  0.19352000000000003  0.80472  0.12394000000000002  1.0000
  N   N20       1.0  0.09089  0.89464  0.21076000000000006  1.0000
  N   N21       1.0  0.273  0.24999999999999994  0.25  1.0000
  N   N22       1.0  0.72699  0.7499999999999997  0.75  1.0000
  O   O1        1.0  0.43425  0.6557599999999999  0.7166200000000003  1.0000
  O   O2        1.0  0.4504  0.51155  0.8203300000000002  1.0000
  O   O3        1.0  0.85853  0.11604999999999997  0.4377300000000001  1.0000
  O   O4        1.0  0.69818  0.1769499999999999  0.3844300000000001  1.0000
  O   O5        1.0  0.18528  0.6518499999999998  0.7207600000000002  1.0000
  O   O6        1.0  0.20622999999999997  0.4856199999999999  0.7921300000000002  1.0000
  O   O7        1.0  0.82023  0.48993999999999993  0.79578  1.0000
  O   O8        1.0  0.6206  0.31248999999999993  0.6289500000000002  1.0000
  O   O9        1.0  0.99263  0.3029699999999999  0.62048  1.0000
  O   O10       1.0  0.43426000000000003  0.8442399999999998  0.78339  1.0000
  O   O11       1.0  0.4504  0.9884399999999999  0.67968  1.0000
  O   O12       1.0  0.85853  0.38394999999999996  0.06227000000000001  1.0000
  O   O13       1.0  0.69818  0.3230499999999999  0.11555000000000003  1.0000
  O   O14       1.0  0.18527  0.8481399999999997  0.7792500000000002  1.0000
  O   O15       1.0  0.20622999999999997  0.014379999999999973  0.7078800000000002  1.0000
  O   O16       1.0  0.82023  0.01005999999999996  0.7042300000000002  1.0000
  O   O17       1.0  0.6206  0.18749999999999994  0.8710500000000001  1.0000
  O   O18       1.0  0.99263  0.19701999999999995  0.8795200000000002  1.0000
  O   O19       1.0  0.56574  0.3442399999999999  0.2833900000000001  1.0000
  O   O20       1.0  0.5496  0.48845  0.17968000000000006  1.0000
  O   O21       1.0  0.14147  0.88395  0.56227  1.0000
  O   O22       1.0  0.30182  0.82305  0.61557  1.0000
  O   O23       1.0  0.81472  0.34814999999999996  0.27925  1.0000
  O   O24       1.0  0.7937600000000001  0.51438  0.20788000000000006  1.0000
  O   O25       1.0  0.17977  0.5100599999999997  0.20423000000000005  1.0000
  O   O26       1.0  0.37940000000000007  0.6875  0.3710500000000001  1.0000
  O   O27       1.0  0.007359999999999999  0.69702  0.37952  1.0000
  O   O28       1.0  0.56574  0.15576  0.21661000000000005  1.0000
  O   O29       1.0  0.5496  0.01154999999999997  0.3203200000000001  1.0000
  O   O30       1.0  0.14146  0.6160499999999999  0.9377400000000002  1.0000
  O   O31       1.0  0.30182  0.67694  0.88445  1.0000
  O   O32       1.0  0.81472  0.15184999999999998  0.22075000000000006  1.0000
  O   O33       1.0  0.7937600000000001  0.9856199999999999  0.2921200000000001  1.0000
  O   O34       1.0  0.17977  0.9899399999999998  0.2957800000000001  1.0000
  O   O35       1.0  0.37940000000000007  0.8124899999999998  0.12895  1.0000
  O   O36       1.0  0.007359999999999999  0.80297  0.12048  1.0000
