data_image0
_chemical_formula_structural       Co4H52C102O24F36
_chemical_formula_sum              "Co4 H52 C102 O24 F36"
_cell_length_a       7.32991
_cell_length_b       19.09976
_cell_length_c       20.47295
_cell_angle_alpha    106.53781
_cell_angle_beta     90.0
_cell_angle_gamma    90.0

_symmetry_space_group_name_H-M    'P 1'
_symmetry_Int_Tables_number       1

loop_
  _symmetry_equiv_pos_as_xyz
  'x,y,z'

loop_
  _atom_site_type_symbol
  _atom_site_label
  _atom_site_symmetry_multiplicity
  _atom_site_fract_x
  _atom_site_fract_y
  _atom_site_fract_z
  _atom_site_occupancy
  Co  Co1       1.0  0.64981  0.023300000000000005  0.47593  1.0000
  Co  Co2       1.0  0.64981  0.47669999999999996  0.024070000000000005  1.0000
  Co  Co3       1.0  0.35019  0.9767099999999999  0.52407  1.0000
  Co  Co4       1.0  0.35019  0.5233  0.9759300000000001  1.0000
  H   H1        1.0  0.9784500000000002  0.16219999999999998  0.58223  1.0000
  H   H2        1.0  0.45912  0.25689  0.52048  1.0000
  H   H3        1.0  0.97965  0.41045  0.8422300000000001  1.0000
  H   H4        1.0  0.83859  0.28551000000000004  0.6211100000000002  1.0000
  H   H5        1.0  0.31977  0.37712  0.55533  1.0000
  H   H6        1.0  0.48426  0.48387  0.7706  1.0000
  H   H7        1.0  0.11518  0.3872999999999998  0.72673  1.0000
  H   H8        1.0  0.14245  0.08064000000000003  0.36871  1.0000
  H   H9        1.0  0.81755  0.27383  0.3931  1.0000
  H   H10       1.0  0.0252  0.31518  0.317  1.0000
  H   H11       1.0  0.35636  0.12288000000000002  0.29530000000000006  1.0000
  H   H12       1.0  0.61941  0.46532000000000007  0.6569000000000002  1.0000
  H   H13       1.0  0.59504  0.16580999999999999  0.47011000000000003  1.0000
  H   H14       1.0  0.9784500000000002  0.33780999999999994  0.9177700000000001  1.0000
  H   H15       1.0  0.45912  0.24310999999999997  0.97952  1.0000
  H   H16       1.0  0.97965  0.08955  0.65778  1.0000
  H   H17       1.0  0.83859  0.21448999999999996  0.87889  1.0000
  H   H18       1.0  0.31977  0.12287999999999999  0.9446800000000001  1.0000
  H   H19       1.0  0.48426  0.016129999999999988  0.7294  1.0000
  H   H20       1.0  0.11518  0.11270000000000002  0.77327  1.0000
  H   H21       1.0  0.14245  0.41936  0.13129  1.0000
  H   H22       1.0  0.81755  0.22617  0.1069  1.0000
  H   H23       1.0  0.0252  0.18482999999999997  0.183  1.0000
  H   H24       1.0  0.35636  0.37712  0.2047  1.0000
  H   H25       1.0  0.61941  0.03468000000000003  0.8431  1.0000
  H   H26       1.0  0.59504  0.33419  0.02989  1.0000
  H   H27       1.0  0.02155  0.83781  0.41777  1.0000
  H   H28       1.0  0.54088  0.7431100000000002  0.47952  1.0000
  H   H29       1.0  0.02035  0.5895499999999999  0.15778  1.0000
  H   H30       1.0  0.16141  0.71449  0.37889  1.0000
  H   H31       1.0  0.68023  0.6228799999999999  0.44467  1.0000
  H   H32       1.0  0.51574  0.51613  0.22940000000000002  1.0000
  H   H33       1.0  0.88482  0.6127  0.27327  1.0000
  H   H34       1.0  0.85755  0.91936  0.63129  1.0000
  H   H35       1.0  0.18245  0.7261699999999998  0.6069000000000001  1.0000
  H   H36       1.0  0.9748000000000002  0.6848300000000002  0.6830000000000002  1.0000
  H   H37       1.0  0.64364  0.87712  0.7047  1.0000
  H   H38       1.0  0.38059  0.53468  0.3431  1.0000
  H   H39       1.0  0.40496  0.8341899999999998  0.5298900000000001  1.0000
  H   H40       1.0  0.02155  0.6621999999999999  0.08223000000000001  1.0000
  H   H41       1.0  0.54088  0.75689  0.02048  1.0000
  H   H42       1.0  0.02035  0.91046  0.34223  1.0000
  H   H43       1.0  0.16141  0.78551  0.12111000000000001  1.0000
  H   H44       1.0  0.68023  0.87712  0.055330000000000004  1.0000
  H   H45       1.0  0.51574  0.98387  0.2706  1.0000
  H   H46       1.0  0.88482  0.8872999999999999  0.22673  1.0000
  H   H47       1.0  0.85755  0.58064  0.8687100000000001  1.0000
  H   H48       1.0  0.18245  0.77384  0.8931  1.0000
  H   H49       1.0  0.9748000000000002  0.8151800000000001  0.8170000000000001  1.0000
  H   H50       1.0  0.64364  0.62288  0.7953  1.0000
  H   H51       1.0  0.38059  0.96532  0.1569  1.0000
  H   H52       1.0  0.40496  0.66581  0.97011  1.0000
  C   C1        1.0  0.6411300000000001  0.46308999999999995  0.88147  1.0000
  C   C2        1.0  0.31651  0.12775999999999998  0.53066  1.0000
  C   C3        1.0  0.052670000000000015  0.20999000000000004  0.5776400000000002  1.0000
  C   C4        1.0  0.22928  0.20116999999999993  0.54987  1.0000
  C   C5        1.0  0.32291  0.26221  0.54216  1.0000
  C   C6        1.0  0.82801  0.14507  0.42427  1.0000
  C   C7        1.0  0.84303  0.41844  0.55602  1.0000
  C   C8        1.0  0.11082  0.48098  0.62579  1.0000
  C   C9        1.0  0.44599  0.31037  0.29655  1.0000
  C   C10       1.0  0.7227200000000001  0.44715  0.8126700000000001  1.0000
  C   C11       1.0  0.90129  0.42045  0.80059  1.0000
  C   C12       1.0  0.97542  0.41536  0.61499  1.0000
  C   C13       1.0  0.0696  0.3406  0.59181  1.0000
  C   C14       1.0  0.87812  0.42529  0.68353  1.0000
  C   C15       1.0  0.97427  0.27914999999999995  0.59862  1.0000
  C   C16       1.0  0.24348000000000006  0.33118  0.56238  1.0000
  C   C17       1.0  0.62231  0.46263999999999994  0.7603  1.0000
  C   C18       1.0  0.97748  0.40898000000000007  0.7361400000000001  1.0000
  C   C19       1.0  0.11848  0.13217  0.35754  1.0000
  C   C20       1.0  0.96358  0.17329  0.38436000000000003  1.0000
  C   C21       1.0  0.93448  0.24066999999999997  0.37115000000000004  1.0000
  C   C22       1.0  0.05206  0.26389  0.32833000000000007  1.0000
  C   C23       1.0  0.20248  0.22107999999999997  0.29855  1.0000
  C   C24       1.0  0.23798  0.15614  0.31536  1.0000
  C   C25       1.0  0.69985  0.45217999999999997  0.69623  1.0000
  C   C26       1.0  0.6411300000000001  0.03690999999999999  0.61854  1.0000
  C   C27       1.0  0.3165  0.37223999999999996  0.9693500000000002  1.0000
  C   C28       1.0  0.052670000000000015  0.29001  0.92236  1.0000
  C   C29       1.0  0.22928  0.29883  0.9501300000000001  1.0000
  C   C30       1.0  0.32291  0.23779000000000006  0.9578400000000001  1.0000
  C   C31       1.0  0.828  0.35492999999999997  0.07573  1.0000
  C   C32       1.0  0.84303  0.08155999999999998  0.9439800000000002  1.0000
  C   C33       1.0  0.11082  0.01901999999999998  0.87421  1.0000
  C   C34       1.0  0.44599  0.18962999999999994  0.20345  1.0000
  C   C35       1.0  0.72273  0.052860000000000004  0.68733  1.0000
  C   C36       1.0  0.90129  0.07955000000000004  0.6994100000000002  1.0000
  C   C37       1.0  0.97542  0.08463999999999999  0.88501  1.0000
  C   C38       1.0  0.0696  0.1594  0.9081900000000002  1.0000
  C   C39       1.0  0.87812  0.07471000000000003  0.8164800000000001  1.0000
  C   C40       1.0  0.97427  0.22085  0.90138  1.0000
  C   C41       1.0  0.24348000000000006  0.16882  0.93762  1.0000
  C   C42       1.0  0.62231  0.03736000000000007  0.7397000000000001  1.0000
  C   C43       1.0  0.97748  0.09102000000000002  0.76386  1.0000
  C   C44       1.0  0.11848  0.36784  0.14246  1.0000
  C   C45       1.0  0.96358  0.32671  0.11564000000000002  1.0000
  C   C46       1.0  0.93448  0.25933  0.12885  1.0000
  C   C47       1.0  0.05206  0.23611  0.17167  1.0000
  C   C48       1.0  0.20248  0.27892  0.20145  1.0000
  C   C49       1.0  0.23798  0.34385999999999994  0.18464  1.0000
  C   C50       1.0  0.69985  0.04781999999999998  0.8037800000000002  1.0000
  C   C51       1.0  0.35887  0.53691  0.11854000000000002  1.0000
  C   C52       1.0  0.68349  0.87224  0.46934000000000003  1.0000
  C   C53       1.0  0.94733  0.7900099999999998  0.42236  1.0000
  C   C54       1.0  0.77072  0.79883  0.45013  1.0000
  C   C55       1.0  0.67709  0.73779  0.45784  1.0000
  C   C56       1.0  0.172  0.85493  0.57573  1.0000
  C   C57       1.0  0.15697  0.58156  0.44398000000000004  1.0000
  C   C58       1.0  0.8891800000000002  0.51902  0.37421  1.0000
  C   C59       1.0  0.55401  0.68963  0.7034500000000002  1.0000
  C   C60       1.0  0.27727  0.55286  0.18733  1.0000
  C   C61       1.0  0.09871  0.57955  0.19941  1.0000
  C   C62       1.0  0.024580000000000005  0.58464  0.38501  1.0000
  C   C63       1.0  0.9304  0.6594  0.40819000000000005  1.0000
  C   C64       1.0  0.12188  0.57471  0.31647  1.0000
  C   C65       1.0  0.02573  0.7208500000000001  0.4013800000000001  1.0000
  C   C66       1.0  0.75652  0.6688199999999999  0.43762000000000006  1.0000
  C   C67       1.0  0.37769  0.53736  0.23970000000000005  1.0000
  C   C68       1.0  0.02252  0.59102  0.26386  1.0000
  C   C69       1.0  0.88153  0.8678399999999998  0.64246  1.0000
  C   C70       1.0  0.03642  0.8267099999999997  0.61564  1.0000
  C   C71       1.0  0.06552  0.7593299999999997  0.6288500000000001  1.0000
  C   C72       1.0  0.9479400000000002  0.73611  0.67167  1.0000
  C   C73       1.0  0.79752  0.7789299999999998  0.70145  1.0000
  C   C74       1.0  0.76202  0.84386  0.68464  1.0000
  C   C75       1.0  0.30015  0.54782  0.30378  1.0000
  C   C76       1.0  0.35887  0.96309  0.38147  1.0000
  C   C77       1.0  0.68349  0.62777  0.03066  1.0000
  C   C78       1.0  0.94733  0.70999  0.07764  1.0000
  C   C79       1.0  0.77072  0.7011699999999998  0.049870000000000005  1.0000
  C   C80       1.0  0.67709  0.76221  0.04216  1.0000
  C   C81       1.0  0.17199  0.64507  0.92427  1.0000
  C   C82       1.0  0.15697  0.9184399999999999  0.05602  1.0000
  C   C83       1.0  0.8891800000000002  0.9809899999999999  0.12579  1.0000
  C   C84       1.0  0.55401  0.81037  0.79655  1.0000
  C   C85       1.0  0.27728  0.94715  0.31267  1.0000
  C   C86       1.0  0.09871  0.92045  0.30059  1.0000
  C   C87       1.0  0.024580000000000005  0.9153599999999998  0.11499000000000001  1.0000
  C   C88       1.0  0.9304  0.8406  0.09181000000000002  1.0000
  C   C89       1.0  0.12188  0.92529  0.18353  1.0000
  C   C90       1.0  0.02573  0.7791499999999999  0.09862  1.0000
  C   C91       1.0  0.75652  0.83118  0.062380000000000005  1.0000
  C   C92       1.0  0.3777  0.96265  0.2603  1.0000
  C   C93       1.0  0.02252  0.90898  0.23614000000000004  1.0000
  C   C94       1.0  0.88152  0.6321699999999999  0.85754  1.0000
  C   C95       1.0  0.03642  0.67329  0.88436  1.0000
  C   C96       1.0  0.06552  0.7406700000000002  0.87115  1.0000
  C   C97       1.0  0.9479400000000002  0.76389  0.8283300000000002  1.0000
  C   C98       1.0  0.79752  0.7210799999999999  0.79855  1.0000
  C   C99       1.0  0.76202  0.65614  0.8153600000000001  1.0000
  C   C100      1.0  0.30015  0.95218  0.19623  1.0000
  C   C101      1.0  0.32223  0.25  0.25  1.0000
  C   C102      1.0  0.6777700000000001  0.7499999999999998  0.75  1.0000
  O   O1        1.0  0.72753  0.44412  0.9279500000000002  1.0000
  O   O2        1.0  0.48846  0.4969000000000001  0.8901600000000001  1.0000
  O   O3        1.0  0.47614  0.12095000000000006  0.5031500000000001  1.0000
  O   O4        1.0  0.23014  0.07533000000000001  0.54348  1.0000
  O   O5        1.0  0.68745  0.18953  0.44515  1.0000
  O   O6        1.0  0.8436800000000001  0.08417000000000004  0.43543000000000004  1.0000
  O   O7        1.0  0.72753  0.05589000000000003  0.5720500000000001  1.0000
  O   O8        1.0  0.48847000000000007  0.0031000000000000194  0.6098400000000002  1.0000
  O   O9        1.0  0.47614  0.37905  0.9968500000000001  1.0000
  O   O10       1.0  0.23011  0.42467  0.95653  1.0000
  O   O11       1.0  0.68745  0.31047  0.05485  1.0000
  O   O12       1.0  0.8436800000000001  0.41584  0.06457  1.0000
  O   O13       1.0  0.27247  0.55589  0.07205  1.0000
  O   O14       1.0  0.51153  0.5030999999999999  0.10984000000000001  1.0000
  O   O15       1.0  0.52386  0.8790599999999997  0.49685  1.0000
  O   O16       1.0  0.76988  0.92467  0.45653  1.0000
  O   O17       1.0  0.31255  0.8104699999999999  0.55485  1.0000
  O   O18       1.0  0.15632  0.9158399999999999  0.56457  1.0000
  O   O19       1.0  0.27247  0.94412  0.42795000000000005  1.0000
  O   O20       1.0  0.51153  0.9969  0.39016  1.0000
  O   O21       1.0  0.52386  0.62095  0.003150000000000001  1.0000
  O   O22       1.0  0.76985  0.57533  0.04349  1.0000
  O   O23       1.0  0.31255  0.68954  0.9451500000000002  1.0000
  O   O24       1.0  0.15631  0.58417  0.93543  1.0000
  F   F1        1.0  0.70004  0.37138  0.55188  1.0000
  F   F2        1.0  0.9272900000000002  0.39916999999999997  0.49426  1.0000
  F   F3        1.0  0.77154  0.4862599999999999  0.5648500000000001  1.0000
  F   F4        1.0  0.18212  0.4862599999999999  0.56586  1.0000
  F   F5        1.0  0.25399  0.47559999999999997  0.6671300000000001  1.0000
  F   F6        1.0  0.02699  0.54544  0.65604  1.0000
  F   F7        1.0  0.34656  0.37122  0.3277  1.0000
  F   F8        1.0  0.58255  0.3303499999999999  0.26014000000000004  1.0000
  F   F9        1.0  0.52682  0.28818  0.34714  1.0000
  F   F10       1.0  0.70004  0.12862  0.94812  1.0000
  F   F11       1.0  0.9272900000000002  0.10082999999999999  0.005740000000000001  1.0000
  F   F12       1.0  0.77154  0.013750000000000021  0.9351500000000001  1.0000
  F   F13       1.0  0.18212  0.013740000000000028  0.9341400000000001  1.0000
  F   F14       1.0  0.25398  0.024400000000000043  0.8328600000000002  1.0000
  F   F15       1.0  0.02699  0.95457  0.84396  1.0000
  F   F16       1.0  0.34656  0.12878  0.1723  1.0000
  F   F17       1.0  0.58255  0.16965  0.23986000000000002  1.0000
  F   F18       1.0  0.52682  0.21181999999999998  0.15286  1.0000
  F   F19       1.0  0.29996  0.62862  0.44812  1.0000
  F   F20       1.0  0.07271  0.60083  0.50574  1.0000
  F   F21       1.0  0.22846  0.51375  0.43515000000000004  1.0000
  F   F22       1.0  0.81788  0.51374  0.43414  1.0000
  F   F23       1.0  0.74601  0.5244  0.33287000000000005  1.0000
  F   F24       1.0  0.97301  0.45457  0.34396  1.0000
  F   F25       1.0  0.65344  0.6287799999999999  0.6723  1.0000
  F   F26       1.0  0.41745  0.6696500000000001  0.7398600000000001  1.0000
  F   F27       1.0  0.47318  0.71182  0.6528600000000001  1.0000
  F   F28       1.0  0.29996  0.87138  0.05188000000000001  1.0000
  F   F29       1.0  0.07271  0.89917  0.99426  1.0000
  F   F30       1.0  0.22846  0.98626  0.06485  1.0000
  F   F31       1.0  0.81788  0.98626  0.06586  1.0000
  F   F32       1.0  0.74602  0.9756  0.16714  1.0000
  F   F33       1.0  0.97301  0.04543  0.15604  1.0000
  F   F34       1.0  0.65344  0.87122  0.8277  1.0000
  F   F35       1.0  0.41745  0.8303499999999999  0.76014  1.0000
  F   F36       1.0  0.47318  0.78818  0.8471400000000001  1.0000
