data_image0
_chemical_formula_structural       Rb12H52C56S8O56
_chemical_formula_sum              "Rb12 H52 C56 S8 O56"
_cell_length_a       7.24739
_cell_length_b       14.86489
_cell_length_c       23.07115
_cell_angle_alpha    89.97860000000001
_cell_angle_beta     90.07865
_cell_angle_gamma    95.59557

_space_group_name_H-M_alt    "P 1"
_space_group_IT_number       1

loop_
  _space_group_symop_operation_xyz
  'x, y, z'

loop_
  _atom_site_type_symbol
  _atom_site_label
  _atom_site_symmetry_multiplicity
  _atom_site_fract_x
  _atom_site_fract_y
  _atom_site_fract_z
  _atom_site_occupancy
  Rb  Rb1       1.0  0.70949  0.9939499999999999  0.4339  1.0000
  Rb  Rb2       1.0  0.5960199999999998  0.77524  0.03507  1.0000
  Rb  Rb3       1.0  0.0011499999999999705  0.3914399999999999  0.12612  1.0000
  Rb  Rb4       1.0  0.79029  0.007749999999999998  0.93343  1.0000
  Rb  Rb5       1.0  0.90439  0.22469999999999996  0.53513  1.0000
  Rb  Rb6       1.0  0.49700999999999984  0.6082999999999997  0.62496  1.0000
  Rb  Rb7       1.0  0.29052  0.0060599999999999985  0.5661  1.0000
  Rb  Rb8       1.0  0.4039799999999999  0.22475999999999993  0.96492  1.0000
  Rb  Rb9       1.0  0.99885  0.60857  0.8738800000000001  1.0000
  Rb  Rb10      1.0  0.20971999999999993  0.9922599999999998  0.06657  1.0000
  Rb  Rb11      1.0  0.09561  0.7753  0.4648700000000001  1.0000
  Rb  Rb12      1.0  0.503  0.3917  0.37503000000000003  1.0000
  H   H1        1.0  0.77358  0.16731  0.33937  1.0000
  H   H2        1.0  0.6590399999999998  0.60138  0.14501  1.0000
  H   H3        1.0  0.47495999999999994  0.8552299999999998  0.28693  1.0000
  H   H4        1.0  0.72031  0.22109999999999994  0.15168  1.0000
  H   H5        1.0  0.67198  0.6037999999999998  0.33797  1.0000
  H   H6        1.0  0.00924  0.7982099999999999  0.9568  1.0000
  H   H7        1.0  0.98193  0.71882  0.0007900000000000002  1.0000
  H   H8        1.0  0.59148  0.41362  0.13341  1.0000
  H   H9        1.0  0.4714  0.3238  0.12703  1.0000
  H   H10       1.0  0.75816  0.4076999999999999  0.25372  1.0000
  H   H11       1.0  0.7803099999999998  0.9496199999999998  0.27394  1.0000
  H   H12       1.0  0.4915099999999999  0.8104699999999999  0.18252  1.0000
  H   H13       1.0  0.7479  0.9341299999999998  0.16597  1.0000
  H   H14       1.0  0.7260100000000002  0.83276  0.8394200000000002  1.0000
  H   H15       1.0  0.8367899999999999  0.4014199999999999  0.64444  1.0000
  H   H16       1.0  0.02642  0.14616  0.78477  1.0000
  H   H17       1.0  0.77774  0.7787899999999998  0.6517300000000001  1.0000
  H   H18       1.0  0.82691  0.3963399999999999  0.83716  1.0000
  H   H19       1.0  0.49108  0.20096999999999995  0.45639000000000013  1.0000
  H   H20       1.0  0.51577  0.28018  0.50044  1.0000
  H   H21       1.0  0.90719  0.58647  0.63481  1.0000
  H   H22       1.0  0.03009999999999995  0.6758299999999998  0.6283  1.0000
  H   H23       1.0  0.73212  0.59258  0.7536600000000002  1.0000
  H   H24       1.0  0.72068  0.05049  0.7739100000000001  1.0000
  H   H25       1.0  0.008589999999999999  0.19203  0.6809300000000001  1.0000
  H   H26       1.0  0.7533  0.066  0.666  1.0000
  H   H27       1.0  0.22642  0.83269  0.6606300000000002  1.0000
  H   H28       1.0  0.34096  0.39861999999999986  0.8549900000000001  1.0000
  H   H29       1.0  0.52504  0.14476999999999998  0.71307  1.0000
  H   H30       1.0  0.27969  0.77891  0.84832  1.0000
  H   H31       1.0  0.32802  0.3961999999999999  0.66203  1.0000
  H   H32       1.0  0.99076  0.20178999999999994  0.04319  1.0000
  H   H33       1.0  0.01806999999999998  0.2811899999999999  0.9992  1.0000
  H   H34       1.0  0.40852  0.58638  0.8666000000000003  1.0000
  H   H35       1.0  0.5286  0.6762  0.8729800000000001  1.0000
  H   H36       1.0  0.24184999999999998  0.5922999999999999  0.7462700000000001  1.0000
  H   H37       1.0  0.21968999999999994  0.05039  0.72606  1.0000
  H   H38       1.0  0.50849  0.18952999999999995  0.8174800000000001  1.0000
  H   H39       1.0  0.2521  0.06588  0.83403  1.0000
  H   H40       1.0  0.274  0.16725  0.16057000000000002  1.0000
  H   H41       1.0  0.16321  0.59858  0.3555600000000001  1.0000
  H   H42       1.0  0.9735899999999998  0.8538499999999998  0.21522  1.0000
  H   H43       1.0  0.22226999999999994  0.22121999999999994  0.34826  1.0000
  H   H44       1.0  0.17308999999999997  0.6036699999999998  0.16283000000000003  1.0000
  H   H45       1.0  0.50892  0.79904  0.54361  1.0000
  H   H46       1.0  0.48423  0.7198199999999998  0.49956  1.0000
  H   H47       1.0  0.09282  0.41354  0.36519  1.0000
  H   H48       1.0  0.96991  0.32417  0.3717  1.0000
  H   H49       1.0  0.26787999999999995  0.4074199999999999  0.24633  1.0000
  H   H50       1.0  0.27932999999999997  0.9495099999999997  0.22609000000000004  1.0000
  H   H51       1.0  0.9914199999999995  0.8079799999999998  0.31906  1.0000
  H   H52       1.0  0.24669999999999997  0.9340099999999998  0.334  1.0000
  C   C1        1.0  0.7621399999999998  0.17204  0.23812000000000003  1.0000
  C   C2        1.0  0.64145  0.62276  0.24584000000000003  1.0000
  C   C3        1.0  0.77025  0.09369  0.27289  1.0000
  C   C4        1.0  0.59664  0.6838399999999998  0.20181  1.0000
  C   C5        1.0  0.76951  0.00852  0.24655000000000005  1.0000
  C   C6        1.0  0.5345899999999999  0.7671199999999998  0.21704000000000004  1.0000
  C   C7        1.0  0.75116  0.0  0.18677  1.0000
  C   C8        1.0  0.52344  0.79087  0.27493  1.0000
  C   C9        1.0  0.73244  0.07688999999999997  0.1527  1.0000
  C   C10       1.0  0.57459  0.7322399999999998  0.3186800000000001  1.0000
  C   C11       1.0  0.73937  0.162  0.17806  1.0000
  C   C12       1.0  0.63137  0.6488399999999998  0.30417  1.0000
  C   C13       1.0  0.77331  0.2625  0.26541  1.0000
  C   C14       1.0  0.6958199999999998  0.5334199999999998  0.22973  1.0000
  C   C15       1.0  0.73624  0.8279199999999998  0.7381  1.0000
  C   C16       1.0  0.85618  0.3783799999999999  0.74507  1.0000
  C   C17       1.0  0.72969  0.9063399999999998  0.7728800000000001  1.0000
  C   C18       1.0  0.90288  0.31852  0.7006  1.0000
  C   C19       1.0  0.73114  0.99156  0.7465400000000001  1.0000
  C   C20       1.0  0.9656399999999997  0.23519999999999994  0.7155200000000002  1.0000
  C   C21       1.0  0.7497799999999998  8.999999999999992e-05  0.6867800000000001  1.0000
  C   C22       1.0  0.9775599999999998  0.21070999999999998  0.7733700000000001  1.0000
  C   C23       1.0  0.76765  0.92313  0.6527200000000001  1.0000
  C   C24       1.0  0.92696  0.2686  0.81752  1.0000
  C   C25       1.0  0.75924  0.83796  0.67808  1.0000
  C   C26       1.0  0.86833  0.3518199999999999  0.80326  1.0000
  C   C27       1.0  0.7231099999999997  0.7374699999999997  0.76543  1.0000
  C   C28       1.0  0.7965899999999998  0.4669899999999999  0.72955  1.0000
  C   C29       1.0  0.23786  0.82796  0.76188  1.0000
  C   C30       1.0  0.35855  0.37724  0.75416  1.0000
  C   C31       1.0  0.22975  0.90632  0.7271100000000001  1.0000
  C   C32       1.0  0.40337  0.31616  0.7981800000000001  1.0000
  C   C33       1.0  0.23049999999999998  0.99148  0.7534500000000002  1.0000
  C   C34       1.0  0.4654199999999999  0.23287999999999995  0.7829600000000002  1.0000
  C   C35       1.0  0.24883999999999995  0.9999999999999999  0.8132200000000002  1.0000
  C   C36       1.0  0.4765599999999999  0.20913  0.7250600000000003  1.0000
  C   C37       1.0  0.26755999999999996  0.9231199999999999  0.8473  1.0000
  C   C38       1.0  0.4254199999999999  0.26776  0.68131  1.0000
  C   C39       1.0  0.2606299999999999  0.8380099999999998  0.82194  1.0000
  C   C40       1.0  0.3686299999999999  0.35117  0.69583  1.0000
  C   C41       1.0  0.2267  0.7375  0.73459  1.0000
  C   C42       1.0  0.3041899999999999  0.4665899999999999  0.7702700000000001  1.0000
  C   C43       1.0  0.26377  0.17208  0.2619  1.0000
  C   C44       1.0  0.14381999999999998  0.6216199999999998  0.25493  1.0000
  C   C45       1.0  0.27031  0.09367  0.22711000000000006  1.0000
  C   C46       1.0  0.09712  0.68149  0.2994  1.0000
  C   C47       1.0  0.26886  0.00845  0.2534600000000001  1.0000
  C   C48       1.0  0.03435999999999997  0.7647999999999999  0.28447  1.0000
  C   C49       1.0  0.25022999999999995  0.9999199999999999  0.31321000000000004  1.0000
  C   C50       1.0  0.022439999999999943  0.7892899999999998  0.22663  1.0000
  C   C51       1.0  0.23235  0.07686999999999997  0.34727  1.0000
  C   C52       1.0  0.07304000000000002  0.7314  0.18248  1.0000
  C   C53       1.0  0.24076  0.16204999999999994  0.32192  1.0000
  C   C54       1.0  0.13168  0.64818  0.19674000000000005  1.0000
  C   C55       1.0  0.2769  0.26254  0.23456  1.0000
  C   C56       1.0  0.20340999999999995  0.5330199999999998  0.27044  1.0000
  S   S1        1.0  0.69514  0.0672  0.07684  1.0000
  S   S2        1.0  0.58416  0.76921  0.3918600000000001  1.0000
  S   S3        1.0  0.80491  0.9327999999999997  0.5768800000000001  1.0000
  S   S4        1.0  0.91847  0.23195999999999994  0.8909100000000001  1.0000
  S   S5        1.0  0.3048599999999999  0.9328099999999998  0.92315  1.0000
  S   S6        1.0  0.41585  0.23079999999999998  0.60814  1.0000
  S   S7        1.0  0.19509  0.0672  0.42312000000000005  1.0000
  S   S8        1.0  0.08153999999999995  0.7680399999999997  0.10909000000000002  1.0000
  O   O1        1.0  0.9356099999999999  0.7392899999999998  0.96307  1.0000
  O   O2        1.0  0.7773  0.09991  0.33116  1.0000
  O   O3        1.0  0.61063  0.6633  0.14512  1.0000
  O   O4        1.0  0.5641599999999998  0.36362  0.10605000000000003  1.0000
  O   O5        1.0  0.62739  0.9717199999999998  0.06536  1.0000
  O   O6        1.0  0.44420000000000004  0.83531  0.39746  1.0000
  O   O7        1.0  0.55931  0.13192  0.06243000000000001  1.0000
  O   O8        1.0  0.7763  0.8132299999999998  0.3998900000000001  1.0000
  O   O9        1.0  0.88012  0.09113999999999997  0.04869  1.0000
  O   O10       1.0  0.5458599999999999  0.6867599999999999  0.42828  1.0000
  O   O11       1.0  0.78745  0.3318399999999999  0.23146  1.0000
  O   O12       1.0  0.7229  0.47699999999999987  0.27158  1.0000
  O   O13       1.0  0.76874  0.26847  0.32073000000000007  1.0000
  O   O14       1.0  0.7140599999999999  0.5133599999999999  0.17653  1.0000
  O   O15       1.0  0.56445  0.25989  0.46302  1.0000
  O   O16       1.0  0.7226699999999998  0.90013  0.8311500000000002  1.0000
  O   O17       1.0  0.88972  0.3404799999999999  0.64397  1.0000
  O   O18       1.0  0.9356799999999996  0.6365099999999998  0.60764  1.0000
  O   O19       1.0  0.8727  0.028209999999999992  0.56536  1.0000
  O   O20       1.0  0.05508  0.16422  0.8969200000000002  1.0000
  O   O21       1.0  0.9403699999999999  0.86793  0.5625  1.0000
  O   O22       1.0  0.72467  0.19066999999999995  0.8996500000000001  1.0000
  O   O23       1.0  0.6198  0.9088999999999998  0.54866  1.0000
  O   O24       1.0  0.9630799999999999  0.31447  0.92667  1.0000
  O   O25       1.0  0.7036099999999997  0.6680899999999999  0.7315200000000002  1.0000
  O   O26       1.0  0.76836  0.5228399999999997  0.77152  1.0000
  O   O27       1.0  0.7312599999999998  0.73149  0.82068  1.0000
  O   O28       1.0  0.7750599999999999  0.4868699999999999  0.6764  1.0000
  O   O29       1.0  0.06439999999999997  0.2607199999999999  0.03692000000000001  1.0000
  O   O30       1.0  0.2227099999999999  0.9000899999999997  0.6688300000000001  1.0000
  O   O31       1.0  0.38938  0.3367  0.85488  1.0000
  O   O32       1.0  0.4358399999999999  0.63639  0.8939500000000001  1.0000
  O   O33       1.0  0.3726099999999999  0.028289999999999992  0.9346300000000002  1.0000
  O   O34       1.0  0.55581  0.16469  0.60254  1.0000
  O   O35       1.0  0.44069  0.86809  0.93757  1.0000
  O   O36       1.0  0.2237  0.18676999999999994  0.60011  1.0000
  O   O37       1.0  0.11988999999999995  0.9088599999999999  0.9513100000000002  1.0000
  O   O38       1.0  0.4541499999999999  0.31324999999999986  0.5717200000000001  1.0000
  O   O39       1.0  0.2125499999999999  0.6681699999999998  0.76853  1.0000
  O   O40       1.0  0.27711  0.523  0.7284200000000002  1.0000
  O   O41       1.0  0.23125999999999997  0.7315299999999998  0.67927  1.0000
  O   O42       1.0  0.28594  0.48663999999999996  0.82347  1.0000
  O   O43       1.0  0.43554999999999994  0.7401199999999999  0.53697  1.0000
  O   O44       1.0  0.27733  0.09988  0.16885  1.0000
  O   O45       1.0  0.11029  0.65953  0.35603  1.0000
  O   O46       1.0  0.06432  0.3635  0.39236  1.0000
  O   O47       1.0  0.1273  0.9717899999999998  0.43463000000000007  1.0000
  O   O48       1.0  0.9449299999999999  0.8357799999999997  0.10308  1.0000
  O   O49       1.0  0.05964  0.13207  0.4375000000000001  1.0000
  O   O50       1.0  0.2753299999999999  0.8093299999999998  0.10035000000000001  1.0000
  O   O51       1.0  0.3802  0.09110999999999997  0.45133  1.0000
  O   O52       1.0  0.03692999999999994  0.6855399999999998  0.07333  1.0000
  O   O53       1.0  0.2963999999999999  0.33190999999999987  0.26848  1.0000
  O   O54       1.0  0.23163999999999998  0.47715999999999986  0.22848000000000002  1.0000
  O   O55       1.0  0.26874  0.26851  0.17932  1.0000
  O   O56       1.0  0.22494  0.51313  0.3236  1.0000
