data_image0
_chemical_formula_structural       Mg6Si4H64C112O32
_chemical_formula_sum              "Mg6 Si4 H64 C112 O32"
_cell_length_a       12.72364
_cell_length_b       14.658810000000003
_cell_length_c       23.509070000000005
_cell_angle_alpha    99.73192
_cell_angle_beta     92.13695
_cell_angle_gamma    96.98908

_space_group_name_H-M_alt    "P 1"
_space_group_IT_number       1

loop_
  _space_group_symop_operation_xyz
  'x, y, z'

loop_
  _atom_site_type_symbol
  _atom_site_label
  _atom_site_symmetry_multiplicity
  _atom_site_fract_x
  _atom_site_fract_y
  _atom_site_fract_z
  _atom_site_occupancy
  Mg  Mg1       1.0  0.47624  0.7030899999999998  0.60529  1.0000
  Mg  Mg2       1.0  0.93167  0.32601  0.06482  1.0000
  Mg  Mg3       1.0  0.5237699999999997  0.29691  0.39471  1.0000
  Mg  Mg4       1.0  0.06832999999999997  0.6739899999999999  0.9351799999999999  1.0000
  Mg  Mg5       1.0  0.5  0.4999999999999999  0.5  1.0000
  Mg  Mg6       1.0  0.0  0.4999999999999999  0.0  1.0000
  Si  Si1       1.0  0.96899  0.7747699999999997  0.36627  1.0000
  Si  Si2       1.0  0.60405  0.7525999999999998  0.18932999999999997  1.0000
  Si  Si3       1.0  0.031009999999999992  0.2252399999999999  0.63373  1.0000
  Si  Si4       1.0  0.39595  0.24739999999999995  0.81067  1.0000
  H   H1        1.0  0.87657  0.61316  0.41556  1.0000
  H   H2        1.0  0.73401  0.5882499999999998  0.48256  1.0000
  H   H3        1.0  0.66094  0.8669899999999998  0.48301  1.0000
  H   H4        1.0  0.802  0.8926  0.41416  1.0000
  H   H5        1.0  0.82488  0.6034499999999998  0.3123699999999999  1.0000
  H   H6        1.0  0.83199  0.48881999999999987  0.22239  1.0000
  H   H7        1.0  0.06951  0.67735  0.1619  1.0000
  H   H8        1.0  0.07434999999999997  0.7881299999999998  0.25507  1.0000
  H   H9        1.0  0.15386  0.66958  0.33219  1.0000
  H   H10       1.0  0.29076  0.6092299999999998  0.38947999999999994  1.0000
  H   H11       1.0  0.16252  0.7295199999999997  0.5475  1.0000
  H   H12       1.0  0.021059999999999985  0.7842599999999998  0.49125  1.0000
  H   H13       1.0  0.9298  0.89834  0.27966  1.0000
  H   H14       1.0  0.97214  0.06896  0.28105  1.0000
  H   H15       1.0  0.13079999999999997  0.10286999999999998  0.44932999999999995  1.0000
  H   H16       1.0  0.08656999999999995  0.9330299999999998  0.4495599999999999  1.0000
  H   H17       1.0  0.54242  0.7766699999999997  0.31077  1.0000
  H   H18       1.0  0.5152  0.6688899999999998  0.38174  1.0000
  H   H19       1.0  0.6072299999999999  0.4456599999999998  0.25927  1.0000
  H   H20       1.0  0.6427  0.5535299999999997  0.18886  1.0000
  H   H21       1.0  0.65125  0.5949299999999997  0.10307999999999998  1.0000
  H   H22       1.0  0.78276  0.57513  0.028739999999999998  1.0000
  H   H23       1.0  0.92469  0.8594899999999998  0.08538  1.0000
  H   H24       1.0  0.79868  0.8772499999999998  0.16411  1.0000
  H   H25       1.0  0.39495  0.6278999999999999  0.1869  1.0000
  H   H26       1.0  0.24248  0.58317  0.11298  1.0000
  H   H27       1.0  0.39052  0.7713699999999998  0.00967  1.0000
  H   H28       1.0  0.54726  0.81126  0.08035  1.0000
  H   H29       1.0  0.74772  0.8551799999999999  0.28506  1.0000
  H   H30       1.0  0.75581  0.011179999999999983  0.34790999999999994  1.0000
  H   H31       1.0  0.49048  0.07181  0.24926  1.0000
  H   H32       1.0  0.48352999999999996  0.91687  0.18419  1.0000
  H   H33       1.0  0.12343  0.38684  0.58444  1.0000
  H   H34       1.0  0.26598999999999995  0.4117499999999999  0.51744  1.0000
  H   H35       1.0  0.33906  0.13301  0.51699  1.0000
  H   H36       1.0  0.198  0.10740999999999999  0.58584  1.0000
  H   H37       1.0  0.17512  0.3965499999999999  0.68763  1.0000
  H   H38       1.0  0.16800999999999996  0.5111899999999998  0.7776099999999998  1.0000
  H   H39       1.0  0.93049  0.3226499999999999  0.8381  1.0000
  H   H40       1.0  0.9256499999999999  0.21187999999999996  0.74493  1.0000
  H   H41       1.0  0.8461399999999999  0.33042999999999995  0.66781  1.0000
  H   H42       1.0  0.70924  0.39077  0.61052  1.0000
  H   H43       1.0  0.8374799999999999  0.27048  0.4525  1.0000
  H   H44       1.0  0.97894  0.21573999999999993  0.50875  1.0000
  H   H45       1.0  0.0702  0.10166  0.72034  1.0000
  H   H46       1.0  0.027859999999999965  0.9310399999999998  0.71895  1.0000
  H   H47       1.0  0.8692  0.8971399999999997  0.55067  1.0000
  H   H48       1.0  0.91343  0.06697000000000002  0.55044  1.0000
  H   H49       1.0  0.45758  0.22333  0.68923  1.0000
  H   H50       1.0  0.4847999999999998  0.33112  0.61826  1.0000
  H   H51       1.0  0.39277999999999996  0.5543399999999998  0.74072  1.0000
  H   H52       1.0  0.35729999999999995  0.4464699999999998  0.8111299999999999  1.0000
  H   H53       1.0  0.34875  0.40507999999999983  0.8969199999999999  1.0000
  H   H54       1.0  0.21724  0.42487999999999987  0.97126  1.0000
  H   H55       1.0  0.07531  0.14051  0.91462  1.0000
  H   H56       1.0  0.20132  0.12274999999999997  0.83588  1.0000
  H   H57       1.0  0.60505  0.3721099999999999  0.8131  1.0000
  H   H58       1.0  0.75752  0.41684  0.88702  1.0000
  H   H59       1.0  0.6094799999999999  0.22862999999999992  0.9903299999999999  1.0000
  H   H60       1.0  0.4527399999999999  0.1887399999999999  0.9196499999999999  1.0000
  H   H61       1.0  0.25228  0.14483  0.71494  1.0000
  H   H62       1.0  0.24418999999999996  0.9888299999999998  0.65209  1.0000
  H   H63       1.0  0.50952  0.9281999999999998  0.7507299999999999  1.0000
  H   H64       1.0  0.51647  0.08313999999999998  0.8157999999999999  1.0000
  C   C1        1.0  0.84931  0.7543599999999998  0.40926999999999997  1.0000
  C   C2        1.0  0.82791  0.66839  0.42869  1.0000
  C   C3        1.0  0.74844  0.6538699999999997  0.46662999999999993  1.0000
  C   C4        1.0  0.68902  0.7265499999999999  0.48647  1.0000
  C   C5        1.0  0.7077699999999999  0.8119199999999998  0.4667  1.0000
  C   C6        1.0  0.7867099999999998  0.8254299999999998  0.42827999999999994  1.0000
  C   C7        1.0  0.60888  0.7157899999999998  0.53001  1.0000
  C   C8        1.0  0.9517899999999999  0.7031599999999997  0.29164999999999996  1.0000
  C   C9        1.0  0.88139  0.6192899999999998  0.28066  1.0000
  C   C10       1.0  0.8835399999999998  0.5550599999999998  0.22977  1.0000
  C   C11       1.0  0.95237  0.5757799999999998  0.18727  1.0000
  C   C12       1.0  0.018299999999999948  0.6615799999999998  0.19595  1.0000
  C   C13       1.0  0.019609999999999995  0.72357  0.24809  1.0000
  C   C14       1.0  0.95599  0.50792  0.13257  1.0000
  C   C15       1.0  0.07794  0.73228  0.40742  1.0000
  C   C16       1.0  0.15504999999999997  0.6826499999999998  0.37921999999999995  1.0000
  C   C17       1.0  0.23176999999999995  0.6486499999999997  0.41080999999999995  1.0000
  C   C18       1.0  0.23337999999999998  0.6646999999999997  0.47154  1.0000
  C   C19       1.0  0.15869  0.7159299999999998  0.50048  1.0000
  C   C20       1.0  0.08115999999999997  0.7479799999999998  0.46852  1.0000
  C   C21       1.0  0.31542  0.6289799999999999  0.50525  1.0000
  C   C22       1.0  0.003749999999999943  0.9027699999999997  0.36481  1.0000
  C   C23       1.0  0.97273  0.9425299999999998  0.31732  1.0000
  C   C24       1.0  0.9966299999999998  0.03809  0.31758  1.0000
  C   C25       1.0  0.05355  0.09577  0.36528  1.0000
  C   C26       1.0  0.08559999999999997  0.057469999999999945  0.41282999999999986  1.0000
  C   C27       1.0  0.060489999999999974  0.9620399999999998  0.41254  1.0000
  C   C28       1.0  0.08052  0.19693999999999995  0.36451  1.0000
  C   C29       1.0  0.59419  0.67312  0.24419  1.0000
  C   C30       1.0  0.55784  0.7046599999999997  0.29908  1.0000
  C   C31       1.0  0.5417099999999999  0.6448499999999998  0.339  1.0000
  C   C32       1.0  0.5592  0.5513299999999999  0.32432  1.0000
  C   C33       1.0  0.59448  0.5185199999999998  0.26976  1.0000
  C   C34       1.0  0.61296  0.5792699999999998  0.23054999999999998  1.0000
  C   C35       1.0  0.54142  0.4878099999999999  0.36739  1.0000
  C   C36       1.0  0.71634  0.73714  0.14008  1.0000
  C   C37       1.0  0.71325  0.6522599999999998  0.10118  1.0000
  C   C38       1.0  0.78558  0.6410199999999998  0.05843  1.0000
  C   C39       1.0  0.8609899999999999  0.7165499999999998  0.05223  1.0000
  C   C40       1.0  0.86586  0.80158  0.09061999999999999  1.0000
  C   C41       1.0  0.79502  0.8109699999999997  0.13464  1.0000
  C   C42       1.0  0.9333599999999997  0.70479  0.00451  1.0000
  C   C43       1.0  0.48182999999999987  0.7231099999999998  0.13909  1.0000
  C   C44       1.0  0.39478  0.65913  0.14802  1.0000
  C   C45       1.0  0.3093  0.6338399999999997  0.10700999999999998  1.0000
  C   C46       1.0  0.3084599999999999  0.6744299999999998  0.05707999999999999  1.0000
  C   C47       1.0  0.3934099999999999  0.74021  0.04841  1.0000
  C   C48       1.0  0.47976999999999986  0.7629499999999996  0.08857  1.0000
  C   C49       1.0  0.21733  0.6490099999999998  0.013339999999999998  1.0000
  C   C50       1.0  0.61521  0.8749199999999998  0.22994999999999996  1.0000
  C   C51       1.0  0.6925599999999998  0.9030099999999998  0.2761  1.0000
  C   C52       1.0  0.6968  0.9894799999999998  0.31193  1.0000
  C   C53       1.0  0.62237  0.04924  0.30242  1.0000
  C   C54       1.0  0.54666  0.023699999999999995  0.25587  1.0000
  C   C55       1.0  0.54354  0.9371299999999998  0.21982999999999997  1.0000
  C   C56       1.0  0.61935  0.13776999999999995  0.34414  1.0000
  C   C57       1.0  0.15069  0.24564999999999995  0.59073  1.0000
  C   C58       1.0  0.17209  0.3316099999999999  0.57131  1.0000
  C   C59       1.0  0.25156  0.3461299999999999  0.53337  1.0000
  C   C60       1.0  0.31098  0.27345  0.51353  1.0000
  C   C61       1.0  0.29223  0.18808999999999998  0.5333  1.0000
  C   C62       1.0  0.21328999999999998  0.17456999999999998  0.57172  1.0000
  C   C63       1.0  0.39112  0.2842199999999999  0.46999  1.0000
  C   C64       1.0  0.048209999999999975  0.2968499999999999  0.70835  1.0000
  C   C65       1.0  0.11860999999999994  0.3807199999999999  0.71934  1.0000
  C   C66       1.0  0.11645999999999998  0.4449399999999999  0.77023  1.0000
  C   C67       1.0  0.04762999999999998  0.4242299999999999  0.81273  1.0000
  C   C68       1.0  0.9817  0.3384299999999999  0.8040499999999999  1.0000
  C   C69       1.0  0.9803899999999999  0.2764399999999999  0.7519099999999999  1.0000
  C   C70       1.0  0.04400999999999999  0.4920799999999999  0.86743  1.0000
  C   C71       1.0  0.92206  0.26773  0.59258  1.0000
  C   C72       1.0  0.8449499999999999  0.31734999999999997  0.62078  1.0000
  C   C73       1.0  0.7682299999999999  0.35136  0.58919  1.0000
  C   C74       1.0  0.76663  0.3352999999999999  0.52846  1.0000
  C   C75       1.0  0.8413099999999998  0.2840699999999999  0.49952  1.0000
  C   C76       1.0  0.91884  0.25201999999999997  0.5314799999999998  1.0000
  C   C77       1.0  0.68458  0.3710299999999999  0.49474  1.0000
  C   C78       1.0  0.99625  0.09722999999999997  0.63519  1.0000
  C   C79       1.0  0.02726999999999999  0.05748  0.68268  1.0000
  C   C80       1.0  0.003369999999999971  0.9619099999999998  0.68242  1.0000
  C   C81       1.0  0.94645  0.9042299999999998  0.63472  1.0000
  C   C82       1.0  0.9143999999999998  0.9425299999999998  0.58716  1.0000
  C   C83       1.0  0.93952  0.03797  0.58746  1.0000
  C   C84       1.0  0.91948  0.80306  0.6354899999999999  1.0000
  C   C85       1.0  0.4058099999999999  0.32688999999999985  0.7558099999999999  1.0000
  C   C86       1.0  0.44216  0.2953399999999998  0.7009199999999999  1.0000
  C   C87       1.0  0.4582899999999999  0.35515999999999986  0.6609999999999999  1.0000
  C   C88       1.0  0.4408  0.4486699999999999  0.67568  1.0000
  C   C89       1.0  0.4055199999999999  0.48148999999999975  0.73023  1.0000
  C   C90       1.0  0.38703999999999994  0.4207299999999999  0.76945  1.0000
  C   C91       1.0  0.45858  0.5122  0.63261  1.0000
  C   C92       1.0  0.28366  0.26286  0.85991  1.0000
  C   C93       1.0  0.28675  0.3477399999999999  0.89882  1.0000
  C   C94       1.0  0.21442  0.35899  0.94157  1.0000
  C   C95       1.0  0.13901  0.28344999999999987  0.94777  1.0000
  C   C96       1.0  0.13414  0.19842999999999997  0.9093799999999999  1.0000
  C   C97       1.0  0.20497999999999994  0.18903999999999996  0.86536  1.0000
  C   C98       1.0  0.06663999999999999  0.29521  0.9954899999999999  1.0000
  C   C99       1.0  0.5181699999999999  0.2768899999999999  0.8609  1.0000
  C   C100      1.0  0.60522  0.34088  0.85198  1.0000
  C   C101      1.0  0.6907  0.36615999999999993  0.8929899999999998  1.0000
  C   C102      1.0  0.69154  0.32557  0.94292  1.0000
  C   C103      1.0  0.60659  0.25979999999999986  0.95159  1.0000
  C   C104      1.0  0.52023  0.23705  0.91143  1.0000
  C   C105      1.0  0.78267  0.3509999999999999  0.9866599999999999  1.0000
  C   C106      1.0  0.38479  0.12507999999999994  0.7700399999999998  1.0000
  C   C107      1.0  0.30744  0.09699999999999998  0.7238999999999999  1.0000
  C   C108      1.0  0.3032  0.010529999999999986  0.68806  1.0000
  C   C109      1.0  0.37762999999999997  0.9507599999999998  0.69758  1.0000
  C   C110      1.0  0.45334  0.9762999999999998  0.74413  1.0000
  C   C111      1.0  0.4564599999999999  0.06286999999999997  0.7801699999999999  1.0000
  C   C112      1.0  0.3806499999999999  0.8622399999999998  0.6558599999999999  1.0000
  O   O1        1.0  0.57195  0.6338399999999997  0.53991  1.0000
  O   O2        1.0  0.57684  0.7872299999999998  0.55903  1.0000
  O   O3        1.0  0.93064  0.42042  0.13447  1.0000
  O   O4        1.0  0.98381  0.5404  0.08806999999999998  1.0000
  O   O5        1.0  0.35981  0.56012  0.48253  1.0000
  O   O6        1.0  0.33858  0.67077  0.55753  1.0000
  O   O7        1.0  0.058449999999999995  0.23181999999999992  0.32018  1.0000
  O   O8        1.0  0.12661  0.25452  0.40766  1.0000
  O   O9        1.0  0.54049  0.52601  0.42001  1.0000
  O   O10       1.0  0.5293  0.39986  0.34851  1.0000
  O   O11       1.0  0.9466999999999999  0.62036  0.9801  1.0000
  O   O12       1.0  0.9836799999999999  0.77292  0.98558  1.0000
  O   O13       1.0  0.15284  0.5759  0.01414  1.0000
  O   O14       1.0  0.20777999999999994  0.7042199999999997  0.9767099999999999  1.0000
  O   O15       1.0  0.6822699999999999  0.15449  0.38871  1.0000
  O   O16       1.0  0.55127  0.19167999999999996  0.3338  1.0000
  O   O17       1.0  0.42805  0.36615999999999993  0.46009  1.0000
  O   O18       1.0  0.42316  0.21277999999999994  0.44096  1.0000
  O   O19       1.0  0.06936  0.57959  0.86553  1.0000
  O   O20       1.0  0.016189999999999972  0.45959999999999984  0.9119299999999998  1.0000
  O   O21       1.0  0.64019  0.4398899999999998  0.51747  1.0000
  O   O22       1.0  0.66142  0.32923  0.44246  1.0000
  O   O23       1.0  0.9415499999999998  0.7681900000000002  0.67981  1.0000
  O   O24       1.0  0.8733899999999999  0.7454799999999998  0.59234  1.0000
  O   O25       1.0  0.45951  0.47399999999999987  0.5799899999999999  1.0000
  O   O26       1.0  0.4707  0.60015  0.65148  1.0000
  O   O27       1.0  0.05329999999999998  0.37963999999999987  0.0199  1.0000
  O   O28       1.0  0.016319999999999987  0.22707999999999995  0.01442  1.0000
  O   O29       1.0  0.84716  0.4241  0.9858599999999998  1.0000
  O   O30       1.0  0.7922199999999999  0.2957799999999999  0.02329  1.0000
  O   O31       1.0  0.31773  0.8455199999999999  0.61129  1.0000
  O   O32       1.0  0.4487299999999999  0.8083199999999999  0.6662  1.0000
