data_image0
_chemical_formula_structural       Cu24H16C80N32O64
_chemical_formula_sum              "Cu24 H16 C80 N32 O64"
_cell_length_a       15.94631
_cell_length_b       15.950169999999998
_cell_length_c       19.45243
_cell_angle_alpha    114.73626999999999
_cell_angle_beta     114.58999
_cell_angle_gamma    89.42196999999999

_symmetry_space_group_name_H-M    'P 1'
_symmetry_Int_Tables_number       1

loop_
  _symmetry_equiv_pos_as_xyz
  'x,y,z'

loop_
  _atom_site_type_symbol
  _atom_site_label
  _atom_site_symmetry_multiplicity
  _atom_site_fract_x
  _atom_site_fract_y
  _atom_site_fract_z
  _atom_site_occupancy
  Cu  Cu1       1.0  0.49554999999999993  0.2680500000000001  0.27766  1.0000
  Cu  Cu2       1.0  0.7833099999999997  0.5089200000000003  0.27802  1.0000
  Cu  Cu3       1.0  0.003829999999999971  0.9912600000000003  0.72172  1.0000
  Cu  Cu4       1.0  0.7163899999999997  0.23191000000000006  0.7213  1.0000
  Cu  Cu5       1.0  0.49124  0.5037700000000003  0.22182  1.0000
  Cu  Cu6       1.0  0.7313199999999997  0.21630000000000005  0.22039  1.0000
  Cu  Cu7       1.0  0.00911999999999998  0.28336  0.77871  1.0000
  Cu  Cu8       1.0  0.7680999999999998  0.9956500000000003  0.7776  1.0000
  Cu  Cu9       1.0  0.5869999999999997  0.24992000000000006  0.49937  1.0000
  Cu  Cu10      1.0  0.91235  0.74969  0.49984  1.0000
  Cu  Cu11      1.0  0.2496  0.4126200000000001  0.00015  1.0000
  Cu  Cu12      1.0  0.7495299999999999  0.08681000000000004  0.99902  1.0000
  Cu  Cu13      1.0  0.50876  0.4962200000000001  0.77818  1.0000
  Cu  Cu14      1.0  0.26867999999999986  0.7837000000000002  0.77961  1.0000
  Cu  Cu15      1.0  0.99088  0.7166400000000003  0.22128999999999993  1.0000
  Cu  Cu16      1.0  0.23189999999999994  0.004350000000000002  0.2224  1.0000
  Cu  Cu17      1.0  0.50445  0.73194  0.72233  1.0000
  Cu  Cu18      1.0  0.21669  0.4910800000000001  0.72197  1.0000
  Cu  Cu19      1.0  0.99617  0.008729999999999984  0.27828  1.0000
  Cu  Cu20      1.0  0.28360999999999986  0.76808  0.2787  1.0000
  Cu  Cu21      1.0  0.7504  0.58738  0.99985  1.0000
  Cu  Cu22      1.0  0.2504599999999999  0.9131900000000002  0.00098  1.0000
  Cu  Cu23      1.0  0.413  0.7500700000000002  0.50063  1.0000
  Cu  Cu24      1.0  0.08764000000000004  0.25031  0.50016  1.0000
  H   H1        1.0  0.62339  0.5789300000000002  0.53845  1.0000
  H   H2        1.0  0.9140899999999997  0.4595900000000001  0.53792  1.0000
  H   H3        1.0  0.87771  0.04004  0.46152  1.0000
  H   H4        1.0  0.5857699999999998  0.9206200000000002  0.46075  1.0000
  H   H5        1.0  0.5397899999999998  0.3777900000000001  0.9613  1.0000
  H   H6        1.0  0.4204899999999999  0.08595000000000007  0.96058  1.0000
  H   H7        1.0  0.9595999999999998  0.4142200000000001  0.03875  1.0000
  H   H8        1.0  0.07842  0.12313000000000003  0.03832  1.0000
  H   H9        1.0  0.46021  0.62221  0.0387  1.0000
  H   H10       1.0  0.5795099999999997  0.9140400000000002  0.03942  1.0000
  H   H11       1.0  0.040410000000000036  0.5857700000000002  0.96125  1.0000
  H   H12       1.0  0.9215799999999997  0.8768700000000003  0.96168  1.0000
  H   H13       1.0  0.37661  0.4210600000000001  0.46155  1.0000
  H   H14       1.0  0.08591000000000001  0.5404  0.46207  1.0000
  H   H15       1.0  0.12229000000000001  0.9599600000000001  0.53848  1.0000
  H   H16       1.0  0.41423  0.07938000000000002  0.53925  1.0000
  C   C1        1.0  0.52492  0.46464  0.3396  1.0000
  C   C2        1.0  0.55781  0.44823  0.41393  1.0000
  C   C3        1.0  0.60237  0.50303  0.50234  1.0000
  C   C4        1.0  0.61198  0.43686000000000014  0.53357  1.0000
  C   C5        1.0  0.64534  0.44003  0.61918  1.0000
  C   C6        1.0  0.81561  0.37408000000000013  0.33903  1.0000
  C   C7        1.0  0.8567699999999999  0.46523  0.41377  1.0000
  C   C8        1.0  0.89967  0.49932  0.50212  1.0000
  C   C9        1.0  0.9215999999999999  0.59714  0.53379  1.0000
  C   C10       1.0  0.97306  0.6805400000000003  0.61966  1.0000
  C   C11       1.0  0.9755299999999998  0.12551  0.6602599999999997  1.0000
  C   C12       1.0  0.9422099999999998  0.034249999999999975  0.58565  1.0000
  C   C13       1.0  0.8979099999999999  0.00016999999999998082  0.4973  1.0000
  C   C14       1.0  0.8877999999999997  0.90221  0.4656899999999999  1.0000
  C   C15       1.0  0.8545499999999999  0.8185500000000002  0.38  1.0000
  C   C16       1.0  0.68474  0.035170000000000014  0.65948  1.0000
  C   C17       1.0  0.6431  0.05143999999999995  0.58503  1.0000
  C   C18       1.0  0.59983  0.9965800000000005  0.49664  1.0000
  C   C19       1.0  0.57742  0.06283000000000001  0.46541  1.0000
  C   C20       1.0  0.52595  0.05973  0.37973  1.0000
  C   C21       1.0  0.6251599999999998  0.4751600000000002  0.1599  1.0000
  C   C22       1.0  0.5339099999999998  0.4421700000000001  0.0855  1.0000
  C   C23       1.0  0.49989  0.3979300000000001  0.99715  1.0000
  C   C24       1.0  0.40203999999999984  0.38798000000000005  0.96573  1.0000
  C   C25       1.0  0.3186999999999999  0.3548500000000001  0.88006  1.0000
  C   C26       1.0  0.5349999999999998  0.18467  0.15923  1.0000
  C   C27       1.0  0.5510999999999998  0.14273000000000005  0.08457  1.0000
  C   C28       1.0  0.4963499999999999  0.09973999999999988  0.99619  1.0000
  C   C29       1.0  0.56254  0.07731000000000009  0.96472  1.0000
  C   C30       1.0  0.5596599999999998  0.02561000000000004  0.87897  1.0000
  C   C31       1.0  0.8742699999999998  0.31558000000000014  0.83981  1.0000
  C   C32       1.0  0.9653199999999998  0.3567699999999999  0.91452  1.0000
  C   C33       1.0  0.99939  0.39983000000000013  0.0029  1.0000
  C   C34       1.0  0.09716  0.4218200000000001  0.03438  1.0000
  C   C35       1.0  0.18027  0.47393000000000024  0.12019  1.0000
  C   C36       1.0  0.9645699999999999  0.024839999999999952  0.83956  1.0000
  C   C37       1.0  0.94796  0.05754000000000008  0.91386  1.0000
  C   C38       1.0  0.00257  0.10216  0.00227  1.0000
  C   C39       1.0  0.9362599999999998  0.11173000000000002  0.03347  1.0000
  C   C40       1.0  0.9391599999999999  0.14478000000000005  0.11904  1.0000
  C   C41       1.0  0.3748399999999999  0.52484  0.8401  1.0000
  C   C42       1.0  0.4660899999999999  0.5578200000000002  0.9145  1.0000
  C   C43       1.0  0.50011  0.6020700000000002  0.00285  1.0000
  C   C44       1.0  0.5979599999999998  0.61202  0.03427  1.0000
  C   C45       1.0  0.68131  0.6451500000000002  0.11993  1.0000
  C   C46       1.0  0.46499999999999986  0.8153300000000002  0.84077  1.0000
  C   C47       1.0  0.4488999999999998  0.8572700000000001  0.9154299999999997  1.0000
  C   C48       1.0  0.5036499999999999  0.9002500000000002  0.00381  1.0000
  C   C49       1.0  0.43746  0.9226800000000002  0.03528  1.0000
  C   C50       1.0  0.4403399999999999  0.9743800000000002  0.12103  1.0000
  C   C51       1.0  0.12572999999999993  0.6844200000000003  0.16019  1.0000
  C   C52       1.0  0.03467999999999999  0.6432300000000002  0.08548  1.0000
  C   C53       1.0  0.0006099999999999087  0.6001700000000002  0.9971  1.0000
  C   C54       1.0  0.9028499999999998  0.57818  0.96561  1.0000
  C   C55       1.0  0.81973  0.5260599999999999  0.8797999999999999  1.0000
  C   C56       1.0  0.035429999999999996  0.9751600000000002  0.16044  1.0000
  C   C57       1.0  0.05204  0.9424600000000002  0.08614  1.0000
  C   C58       1.0  0.9974300000000001  0.8978400000000002  0.99773  1.0000
  C   C59       1.0  0.06374000000000003  0.8882700000000002  0.96653  1.0000
  C   C60       1.0  0.06084000000000001  0.85521  0.88096  1.0000
  C   C61       1.0  0.47508  0.5353600000000002  0.6604  1.0000
  C   C62       1.0  0.4421899999999998  0.55176  0.58606  1.0000
  C   C63       1.0  0.3976299999999999  0.49696000000000023  0.49766  1.0000
  C   C64       1.0  0.38802  0.56313  0.46643  1.0000
  C   C65       1.0  0.35466  0.5599600000000002  0.38081  1.0000
  C   C66       1.0  0.18438999999999992  0.6259200000000003  0.66097  1.0000
  C   C67       1.0  0.14323  0.5347700000000002  0.58622  1.0000
  C   C68       1.0  0.10032999999999992  0.5006800000000001  0.4978799999999999  1.0000
  C   C69       1.0  0.07839  0.4028500000000001  0.4662  1.0000
  C   C70       1.0  0.02693000000000001  0.31945  0.38033  1.0000
  C   C71       1.0  0.02447000000000001  0.8744900000000002  0.33974  1.0000
  C   C72       1.0  0.05779  0.9657400000000005  0.41435  1.0000
  C   C73       1.0  0.10209000000000004  0.99983  0.5027  1.0000
  C   C74       1.0  0.11220000000000001  0.09778999999999999  0.53431  1.0000
  C   C75       1.0  0.14543999999999996  0.18145  0.62  1.0000
  C   C76       1.0  0.31526  0.9648300000000004  0.34052  1.0000
  C   C77       1.0  0.3568999999999999  0.9485600000000002  0.41496  1.0000
  C   C78       1.0  0.40016999999999997  0.0034100000000000185  0.50335  1.0000
  C   C79       1.0  0.42258  0.9371700000000003  0.53459  1.0000
  C   C80       1.0  0.4740400000000001  0.9402600000000003  0.62027  1.0000
  N   N1        1.0  0.5424199999999998  0.35493000000000013  0.39467  1.0000
  N   N2        1.0  0.5756499999999998  0.3489600000000001  0.46712  1.0000
  N   N3        1.0  0.8535299999999998  0.5393300000000002  0.39494  1.0000
  N   N4        1.0  0.89248  0.61823  0.4676  1.0000
  N   N5        1.0  0.9569299999999995  0.9600700000000002  0.60462  1.0000
  N   N6        1.0  0.9235399999999998  0.88111  0.53199  1.0000
  N   N7        1.0  0.6461399999999998  0.14481000000000005  0.60426  1.0000
  N   N8        1.0  0.6065699999999998  0.15077000000000007  0.53178  1.0000
  N   N9        1.0  0.45983  0.45717000000000013  0.10468  1.0000
  N   N10       1.0  0.38093  0.4237400000000001  0.0321  1.0000
  N   N11       1.0  0.64429  0.14549000000000006  0.10357  1.0000
  N   N12       1.0  0.65024  0.10624000000000003  0.03099  1.0000
  N   N13       1.0  0.03934999999999987  0.35360999999999987  0.8955399999999998  1.0000
  N   N14       1.0  0.11819999999999985  0.39255  0.9681199999999998  1.0000
  N   N15       1.0  0.8547199999999998  0.04195000000000001  0.89455  1.0000
  N   N16       1.0  0.8486199999999998  0.07536999999999999  0.96703  1.0000
  N   N17       1.0  0.54017  0.5428300000000003  0.89532  1.0000
  N   N18       1.0  0.6190699999999998  0.5762600000000002  0.9679  1.0000
  N   N19       1.0  0.3557099999999999  0.8545000000000003  0.89643  1.0000
  N   N20       1.0  0.34976  0.8937500000000003  0.96901  1.0000
  N   N21       1.0  0.9606499999999998  0.64639  0.10445  1.0000
  N   N22       1.0  0.8817999999999998  0.60745  0.03188  1.0000
  N   N23       1.0  0.14527  0.9580500000000002  0.10545  1.0000
  N   N24       1.0  0.15137999999999993  0.92462  0.03296999999999999  1.0000
  N   N25       1.0  0.45758999999999994  0.6450700000000003  0.60533  1.0000
  N   N26       1.0  0.42435  0.65104  0.53288  1.0000
  N   N27       1.0  0.14647000000000004  0.4606600000000001  0.60505  1.0000
  N   N28       1.0  0.10752000000000006  0.38177000000000016  0.5324  1.0000
  N   N29       1.0  0.04307  0.03992  0.39538  1.0000
  N   N30       1.0  0.07644999999999999  0.11889000000000002  0.46801  1.0000
  N   N31       1.0  0.3538599999999999  0.85518  0.39574  1.0000
  N   N32       1.0  0.3934299999999999  0.8492200000000002  0.46822  1.0000
  O   O1        1.0  0.48814  0.39087999999999995  0.26586  1.0000
  O   O2        1.0  0.5326399999999998  0.54605  0.34298  1.0000
  O   O3        1.0  0.64173  0.35660000000000003  0.61671  1.0000
  O   O4        1.0  0.6695799999999997  0.51685  0.68316  1.0000
  O   O5        1.0  0.7780899999999997  0.3744900000000001  0.26575  1.0000
  O   O6        1.0  0.81222  0.2954500000000001  0.34139  1.0000
  O   O7        1.0  0.9739299999999999  0.7616100000000002  0.61739  1.0000
  O   O8        1.0  0.012510000000000009  0.66828  0.68364  1.0000
  O   O9        1.0  0.012379999999999882  0.12537  0.7336699999999998  1.0000
  O   O10       1.0  0.9683399999999998  0.20400000000000004  0.65761  1.0000
  O   O11       1.0  0.8583199999999997  0.73756  0.38245  1.0000
  O   O12       1.0  0.8301699999999997  0.8302400000000002  0.31587  1.0000
  O   O13       1.0  0.7225899999999997  0.10913000000000005  0.73305  1.0000
  O   O14       1.0  0.6879799999999998  0.9537600000000003  0.65648  1.0000
  O   O15       1.0  0.5252599999999997  0.14310999999999996  0.38203999999999994  1.0000
  O   O16       1.0  0.48654  0.9829300000000002  0.31578  1.0000
  O   O17       1.0  0.6251599999999998  0.51219  0.23348  1.0000
  O   O18       1.0  0.70345  0.4675600000000001  0.15689  1.0000
  O   O19       1.0  0.23766000000000007  0.35848  0.88261  1.0000
  O   O20       1.0  0.33079  0.33075  0.8161099999999998  1.0000
  O   O21       1.0  0.6090099999999998  0.22275000000000006  0.23273  1.0000
  O   O22       1.0  0.4537299999999999  0.18787000000000006  0.15649  1.0000
  O   O23       1.0  0.64316  0.02505999999999988  0.8813899999999998  1.0000
  O   O24       1.0  0.4829499999999998  0.9858900000000003  0.81518  1.0000
  O   O25       1.0  0.8747  0.2780100000000001  0.76642  1.0000
  O   O26       1.0  0.79575  0.31233  0.84239  1.0000
  O   O27       1.0  0.2613999999999999  0.4749400000000001  0.1179  1.0000
  O   O28       1.0  0.16733  0.5136200000000002  0.18387  1.0000
  O   O29       1.0  0.89091  0.9881100000000003  0.76582  1.0000
  O   O30       1.0  0.04594000000000003  0.03270000000000001  0.84294  1.0000
  O   O31       1.0  0.85561  0.14190000000000005  0.11653  1.0000
  O   O32       1.0  0.015809999999999994  0.16778  0.18273  1.0000
  O   O33       1.0  0.3748399999999999  0.48780000000000007  0.76652  1.0000
  O   O34       1.0  0.29654999999999987  0.5324300000000002  0.84311  1.0000
  O   O35       1.0  0.7623399999999998  0.6415200000000002  0.11739  1.0000
  O   O36       1.0  0.66921  0.66925  0.18389  1.0000
  O   O37       1.0  0.3909899999999999  0.77724  0.76727  1.0000
  O   O38       1.0  0.5462699999999998  0.81212  0.84351  1.0000
  O   O39       1.0  0.35684  0.9749400000000003  0.1186  1.0000
  O   O40       1.0  0.51705  0.014109999999999996  0.18482  1.0000
  O   O41       1.0  0.12529999999999994  0.7219900000000002  0.23357999999999995  1.0000
  O   O42       1.0  0.20424999999999996  0.68766  0.15760999999999997  1.0000
  O   O43       1.0  0.7386099999999998  0.5250600000000002  0.8821  1.0000
  O   O44       1.0  0.8326699999999998  0.48638000000000003  0.81613  1.0000
  O   O45       1.0  0.10909000000000002  0.011879999999999998  0.23418  1.0000
  O   O46       1.0  0.95406  0.9673000000000003  0.15706  1.0000
  O   O47       1.0  0.14439000000000002  0.8581  0.88346  1.0000
  O   O48       1.0  0.9841899999999997  0.83221  0.81727  1.0000
  O   O49       1.0  0.51186  0.60912  0.73414  1.0000
  O   O50       1.0  0.4673599999999999  0.45395000000000013  0.65702  1.0000
  O   O51       1.0  0.35826999999999987  0.6434000000000002  0.38329  1.0000
  O   O52       1.0  0.3304199999999999  0.48315000000000013  0.31684  1.0000
  O   O53       1.0  0.22191  0.6255100000000002  0.73425  1.0000
  O   O54       1.0  0.18778  0.7045500000000002  0.65861  1.0000
  O   O55       1.0  0.02604999999999989  0.23839  0.3826099999999999  1.0000
  O   O56       1.0  0.9874799999999999  0.3317200000000001  0.31636  1.0000
  O   O57       1.0  0.98762  0.8746300000000004  0.26633  1.0000
  O   O58       1.0  0.03165999999999995  0.7960000000000003  0.34239  1.0000
  O   O59       1.0  0.14168  0.26244  0.61755  1.0000
  O   O60       1.0  0.1698299999999998  0.16975999999999983  0.6841299999999998  1.0000
  O   O61       1.0  0.2774099999999999  0.89087  0.26695  1.0000
  O   O62       1.0  0.3120199999999999  0.04623999999999999  0.34352  1.0000
  O   O63       1.0  0.4747399999999998  0.8568799999999999  0.6179499999999998  1.0000
  O   O64       1.0  0.51346  0.017059999999999992  0.68422  1.0000
