data_image0
_chemical_formula_structural       Eu4H36C84N4O32
_chemical_formula_sum              "Eu4 H36 C84 N4 O32"
_cell_length_a       11.56177
_cell_length_b       11.559739999999998
_cell_length_c       22.22692
_cell_angle_alpha    84.09794
_cell_angle_beta     83.91377
_cell_angle_gamma    63.131969999999995

_symmetry_space_group_name_H-M    'P 1'
_symmetry_Int_Tables_number       1

loop_
  _symmetry_equiv_pos_as_xyz
  'x,y,z'

loop_
  _atom_site_type_symbol
  _atom_site_label
  _atom_site_symmetry_multiplicity
  _atom_site_fract_x
  _atom_site_fract_y
  _atom_site_fract_z
  _atom_site_occupancy
  Eu  Eu1       1.0  0.6602  0.007299999999999999  0.026210000000000008  1.0000
  Eu  Eu2       1.0  0.9906299999999999  0.34073  0.47368  1.0000
  Eu  Eu3       1.0  0.34035000000000004  0.9929699999999999  0.9737500000000001  1.0000
  Eu  Eu4       1.0  0.008719999999999995  0.65815  0.52634  1.0000
  H   H1        1.0  0.38458000000000003  0.9195999999999999  0.3211600000000001  1.0000
  H   H2        1.0  0.93996  0.34503  0.19069000000000005  1.0000
  H   H3        1.0  0.16304999999999997  0.66946  0.0497  1.0000
  H   H4        1.0  0.4887600000000001  0.3307  0.9178  1.0000
  H   H5        1.0  0.06128999999999999  0.28146  0.2726700000000001  1.0000
  H   H6        1.0  0.47756000000000004  0.55401  0.9119600000000002  1.0000
  H   H7        1.0  0.4789900000000001  0.9066  0.21349000000000004  1.0000
  H   H8        1.0  0.8355599999999999  0.53881  0.11833000000000002  1.0000
  H   H9        1.0  0.97613  0.60094  0.04284  1.0000
  H   H10       1.0  0.08267999999999999  0.61424  0.17844000000000002  1.0000
  H   H11       1.0  0.65526  0.05936999999999999  0.30926  1.0000
  H   H12       1.0  0.3310900000000001  0.8364399999999999  0.4510000000000001  1.0000
  H   H13       1.0  0.67041  0.51232  0.5820400000000001  1.0000
  H   H14       1.0  0.7196600000000001  0.9368  0.22746  1.0000
  H   H15       1.0  0.44722  0.52245  0.5882600000000001  1.0000
  H   H16       1.0  0.09560000000000002  0.52094  0.286  1.0000
  H   H17       1.0  0.4603  0.16409000000000004  0.3815  1.0000
  H   H18       1.0  0.39770999999999995  0.024039999999999978  0.4569300000000001  1.0000
  H   H19       1.0  0.6159699999999999  0.08130999999999997  0.6783100000000002  1.0000
  H   H20       1.0  0.06025000000000003  0.65518  0.80877  1.0000
  H   H21       1.0  0.83657  0.33129  0.94965  1.0000
  H   H22       1.0  0.5116500000000003  0.66957  0.08194000000000003  1.0000
  H   H23       1.0  0.93825  0.71872  0.7266800000000001  1.0000
  H   H24       1.0  0.5230000000000001  0.4461399999999999  0.08785000000000001  1.0000
  H   H25       1.0  0.52218  0.09482999999999998  0.7861000000000001  1.0000
  H   H26       1.0  0.16441999999999996  0.46159  0.88128  1.0000
  H   H27       1.0  0.02363  0.39973999999999993  0.9567700000000002  1.0000
  H   H28       1.0  0.91759  0.38534999999999997  0.8215700000000002  1.0000
  H   H29       1.0  0.34478000000000003  0.9403799999999998  0.69051  1.0000
  H   H30       1.0  0.66855  0.16301  0.54823  1.0000
  H   H31       1.0  0.32787  0.48823999999999995  0.41819  1.0000
  H   H32       1.0  0.28046  0.06296999999999997  0.7723100000000003  1.0000
  H   H33       1.0  0.5515  0.47773  0.41134000000000004  1.0000
  H   H34       1.0  0.9037  0.47848999999999997  0.7139600000000002  1.0000
  H   H35       1.0  0.53994  0.8358  0.61838  1.0000
  H   H36       1.0  0.60248  0.97614  0.54302  1.0000
  C   C1        1.0  0.33497999999999983  0.9939499999999999  0.28624000000000005  1.0000
  C   C2        1.0  0.9986500000000001  0.37451999999999996  0.1571  1.0000
  C   C3        1.0  0.37642  0.05886999999999999  0.11875  1.0000
  C   C4        1.0  0.3180900000000001  0.62384  0.9797900000000003  1.0000
  C   C5        1.0  0.23277000000000003  0.59444  0.02074  1.0000
  C   C6        1.0  0.15452  0.43721  0.07183  1.0000
  C   C7        1.0  0.15799999999999997  0.10618999999999998  0.36534000000000005  1.0000
  C   C8        1.0  0.3329400000000001  0.37523999999999996  0.98721  1.0000
  C   C9        1.0  0.32029  0.08378  0.18230000000000005  1.0000
  C   C10       1.0  0.41747999999999996  0.40581999999999996  0.94608  1.0000
  C   C11       1.0  0.3170099999999998  0.75336  0.9770100000000002  1.0000
  C   C12       1.0  0.20125000000000004  0.19366999999999998  0.19774000000000003  1.0000
  C   C13       1.0  0.13508000000000003  0.30278  0.15304  1.0000
  C   C14       1.0  0.1501  0.19835999999999998  0.2580100000000001  1.0000
  C   C15       1.0  0.4107900000000002  0.52934  0.94243  1.0000
  C   C16       1.0  0.38667  0.9869599999999998  0.22687  1.0000
  C   C17       1.0  0.3387200000000001  0.24456999999999998  0.98498  1.0000
  C   C18       1.0  0.24040000000000006  0.46935999999999994  0.02563  1.0000
  C   C19       1.0  0.9407399999999998  0.4821  0.11687  1.0000
  C   C20       1.0  0.21532999999999997  0.09996999999999999  0.30182  1.0000
  C   C21       1.0  0.019290000000000005  0.51649  0.07434  1.0000
  C   C22       1.0  0.008020000000000003  0.6641799999999999  0.21343  1.0000
  C   C23       1.0  0.62584  0.0009299999999999917  0.34298000000000006  1.0000
  C   C24       1.0  0.9449099999999999  0.62398  0.3813000000000001  1.0000
  C   C25       1.0  0.37696999999999997  0.68202  0.52096  1.0000
  C   C26       1.0  0.40606000000000003  0.76731  0.47991000000000006  1.0000
  C   C27       1.0  0.56322  0.84558  0.42847  1.0000
  C   C28       1.0  0.89447  0.8418  0.1347  1.0000
  C   C29       1.0  0.62524  0.6677099999999999  0.51284  1.0000
  C   C30       1.0  0.91875  0.67978  0.3178  1.0000
  C   C31       1.0  0.59507  0.58312  0.5539700000000001  1.0000
  C   C32       1.0  0.24771999999999997  0.68234  0.52411  1.0000
  C   C33       1.0  0.80812  0.79834  0.30254  1.0000
  C   C34       1.0  0.6985000000000001  0.86454  0.3473  1.0000
  C   C35       1.0  0.80312  0.8487  0.24217  1.0000
  C   C36       1.0  0.47165999999999986  0.58945  0.5579300000000001  1.0000
  C   C37       1.0  0.015230000000000007  0.61315  0.27282  1.0000
  C   C38       1.0  0.75574  0.6622  0.51499  1.0000
  C   C39       1.0  0.53111  0.75996  0.47471000000000013  1.0000
  C   C40       1.0  0.51751  0.05898999999999999  0.38308  1.0000
  C   C41       1.0  0.9015399999999999  0.7834799999999997  0.19806  1.0000
  C   C42       1.0  0.4829899999999999  0.9806999999999999  0.4256300000000001  1.0000
  C   C43       1.0  0.66559  0.006869999999999995  0.71322  1.0000
  C   C44       1.0  0.001460000000000013  0.6258399999999998  0.8423800000000001  1.0000
  C   C45       1.0  0.62399  0.9421699999999998  0.8809800000000002  1.0000
  C   C46       1.0  0.68213  0.37656  0.019900000000000004  1.0000
  C   C47       1.0  0.7669699999999999  0.40619  0.9787  1.0000
  C   C48       1.0  0.84544  0.56328  0.9276500000000001  1.0000
  C   C49       1.0  0.84179  0.8928799999999999  0.63385  1.0000
  C   C50       1.0  0.6671999999999999  0.6252  0.012390000000000002  1.0000
  C   C51       1.0  0.6801999999999999  0.9171799999999999  0.81735  1.0000
  C   C52       1.0  0.5828200000000001  0.59454  0.05359000000000001  1.0000
  C   C53       1.0  0.68324  0.24697999999999998  0.02289  1.0000
  C   C54       1.0  0.79893  0.80701  0.8017900000000001  1.0000
  C   C55       1.0  0.8650499999999999  0.69766  0.84643  1.0000
  C   C56       1.0  0.84984  0.80212  0.7414500000000002  1.0000
  C   C57       1.0  0.58952  0.47102  0.05729  1.0000
  C   C58       1.0  0.6142100000000001  0.014139999999999976  0.7726900000000002  1.0000
  C   C59       1.0  0.66154  0.75576  0.01485  1.0000
  C   C60       1.0  0.75945  0.53123  0.97383  1.0000
  C   C61       1.0  0.05925999999999999  0.51835  0.88266  1.0000
  C   C62       1.0  0.7848099999999999  0.90052  0.69755  1.0000
  C   C63       1.0  0.98064  0.48401  0.9251700000000002  1.0000
  C   C64       1.0  0.9918999999999999  0.33537  0.7864800000000001  1.0000
  C   C65       1.0  0.37416999999999995  0.99889  0.6568500000000002  1.0000
  C   C66       1.0  0.05497000000000003  0.37545999999999996  0.6186000000000001  1.0000
  C   C67       1.0  0.6222600000000001  0.31776999999999994  0.4785100000000001  1.0000
  C   C68       1.0  0.5933699999999998  0.23228999999999997  0.5195  1.0000
  C   C69       1.0  0.43642  0.15431  0.5713700000000002  1.0000
  C   C70       1.0  0.10586000000000001  0.1583  0.86529  1.0000
  C   C71       1.0  0.37389  0.33231  0.48708  1.0000
  C   C72       1.0  0.08086000000000002  0.31981  0.68212  1.0000
  C   C73       1.0  0.40375  0.41711  0.44593000000000005  1.0000
  C   C74       1.0  0.7517100000000001  0.31701  0.47552  1.0000
  C   C75       1.0  0.19163999999999998  0.20136999999999997  0.69734  1.0000
  C   C76       1.0  0.30127999999999994  0.13525999999999996  0.6525700000000002  1.0000
  C   C77       1.0  0.19681999999999994  0.15097999999999998  0.7577000000000002  1.0000
  C   C78       1.0  0.5272700000000001  0.41065999999999997  0.4417300000000001  1.0000
  C   C79       1.0  0.98434  0.3864099999999999  0.72709  1.0000
  C   C80       1.0  0.24361999999999998  0.33745  0.48503  1.0000
  C   C81       1.0  0.46827  0.23984999999999995  0.52502  1.0000
  C   C82       1.0  0.48263999999999996  0.9408899999999999  0.6168  1.0000
  C   C83       1.0  0.09858999999999997  0.21623999999999996  0.8018600000000001  1.0000
  C   C84       1.0  0.5171  0.01926  0.57429  1.0000
  N   N1        1.0  0.21125  0.33224  0.11013000000000002  1.0000
  N   N2        1.0  0.66913  0.78874  0.39037000000000005  1.0000
  N   N3        1.0  0.7888399999999999  0.66826  0.8893200000000001  1.0000
  N   N4        1.0  0.33048  0.21109  0.6094600000000001  1.0000
  O   O1        1.0  0.44993  0.14504999999999996  0.9817400000000001  1.0000
  O   O2        1.0  0.3087  0.04424999999999999  0.08182000000000002  1.0000
  O   O3        1.0  0.23436999999999997  0.23487999999999998  0.9819400000000001  1.0000
  O   O4        1.0  0.49189  0.04478  0.10889  1.0000
  O   O5        1.0  0.25609  0.83351  0.01799  1.0000
  O   O6        1.0  0.08005000000000001  0.21677  0.38495  1.0000
  O   O7        1.0  0.3824599999999999  0.78301  0.93335  1.0000
  O   O8        1.0  0.18746  0.0008299999999999899  0.39701000000000003  1.0000
  O   O9        1.0  0.8550700000000001  0.55082  0.51828  1.0000
  O   O10       1.0  0.9601800000000001  0.69174  0.4180200000000001  1.0000
  O   O11       1.0  0.7654199999999999  0.76645  0.5180800000000001  1.0000
  O   O12       1.0  0.95948  0.50838  0.3909400000000001  1.0000
  O   O13       1.0  0.16597999999999996  0.7458400000000001  0.48429  1.0000
  O   O14       1.0  0.7834  0.91662  0.11523  1.0000
  O   O15       1.0  0.21924000000000007  0.61421  0.56671  1.0000
  O   O16       1.0  0.9999499999999999  0.8168399999999999  0.10349  1.0000
  O   O17       1.0  0.55033  0.85534  0.018250000000000002  1.0000
  O   O18       1.0  0.6918899999999997  0.95603  0.9180800000000002  1.0000
  O   O19       1.0  0.7659299999999999  0.76524  0.01803  1.0000
  O   O20       1.0  0.5081600000000001  0.9573099999999999  0.89095  1.0000
  O   O21       1.0  0.7441999999999999  0.16656999999999997  0.9820100000000003  1.0000
  O   O22       1.0  0.92082  0.78171  0.61512  1.0000
  O   O23       1.0  0.61774  0.21739999999999998  0.06656  1.0000
  O   O24       1.0  0.8116900000000002  0.99635  0.6007  1.0000
  O   O25       1.0  0.14416000000000007  0.44865  0.4817000000000001  1.0000
  O   O26       1.0  0.040160000000000036  0.30757  0.58182  1.0000
  O   O27       1.0  0.23424  0.23301999999999998  0.48194000000000004  1.0000
  O   O28       1.0  0.04038999999999998  0.49106999999999995  0.6090500000000001  1.0000
  O   O29       1.0  0.8341600000000001  0.25100999999999996  0.5147900000000001  1.0000
  O   O30       1.0  0.21697  0.08364  0.88476  1.0000
  O   O31       1.0  0.7789999999999999  0.38762  0.4337500000000001  1.0000
  O   O32       1.0  0.00035999999999996896  0.18356  0.89656  1.0000
