data_image0
_chemical_formula_structural       Mn12H24C72S12O48
_chemical_formula_sum              "Mn12 H24 C72 S12 O48"
_cell_length_a       9.91231
_cell_length_b       17.94989
_cell_length_c       21.78166
_cell_angle_alpha    103.18371
_cell_angle_beta     89.99632999999999
_cell_angle_gamma    89.99681

_space_group_name_H-M_alt    "P 1"
_space_group_IT_number       1

loop_
  _space_group_symop_operation_xyz
  'x, y, z'

loop_
  _atom_site_type_symbol
  _atom_site_label
  _atom_site_symmetry_multiplicity
  _atom_site_fract_x
  _atom_site_fract_y
  _atom_site_fract_z
  _atom_site_occupancy
  Mn  Mn1       1.0  0.06894  0.21041  0.13431  1.0000
  Mn  Mn2       1.0  0.10589  0.28218999999999994  0.29768  1.0000
  Mn  Mn3       1.0  0.28517000000000003  0.27516  0.43557  1.0000
  Mn  Mn4       1.0  0.56897  0.7895399999999999  0.36566  1.0000
  Mn  Mn5       1.0  0.6059  0.7177799999999999  0.20226  1.0000
  Mn  Mn6       1.0  0.78533  0.72485  0.06446999999999999  1.0000
  Mn  Mn7       1.0  0.93106  0.7895899999999998  0.8656899999999998  1.0000
  Mn  Mn8       1.0  0.89411  0.71781  0.70233  1.0000
  Mn  Mn9       1.0  0.7148300000000001  0.7248399999999998  0.56443  1.0000
  Mn  Mn10      1.0  0.4310300000000001  0.21046  0.63435  1.0000
  Mn  Mn11      1.0  0.39410000000000006  0.28222  0.79774  1.0000
  Mn  Mn12      1.0  0.21467  0.27515000000000006  0.93553  1.0000
  H   H1        1.0  0.85256  0.08404999999999997  0.33082  1.0000
  H   H2        1.0  0.76645  0.9398  0.31295  1.0000
  H   H3        1.0  0.11896000000000001  0.38559  0.09742  1.0000
  H   H4        1.0  0.02473  0.50515  0.057619999999999984  1.0000
  H   H5        1.0  0.8058700000000001  0.29822999999999994  0.35763  1.0000
  H   H6        1.0  0.55698  0.2864  0.3972  1.0000
  H   H7        1.0  0.35253  0.91597  0.16923999999999997  1.0000
  H   H8        1.0  0.26651  0.060250000000000005  0.18711999999999998  1.0000
  H   H9        1.0  0.61886  0.6142199999999999  0.40256  1.0000
  H   H10       1.0  0.5244100000000002  0.49477  0.44235999999999986  1.0000
  H   H11       1.0  0.30592  0.70177  0.14234  1.0000
  H   H12       1.0  0.05707  0.71357  0.10279  1.0000
  H   H13       1.0  0.14744000000000002  0.91595  0.6691799999999999  1.0000
  H   H14       1.0  0.23356  0.0602  0.68706  1.0000
  H   H15       1.0  0.88104  0.6144099999999999  0.9025899999999999  1.0000
  H   H16       1.0  0.97527  0.49485  0.9423799999999999  1.0000
  H   H17       1.0  0.19413  0.7017699999999999  0.64238  1.0000
  H   H18       1.0  0.44302  0.7136  0.6027999999999999  1.0000
  H   H19       1.0  0.6474700000000001  0.08402999999999991  0.8307699999999998  1.0000
  H   H20       1.0  0.73349  0.93975  0.8128899999999999  1.0000
  H   H21       1.0  0.38114  0.3857799999999999  0.59744  1.0000
  H   H22       1.0  0.47559  0.50523  0.55765  1.0000
  H   H23       1.0  0.6940800000000001  0.2982299999999999  0.85767  1.0000
  H   H24       1.0  0.94293  0.28643  0.89721  1.0000
  C   C1        1.0  0.9334000000000001  0.053219999999999996  0.23553  1.0000
  C   C2        1.0  0.8677600000000001  0.039449999999999985  0.28838  1.0000
  C   C3        1.0  0.82291  0.9632499999999999  0.27901  1.0000
  C   C4        1.0  0.85387  0.92011  0.21902  1.0000
  C   C5        1.0  0.98787  0.12563999999999997  0.22649  1.0000
  C   C6        1.0  0.8154800000000001  0.8405699999999998  0.19004999999999994  1.0000
  C   C7        1.0  0.9855500000000001  0.41953  0.17863  1.0000
  C   C8        1.0  0.04358  0.42562  0.12164  1.0000
  C   C9        1.0  0.9938100000000001  0.48884  0.10057  1.0000
  C   C10       1.0  0.8987300000000001  0.5301099999999999  0.14169  1.0000
  C   C11       1.0  0.0161  0.3626  0.21474999999999997  1.0000
  C   C12       1.0  0.8252800000000001  0.60024  0.13716  1.0000
  C   C13       1.0  0.87511  0.26211999999999996  0.4416299999999999  1.0000
  C   C14       1.0  0.77926  0.28035  0.40051  1.0000
  C   C15       1.0  0.64658  0.27373999999999993  0.42163999999999996  1.0000
  C   C16       1.0  0.64303  0.25015999999999994  0.4783299999999999  1.0000
  C   C17       1.0  0.02161  0.26792  0.43781  1.0000
  C   C18       1.0  0.52894  0.23985  0.51817  1.0000
  C   C19       1.0  0.43345000000000006  0.9467899999999999  0.26449999999999996  1.0000
  C   C20       1.0  0.3678  0.9605699999999999  0.21165999999999996  1.0000
  C   C21       1.0  0.32297  0.03676999999999998  0.22104  1.0000
  C   C22       1.0  0.35397  0.07991  0.28101  1.0000
  C   C23       1.0  0.48787  0.87436  0.27353  1.0000
  C   C24       1.0  0.31554  0.15945  0.30997  1.0000
  C   C25       1.0  0.4855400000000001  0.5804  0.32133  1.0000
  C   C26       1.0  0.54344  0.57425  0.37833  1.0000
  C   C27       1.0  0.49347  0.51109  0.39941  1.0000
  C   C28       1.0  0.39828  0.46995999999999993  0.35826999999999987  1.0000
  C   C29       1.0  0.5162  0.6373299999999997  0.28524  1.0000
  C   C30       1.0  0.3248500000000001  0.39978999999999987  0.3626  1.0000
  C   C31       1.0  0.37517  0.73789  0.058339999999999996  1.0000
  C   C32       1.0  0.27932  0.71967  0.09945999999999999  1.0000
  C   C33       1.0  0.14663  0.7262999999999998  0.07836  1.0000
  C   C34       1.0  0.14304  0.7499199999999999  0.02168  1.0000
  C   C35       1.0  0.5216800000000001  0.73206  0.06213999999999999  1.0000
  C   C36       1.0  0.02896  0.76021  0.98184  1.0000
  C   C37       1.0  0.0666  0.9467799999999998  0.7644699999999999  1.0000
  C   C38       1.0  0.13224  0.96055  0.71162  1.0000
  C   C39       1.0  0.17709  0.036750000000000005  0.721  1.0000
  C   C40       1.0  0.14613000000000004  0.07988999999999997  0.78098  1.0000
  C   C41       1.0  0.01214  0.87436  0.7735199999999998  1.0000
  C   C42       1.0  0.18452  0.15942999999999996  0.8099599999999999  1.0000
  C   C43       1.0  0.014450000000000001  0.58047  0.8213699999999998  1.0000
  C   C44       1.0  0.9564200000000002  0.57438  0.8783599999999999  1.0000
  C   C45       1.0  0.00619  0.51116  0.8994299999999997  1.0000
  C   C46       1.0  0.10127000000000001  0.46989  0.85832  1.0000
  C   C47       1.0  0.9839000000000001  0.6374  0.78526  1.0000
  C   C48       1.0  0.17472  0.3997599999999999  0.8628399999999999  1.0000
  C   C49       1.0  0.12489  0.7378799999999999  0.5583799999999999  1.0000
  C   C50       1.0  0.22074  0.7196499999999998  0.59949  1.0000
  C   C51       1.0  0.35342000000000007  0.72626  0.57837  1.0000
  C   C52       1.0  0.3569800000000001  0.74984  0.52167  1.0000
  C   C53       1.0  0.9783900000000001  0.7320799999999998  0.5622  1.0000
  C   C54       1.0  0.47106  0.76015  0.4818299999999999  1.0000
  C   C55       1.0  0.56655  0.053200000000000004  0.7355  1.0000
  C   C56       1.0  0.63221  0.03943000000000002  0.78834  1.0000
  C   C57       1.0  0.67704  0.96323  0.77897  1.0000
  C   C58       1.0  0.64603  0.9200899999999999  0.7189999999999998  1.0000
  C   C59       1.0  0.5121300000000001  0.12563999999999997  0.72648  1.0000
  C   C60       1.0  0.68446  0.8405500000000001  0.69004  1.0000
  C   C61       1.0  0.51446  0.4196  0.67867  1.0000
  C   C62       1.0  0.45656  0.42575  0.62168  1.0000
  C   C63       1.0  0.50653  0.48891  0.60059  1.0000
  C   C64       1.0  0.60172  0.53004  0.64173  1.0000
  C   C65       1.0  0.48380000000000006  0.36267  0.71477  1.0000
  C   C66       1.0  0.67515  0.60021  0.6373999999999999  1.0000
  C   C67       1.0  0.62484  0.26211  0.94166  1.0000
  C   C68       1.0  0.72068  0.28033  0.90054  1.0000
  C   C69       1.0  0.85337  0.2737  0.92164  1.0000
  C   C70       1.0  0.85696  0.25007999999999997  0.9783199999999997  1.0000
  C   C71       1.0  0.47833000000000003  0.26794  0.93786  1.0000
  C   C72       1.0  0.97104  0.23978999999999998  0.01817  1.0000
  S   S1        1.0  0.87002  0.49153  0.20614  1.0000
  S   S2        1.0  0.80291  0.23541  0.50519  1.0000
  S   S3        1.0  0.9387700000000001  0.9729  0.17433999999999997  1.0000
  S   S4        1.0  0.36990000000000006  0.5085  0.29379  1.0000
  S   S5        1.0  0.30293  0.7646399999999997  0.9948099999999998  1.0000
  S   S6        1.0  0.43886000000000003  0.027129999999999984  0.32567999999999997  1.0000
  S   S7        1.0  0.12998  0.50847  0.79387  1.0000
  S   S8        1.0  0.1971  0.76459  0.4948199999999999  1.0000
  S   S9        1.0  0.06123000000000001  0.02709999999999994  0.8256599999999998  1.0000
  S   S10       1.0  0.6301  0.4915  0.7062199999999998  1.0000
  S   S11       1.0  0.6970700000000001  0.23536  0.00519  1.0000
  S   S12       1.0  0.56114  0.97287  0.67432  1.0000
  O   O1        1.0  0.0468  0.12228000000000001  0.17222999999999997  1.0000
  O   O2        1.0  0.9731300000000002  0.18621  0.26903  1.0000
  O   O3        1.0  0.84013  0.81832  0.13055  1.0000
  O   O4        1.0  0.76028  0.80049  0.22424999999999995  1.0000
  O   O5        1.0  0.10739  0.30987  0.19115  1.0000
  O   O6        1.0  0.9621600000000001  0.36313  0.26719  1.0000
  O   O7        1.0  0.85377  0.62939  0.08997999999999998  1.0000
  O   O8        1.0  0.74108  0.62589  0.18086  1.0000
  O   O9        1.0  0.07337  0.29619  0.39351  1.0000
  O   O10       1.0  0.09907  0.24833999999999995  0.4781899999999999  1.0000
  O   O11       1.0  0.4082100000000001  0.25909  0.50892  1.0000
  O   O12       1.0  0.5596800000000001  0.21114999999999998  0.5659099999999999  1.0000
  O   O13       1.0  0.5468  0.8777099999999998  0.32778999999999997  1.0000
  O   O14       1.0  0.47313000000000005  0.8137699999999999  0.23099999999999998  1.0000
  O   O15       1.0  0.34022  0.18171999999999994  0.3694599999999999  1.0000
  O   O16       1.0  0.26028  0.19949999999999998  0.27576  1.0000
  O   O17       1.0  0.60745  0.69005  0.30886  1.0000
  O   O18       1.0  0.46239  0.63683  0.23276999999999998  1.0000
  O   O19       1.0  0.35311  0.37066  0.40981999999999996  1.0000
  O   O20       1.0  0.24121  0.37406  0.31866  1.0000
  O   O21       1.0  0.5733800000000001  0.70378  0.10643999999999998  1.0000
  O   O22       1.0  0.59917  0.75163  0.021759999999999998  1.0000
  O   O23       1.0  0.9082300000000001  0.74096  0.9910699999999999  1.0000
  O   O24       1.0  0.05973  0.78888  0.9340799999999998  1.0000
  O   O25       1.0  0.9532  0.87772  0.8277799999999997  1.0000
  O   O26       1.0  0.02687  0.81379  0.7309799999999997  1.0000
  O   O27       1.0  0.15987  0.18168  0.86945  1.0000
  O   O28       1.0  0.23972  0.19950999999999997  0.77575  1.0000
  O   O29       1.0  0.89261  0.69013  0.80885  1.0000
  O   O30       1.0  0.03784  0.63687  0.7328099999999999  1.0000
  O   O31       1.0  0.14623000000000003  0.3706099999999999  0.9100199999999999  1.0000
  O   O32       1.0  0.25892  0.37411  0.81914  1.0000
  O   O33       1.0  0.92663  0.70381  0.6064999999999999  1.0000
  O   O34       1.0  0.90094  0.7516599999999998  0.52181  1.0000
  O   O35       1.0  0.59179  0.74091  0.49108999999999997  1.0000
  O   O36       1.0  0.44032000000000004  0.7888499999999999  0.43409  1.0000
  O   O37       1.0  0.4532  0.12229  0.67222  1.0000
  O   O38       1.0  0.52687  0.18622  0.76901  1.0000
  O   O39       1.0  0.65978  0.8182799999999998  0.63055  1.0000
  O   O40       1.0  0.73972  0.8004999999999998  0.7242399999999999  1.0000
  O   O41       1.0  0.39255000000000007  0.30995  0.69114  1.0000
  O   O42       1.0  0.53761  0.36317  0.76723  1.0000
  O   O43       1.0  0.64689  0.6293399999999998  0.59019  1.0000
  O   O44       1.0  0.75879  0.6259399999999999  0.68134  1.0000
  O   O45       1.0  0.42662  0.29621999999999993  0.8935599999999999  1.0000
  O   O46       1.0  0.40083  0.24837000000000004  0.97824  1.0000
  O   O47       1.0  0.09177  0.25904  0.00893  1.0000
  O   O48       1.0  0.94027  0.21112  0.06591999999999999  1.0000
