data_image0
_chemical_formula_structural       Zn4H88C64N16O8
_chemical_formula_sum              "Zn4 H88 C64 N16 O8"
_cell_length_a       10.17949
_cell_length_b       11.58096
_cell_length_c       24.8492
_cell_angle_alpha    90.00033999999998
_cell_angle_beta     90.00277
_cell_angle_gamma    92.48125

_symmetry_space_group_name_H-M    'P 1'
_symmetry_Int_Tables_number       1

loop_
  _symmetry_equiv_pos_as_xyz
  'x,y,z'

loop_
  _atom_site_type_symbol
  _atom_site_label
  _atom_site_symmetry_multiplicity
  _atom_site_fract_x
  _atom_site_fract_y
  _atom_site_fract_z
  _atom_site_occupancy
  Zn  Zn1       1.0  0.42889  0.5820500000000001  0.77492  1.0000
  Zn  Zn2       1.0  0.92558  0.56589  0.85815  1.0000
  Zn  Zn3       1.0  0.57104  0.41793  0.27497  1.0000
  Zn  Zn4       1.0  0.07445  0.43417  0.35809  1.0000
  H   H1        1.0  0.55288  0.54749  0.8655999999999998  1.0000
  H   H2        1.0  0.50501  0.67518  0.8631799999999997  1.0000
  H   H3        1.0  0.34154  0.8875  0.11406  1.0000
  H   H4        1.0  0.19093999999999997  0.85547  0.12178999999999998  1.0000
  H   H5        1.0  0.23985  0.92257  0.07033  1.0000
  H   H6        1.0  0.04750000000000001  0.6188800000000001  0.7674399999999998  1.0000
  H   H7        1.0  0.96928  0.49395  0.7596  1.0000
  H   H8        1.0  0.81066  0.81224  0.59131  1.0000
  H   H9        1.0  0.72785  0.7920200000000002  0.5330899999999998  1.0000
  H   H10       1.0  0.8934800000000002  0.8118  0.53249  1.0000
  H   H11       1.0  0.51798  0.66537  0.6678199999999999  1.0000
  H   H12       1.0  0.4495  0.63398  0.5742999999999999  1.0000
  H   H13       1.0  0.13748000000000005  0.39593  0.63558  1.0000
  H   H14       1.0  0.21263  0.4468400000000001  0.7262599999999998  1.0000
  H   H15       1.0  0.27647  0.58123  0.40931  1.0000
  H   H16       1.0  0.37082  0.6178  0.4990199999999999  1.0000
  H   H17       1.0  0.10621999999999998  0.3372800000000001  0.55787  1.0000
  H   H18       1.0  0.03375  0.30934000000000006  0.46433  1.0000
  H   H19       1.0  0.74243  0.7608900000000002  0.8365999999999999  1.0000
  H   H20       1.0  0.73336  0.97172  0.8335  1.0000
  H   H21       1.0  0.13826  0.9875  0.8919299999999998  1.0000
  H   H22       1.0  0.12766  0.77526  0.88717  1.0000
  H   H23       1.0  0.79241  0.35618000000000005  0.7968499999999998  1.0000
  H   H24       1.0  0.77712  0.14375  0.79962  1.0000
  H   H25       1.0  0.09249  0.16682  0.91838  1.0000
  H   H26       1.0  0.07937  0.38101  0.91187  1.0000
  H   H27       1.0  0.35597  0.47679  0.90299  1.0000
  H   H28       1.0  0.3482  0.7361800000000001  0.92292  1.0000
  H   H29       1.0  0.2492  0.63174  0.9561699999999997  1.0000
  H   H30       1.0  0.55127  0.6358900000000001  0.9626999999999998  1.0000
  H   H31       1.0  0.438  0.5407800000000001  0.9951699999999998  1.0000
  H   H32       1.0  0.50436  0.7128800000000002  0.05653  1.0000
  H   H33       1.0  0.41208  0.79567  0.01382  1.0000
  H   H34       1.0  0.29447  0.6339700000000001  0.09698999999999999  1.0000
  H   H35       1.0  0.20124  0.67508  0.03817  1.0000
  H   H36       1.0  0.8588100000000001  0.72151  0.7490599999999998  1.0000
  H   H37       1.0  0.83738  0.5039500000000001  0.67899  1.0000
  H   H38       1.0  0.73909  0.62281  0.66879  1.0000
  H   H39       1.0  0.04446  0.63785  0.6694  1.0000
  H   H40       1.0  0.94375  0.75381  0.6551999999999999  1.0000
  H   H41       1.0  0.04405  0.66014  0.57138  1.0000
  H   H42       1.0  0.9686400000000001  0.52618  0.58898  1.0000
  H   H43       1.0  0.7392600000000001  0.60451  0.57587  1.0000
  H   H44       1.0  0.8382600000000001  0.60958  0.51711  1.0000
  H   H45       1.0  0.44736  0.4525400000000001  0.3655599999999999  1.0000
  H   H46       1.0  0.49509  0.32488  0.36311999999999994  1.0000
  H   H47       1.0  0.65853  0.11272  0.6139999999999999  1.0000
  H   H48       1.0  0.80898  0.14473  0.62171  1.0000
  H   H49       1.0  0.76013  0.07744  0.57044  1.0000
  H   H50       1.0  0.95286  0.38112  0.26748  1.0000
  H   H51       1.0  0.03081  0.5059  0.25965  1.0000
  H   H52       1.0  0.18935  0.18782000000000004  0.09121  1.0000
  H   H53       1.0  0.27205  0.20801000000000006  0.0331  1.0000
  H   H54       1.0  0.10657  0.18821  0.03249  1.0000
  H   H55       1.0  0.48183  0.3345000000000001  0.16786999999999994  1.0000
  H   H56       1.0  0.55055  0.3660700000000001  0.07435  1.0000
  H   H57       1.0  0.86253  0.6040700000000001  0.13559  1.0000
  H   H58       1.0  0.78756  0.5533000000000001  0.2264  1.0000
  H   H59       1.0  0.72376  0.4191300000000001  0.90956  1.0000
  H   H60       1.0  0.62945  0.38247  0.99904  1.0000
  H   H61       1.0  0.8936400000000001  0.6625400000000001  0.057819999999999996  1.0000
  H   H62       1.0  0.96582  0.69026  0.9644099999999999  1.0000
  H   H63       1.0  0.25793  0.23920000000000005  0.33656  1.0000
  H   H64       1.0  0.26705  0.028070000000000005  0.33346  1.0000
  H   H65       1.0  0.86138  0.012270000000000001  0.39196999999999993  1.0000
  H   H66       1.0  0.87204  0.22482  0.38721  1.0000
  H   H67       1.0  0.20787999999999998  0.64373  0.29675  1.0000
  H   H68       1.0  0.22316  0.8564800000000001  0.29950999999999994  1.0000
  H   H69       1.0  0.9072200000000001  0.83337  0.41850999999999994  1.0000
  H   H70       1.0  0.92036  0.61884  0.41198  1.0000
  H   H71       1.0  0.64406  0.52329  0.403  1.0000
  H   H72       1.0  0.65179  0.26367000000000007  0.4228899999999999  1.0000
  H   H73       1.0  0.751  0.36834  0.4561899999999999  1.0000
  H   H74       1.0  0.44857  0.36412000000000005  0.46266  1.0000
  H   H75       1.0  0.56205  0.4594500000000001  0.49520999999999993  1.0000
  H   H76       1.0  0.49548  0.28711000000000003  0.5565499999999999  1.0000
  H   H77       1.0  0.5879  0.20424000000000003  0.5138  1.0000
  H   H78       1.0  0.70557  0.36593  0.59713  1.0000
  H   H79       1.0  0.7988400000000001  0.32484  0.5381799999999999  1.0000
  H   H80       1.0  0.14117000000000002  0.27845000000000003  0.24905999999999998  1.0000
  H   H81       1.0  0.16261  0.49601000000000006  0.17898  1.0000
  H   H82       1.0  0.26082  0.37715000000000004  0.16883  1.0000
  H   H83       1.0  0.95561  0.36216  0.16939  1.0000
  H   H84       1.0  0.05627000000000001  0.24622000000000002  0.1552  1.0000
  H   H85       1.0  0.95607  0.33987000000000006  0.07144  1.0000
  H   H86       1.0  0.03139  0.47368  0.08897999999999999  1.0000
  H   H87       1.0  0.2605  0.3954000000000001  0.07582  1.0000
  H   H88       1.0  0.16171  0.3904100000000001  0.01715  1.0000
  C   C1        1.0  0.43366  0.6079  0.65818  1.0000
  C   C2        1.0  0.3947  0.58852  0.60633  1.0000
  C   C3        1.0  0.28576  0.50907  0.59363  1.0000
  C   C4        1.0  0.22143000000000004  0.45728000000000013  0.64015  1.0000
  C   C5        1.0  0.26353  0.4828800000000001  0.6910099999999999  1.0000
  C   C6        1.0  0.24558  0.52793  0.44379999999999986  1.0000
  C   C7        1.0  0.29438  0.54961  0.4945699999999999  1.0000
  C   C8        1.0  0.24462000000000003  0.4846700000000001  0.54022  1.0000
  C   C9        1.0  0.14744000000000002  0.39495000000000013  0.5269  1.0000
  C   C10       1.0  0.10558000000000001  0.37823000000000007  0.47473999999999994  1.0000
  C   C11       1.0  0.8287900000000001  0.8154  0.8463499999999999  1.0000
  C   C12       1.0  0.82492  0.93404  0.84553  1.0000
  C   C13       1.0  0.9364900000000002  0.005910000000000001  0.8615399999999999  1.0000
  C   C14       1.0  0.04702  0.9428  0.87903  1.0000
  C   C15       1.0  0.04282000000000001  0.8235500000000002  0.87627  1.0000
  C   C16       1.0  0.85596  0.30907  0.82301  1.0000
  C   C17       1.0  0.84779  0.19042000000000006  0.8255399999999998  1.0000
  C   C18       1.0  0.93559  0.13014000000000003  0.8596299999999999  1.0000
  C   C19       1.0  0.022770000000000002  0.20431000000000002  0.8907899999999999  1.0000
  C   C20       1.0  0.01988  0.32282  0.8866999999999998  1.0000
  C   C21       1.0  0.22798  0.5754400000000001  0.85642  1.0000
  C   C22       1.0  0.35284  0.56706  0.88881  1.0000
  C   C23       1.0  0.34626  0.64602  0.9373599999999997  1.0000
  C   C24       1.0  0.45081  0.6289400000000002  0.9795999999999998  1.0000
  C   C25       1.0  0.42061  0.70625  0.028619999999999993  1.0000
  C   C26       1.0  0.29617  0.66131  0.05577  1.0000
  C   C27       1.0  0.71866  0.59885  0.7733399999999998  1.0000
  C   C28       1.0  0.84762  0.6272900000000001  0.7439599999999998  1.0000
  C   C29       1.0  0.8373500000000001  0.59905  0.6834  1.0000
  C   C30       1.0  0.94957  0.65839  0.65077  1.0000
  C   C31       1.0  0.95559  0.6207100000000001  0.5913399999999999  1.0000
  C   C32       1.0  0.83188  0.641  0.5586499999999999  1.0000
  C   C33       1.0  0.56612  0.39197000000000004  0.15815999999999997  1.0000
  C   C34       1.0  0.60537  0.41153000000000006  0.10632999999999997  1.0000
  C   C35       1.0  0.7143399999999999  0.49096  0.09331999999999997  1.0000
  C   C36       1.0  0.7786  0.54278  0.14012  1.0000
  C   C37       1.0  0.7366  0.5171800000000001  0.19106  1.0000
  C   C38       1.0  0.75439  0.47205000000000014  0.94391  1.0000
  C   C39       1.0  0.70564  0.45031  0.9945299999999998  1.0000
  C   C40       1.0  0.75547  0.51531  0.03994999999999999  1.0000
  C   C41       1.0  0.85272  0.60521  0.026859999999999995  1.0000
  C   C42       1.0  0.8943200000000001  0.6217000000000001  0.97484  1.0000
  C   C43       1.0  0.17128  0.18473  0.34635  1.0000
  C   C44       1.0  0.17525  0.06585  0.34547  1.0000
  C   C45       1.0  0.06346  0.99407  0.3615499999999999  1.0000
  C   C46       1.0  0.95288  0.057030000000000004  0.37908  1.0000
  C   C47       1.0  0.95716  0.17658  0.37626999999999994  1.0000
  C   C48       1.0  0.14407  0.6908  0.32298999999999994  1.0000
  C   C49       1.0  0.15241  0.8097100000000003  0.32551  1.0000
  C   C50       1.0  0.06436  0.86991  0.3596499999999999  1.0000
  C   C51       1.0  0.9771100000000001  0.79585  0.3907999999999999  1.0000
  C   C52       1.0  0.9801700000000001  0.67703  0.38670999999999994  1.0000
  C   C53       1.0  0.77255  0.42449  0.35611  1.0000
  C   C54       1.0  0.64733  0.43325000000000014  0.38888  1.0000
  C   C55       1.0  0.65379  0.3537500000000001  0.43739  1.0000
  C   C56       1.0  0.5489600000000001  0.37097  0.47962  1.0000
  C   C57       1.0  0.57971  0.29374  0.52864  1.0000
  C   C58       1.0  0.7037500000000001  0.33889  0.55559  1.0000
  C   C59       1.0  0.28212  0.4014500000000001  0.2735  1.0000
  C   C60       1.0  0.15255000000000002  0.3722300000000001  0.24392999999999995  1.0000
  C   C61       1.0  0.16306  0.40133  0.18327999999999997  1.0000
  C   C62       1.0  0.05001  0.34129000000000004  0.15081  1.0000
  C   C63       1.0  0.04442  0.37954  0.09122  1.0000
  C   C64       1.0  0.16843000000000002  0.3590900000000001  0.05865999999999999  1.0000
  N   N1        1.0  0.37074  0.55672  0.7023299999999999  1.0000
  N   N2        1.0  0.15163  0.4438700000000001  0.4325499999999999  1.0000
  N   N3        1.0  0.9370800000000001  0.75637  0.85967  1.0000
  N   N4        1.0  0.9392  0.37826  0.85271  1.0000
  N   N5        1.0  0.47085  0.5919100000000002  0.85491  1.0000
  N   N6        1.0  0.25197  0.9239700000000002  0.11102999999999998  1.0000
  N   N7        1.0  0.95699  0.57714  0.7727799999999998  1.0000
  N   N8        1.0  0.81415  0.77477  0.55327  1.0000
  N   N9        1.0  0.62917  0.4432100000000001  0.20229999999999995  1.0000
  N   N10       1.0  0.84827  0.5560400000000001  0.93254  1.0000
  N   N11       1.0  0.06286  0.24402  0.35967999999999994  1.0000
  N   N12       1.0  0.06076000000000001  0.6213700000000001  0.35271  1.0000
  N   N13       1.0  0.52856  0.4079  0.35489  1.0000
  N   N14       1.0  0.7480900000000001  0.07561000000000001  0.61107  1.0000
  N   N15       1.0  0.0422  0.42323  0.2728  1.0000
  N   N16       1.0  0.1859  0.2251  0.05333999999999999  1.0000
  O   O1        1.0  0.23676  0.5930700000000001  0.8056  1.0000
  O   O2        1.0  0.12226  0.56528  0.8831199999999999  1.0000
  O   O3        1.0  0.72089  0.54338  0.8169099999999998  1.0000
  O   O4        1.0  0.61636  0.6417  0.7523199999999998  1.0000
  O   O5        1.0  0.76327  0.4070100000000001  0.30569999999999997  1.0000
  O   O6        1.0  0.87757  0.43465000000000004  0.38309  1.0000
  O   O7        1.0  0.27898  0.4562500000000001  0.31682999999999995  1.0000
  O   O8        1.0  0.38326  0.35835  0.25231  1.0000
