data_image0
_chemical_formula_structural       Cu16H96C48I16N16
_chemical_formula_sum              "Cu16 H96 C48 I16 N16"
_cell_length_a       16.18266
_cell_length_b       16.19723
_cell_length_c       16.19723
_cell_angle_alpha    93.86815
_cell_angle_beta     117.72259
_cell_angle_gamma    117.72259

_symmetry_space_group_name_H-M    'P 1'
_symmetry_Int_Tables_number       1

loop_
  _symmetry_equiv_pos_as_xyz
  'x,y,z'

loop_
  _atom_site_type_symbol
  _atom_site_label
  _atom_site_symmetry_multiplicity
  _atom_site_fract_x
  _atom_site_fract_y
  _atom_site_fract_z
  _atom_site_occupancy
  Cu  Cu1       1.0  0.8394400000000001  0.1132099999999999  0.7745499999999997  1.0000
  Cu  Cu2       1.0  0.6610999999999999  0.9352199999999999  0.7744099999999998  1.0000
  Cu  Cu3       1.0  0.33944000000000013  0.27455  0.61321  1.0000
  Cu  Cu4       1.0  0.1611  0.27441  0.43522  1.0000
  Cu  Cu5       1.0  0.8244799999999999  0.10136999999999996  0.9254599999999997  1.0000
  Cu  Cu6       1.0  0.6767500000000001  0.10127999999999995  0.7776799999999998  1.0000
  Cu  Cu7       1.0  0.17674999999999988  0.27767999999999987  0.6012799999999998  1.0000
  Cu  Cu8       1.0  0.32447999999999994  0.42547  0.60137  1.0000
  Cu  Cu9       1.0  0.16057  0.88679  0.22545999999999994  1.0000
  Cu  Cu10      1.0  0.3388999999999999  0.06478999999999999  0.22559999999999994  1.0000
  Cu  Cu11      1.0  0.83891  0.7256  0.56479  1.0000
  Cu  Cu12      1.0  0.6605699999999999  0.7254599999999999  0.3867899999999999  1.0000
  Cu  Cu13      1.0  0.32326  0.89872  0.22231999999999993  1.0000
  Cu  Cu14      1.0  0.17552  0.89863  0.07454  1.0000
  Cu  Cu15      1.0  0.82326  0.7223200000000002  0.39871999999999996  1.0000
  Cu  Cu16      1.0  0.6755300000000001  0.57454  0.3986299999999999  1.0000
  H   H1        1.0  0.9644500000000003  0.30639  0.73679  1.0000
  H   H2        1.0  0.1866599999999999  0.36198  0.7812199999999998  1.0000
  H   H3        1.0  0.0836199999999999  0.10514999999999992  0.6667499999999997  1.0000
  H   H4        1.0  0.18876999999999985  0.21495999999999993  0.7763199999999998  1.0000
  H   H5        1.0  0.07141999999999989  0.1577099999999999  0.8369699999999998  1.0000
  H   H6        1.0  0.9673399999999999  0.049889999999999914  0.7264199999999997  1.0000
  H   H7        1.0  0.53519  0.77323  0.84128  1.0000
  H   H8        1.0  0.31476  0.5947099999999998  0.6761199999999999  1.0000
  H   H9        1.0  0.4185200000000001  0.58383  0.52267  1.0000
  H   H10       1.0  0.31315  0.58806  0.52745  1.0000
  H   H11       1.0  0.4295300000000002  0.76566  0.58589  1.0000
  H   H12       1.0  0.53432  0.75925  0.5828299999999998  1.0000
  H   H13       1.0  0.5698600000000004  0.3422800000000001  0.8068  1.0000
  H   H14       1.0  0.5806899999999999  0.17539999999999994  0.8615699999999998  1.0000
  H   H15       1.0  0.44005  0.023249999999999996  0.60521  1.0000
  H   H16       1.0  0.43997  0.027550000000000012  0.71499  1.0000
  H   H17       1.0  0.32234999999999997  0.08781999999999998  0.65828  1.0000
  H   H18       1.0  0.32478  0.08398000000000003  0.55004  1.0000
  H   H19       1.0  0.9294600000000002  0.23529  0.27189  1.0000
  H   H20       1.0  0.9214400000000003  0.28203  0.09575999999999998  1.0000
  H   H21       1.0  0.06284000000000001  0.16643000000000002  0.08434999999999997  1.0000
  H   H22       1.0  0.06311999999999998  0.27648  0.08934999999999997  1.0000
  H   H23       1.0  0.18041999999999997  0.33527  0.26697  1.0000
  H   H24       1.0  0.17577000000000004  0.22361  0.25966  1.0000
  H   H25       1.0  0.06985999999999988  0.30680999999999997  0.8422799999999998  1.0000
  H   H26       1.0  0.0806899999999999  0.36157999999999996  0.6753899999999998  1.0000
  H   H27       1.0  0.94005  0.10521000000000004  0.52324  1.0000
  H   H28       1.0  0.9399699999999999  0.21499  0.52755  1.0000
  H   H29       1.0  0.8223500000000001  0.15827999999999998  0.5878199999999999  1.0000
  H   H30       1.0  0.82477  0.050039999999999994  0.58398  1.0000
  H   H31       1.0  0.42946000000000006  0.7719  0.7352899999999999  1.0000
  H   H32       1.0  0.42144  0.59576  0.78202  1.0000
  H   H33       1.0  0.56284  0.58435  0.66643  1.0000
  H   H34       1.0  0.5631299999999999  0.5893499999999999  0.7764799999999998  1.0000
  H   H35       1.0  0.6804299999999999  0.76698  0.8352699999999997  1.0000
  H   H36       1.0  0.6757800000000002  0.7596699999999998  0.7236099999999999  1.0000
  H   H37       1.0  0.035179999999999954  0.34128  0.27322  1.0000
  H   H38       1.0  0.8147600000000003  0.17612000000000003  0.0947  1.0000
  H   H39       1.0  0.91852  0.022669999999999996  0.08382999999999997  1.0000
  H   H40       1.0  0.8131500000000003  0.027449999999999992  0.08804999999999998  1.0000
  H   H41       1.0  0.92953  0.08589000000000001  0.26564999999999994  1.0000
  H   H42       1.0  0.034310000000000014  0.08283  0.25925  1.0000
  H   H43       1.0  0.46445  0.23678999999999994  0.80639  1.0000
  H   H44       1.0  0.68666  0.2812199999999999  0.8619699999999998  1.0000
  H   H45       1.0  0.5836200000000002  0.16676  0.60514  1.0000
  H   H46       1.0  0.6887700000000001  0.2763199999999999  0.7149599999999998  1.0000
  H   H47       1.0  0.5714199999999999  0.33696999999999994  0.6576999999999998  1.0000
  H   H48       1.0  0.4673400000000001  0.22641999999999995  0.5498799999999999  1.0000
  H   H49       1.0  0.93015  0.6932  0.15771999999999997  1.0000
  H   H50       1.0  0.9193200000000001  0.63843  0.32461  1.0000
  H   H51       1.0  0.05995000000000005  0.8948000000000003  0.4767599999999999  1.0000
  H   H52       1.0  0.06004  0.78501  0.47245  1.0000
  H   H53       1.0  0.17766000000000004  0.84172  0.41218  1.0000
  H   H54       1.0  0.1752300000000001  0.9499600000000002  0.4160199999999999  1.0000
  H   H55       1.0  0.57054  0.22810999999999998  0.26470999999999995  1.0000
  H   H56       1.0  0.57856  0.40424  0.21798  1.0000
  H   H57       1.0  0.43717  0.41565  0.33357  1.0000
  H   H58       1.0  0.43688  0.41066  0.22352  1.0000
  H   H59       1.0  0.31958  0.23303000000000004  0.16473  1.0000
  H   H60       1.0  0.32422999999999996  0.24033999999999994  0.2763899999999999  1.0000
  H   H61       1.0  0.96482  0.65873  0.7267799999999998  1.0000
  H   H62       1.0  0.18523999999999993  0.82389  0.9052999999999998  1.0000
  H   H63       1.0  0.08148999999999997  0.97733  0.91617  1.0000
  H   H64       1.0  0.18686000000000014  0.9725500000000001  0.9119499999999998  1.0000
  H   H65       1.0  0.07047999999999975  0.9141099999999998  0.7343499999999997  1.0000
  H   H66       1.0  0.9656900000000003  0.9171800000000002  0.74076  1.0000
  H   H67       1.0  0.53555  0.76321  0.19360999999999998  1.0000
  H   H68       1.0  0.31333999999999995  0.71878  0.13802999999999999  1.0000
  H   H69       1.0  0.4163899999999999  0.83325  0.39485999999999993  1.0000
  H   H70       1.0  0.31124000000000007  0.72369  0.28504  1.0000
  H   H71       1.0  0.42859000000000014  0.66303  0.34229999999999994  1.0000
  H   H72       1.0  0.5326700000000002  0.77359  0.45012  1.0000
  H   H73       1.0  0.035549999999999936  0.69361  0.26320999999999994  1.0000
  H   H74       1.0  0.81335  0.63803  0.21878999999999996  1.0000
  H   H75       1.0  0.9163900000000001  0.8948600000000001  0.33325  1.0000
  H   H76       1.0  0.81124  0.7850400000000001  0.22368999999999994  1.0000
  H   H77       1.0  0.92859  0.84229  0.16302999999999998  1.0000
  H   H78       1.0  0.03265999999999995  0.95012  0.27358  1.0000
  H   H79       1.0  0.46481999999999996  0.22678  0.15872999999999998  1.0000
  H   H80       1.0  0.6852400000000001  0.40529999999999994  0.3238899999999999  1.0000
  H   H81       1.0  0.58149  0.41617  0.47733  1.0000
  H   H82       1.0  0.68685  0.41195  0.47254999999999997  1.0000
  H   H83       1.0  0.5704699999999999  0.23434999999999997  0.41410999999999987  1.0000
  H   H84       1.0  0.46569  0.24076000000000003  0.41717  1.0000
  H   H85       1.0  0.4301500000000002  0.6577200000000002  0.19319999999999996  1.0000
  H   H86       1.0  0.41931  0.82461  0.13843  1.0000
  H   H87       1.0  0.5599500000000002  0.97676  0.3947899999999999  1.0000
  H   H88       1.0  0.5600399999999999  0.9724499999999999  0.28500999999999993  1.0000
  H   H89       1.0  0.67766  0.9121800000000002  0.34172999999999987  1.0000
  H   H90       1.0  0.67523  0.91602  0.44997  1.0000
  H   H91       1.0  0.07054999999999995  0.76472  0.7281099999999998  1.0000
  H   H92       1.0  0.07855999999999996  0.71798  0.9042399999999998  1.0000
  H   H93       1.0  0.9371700000000002  0.8335699999999999  0.9156499999999999  1.0000
  H   H94       1.0  0.9368799999999998  0.7235199999999999  0.9106599999999998  1.0000
  H   H95       1.0  0.8195800000000001  0.6647400000000001  0.73303  1.0000
  H   H96       1.0  0.82423  0.77639  0.74034  1.0000
  C   C1        1.0  0.09879000000000002  0.16824  0.71548  1.0000
  C   C2        1.0  0.022289999999999928  0.13174999999999995  0.7550399999999999  1.0000
  C   C3        1.0  0.40325  0.6173399999999999  0.5705199999999999  1.0000
  C   C4        1.0  0.47906  0.7331399999999999  0.6096199999999998  1.0000
  C   C5        1.0  0.45417  0.07093000000000002  0.66828  1.0000
  C   C6        1.0  0.37804999999999994  0.11084999999999999  0.6318699999999999  1.0000
  C   C7        1.0  0.04832  0.21507  0.11787999999999998  1.0000
  C   C8        1.0  0.12358999999999999  0.25344  0.23366999999999993  1.0000
  C   C9        1.0  0.9541700000000002  0.16828000000000007  0.57092  1.0000
  C   C10       1.0  0.8780499999999999  0.13186999999999996  0.6108499999999999  1.0000
  C   C11       1.0  0.5483200000000001  0.61789  0.71507  1.0000
  C   C12       1.0  0.62359  0.73368  0.75344  1.0000
  C   C13       1.0  0.90324  0.07052  0.11733999999999997  1.0000
  C   C14       1.0  0.9790600000000002  0.10962000000000001  0.23313  1.0000
  C   C15       1.0  0.5987899999999999  0.21547999999999992  0.6682399999999997  1.0000
  C   C16       1.0  0.52229  0.25504  0.63174  1.0000
  C   C17       1.0  0.020270000000000062  0.28013  0.76037  1.0000
  C   C18       1.0  0.0966199999999999  0.3165799999999999  0.7204999999999999  1.0000
  C   C19       1.0  0.48007000000000005  0.74042  0.75938  1.0000
  C   C20       1.0  0.40497000000000005  0.62443  0.72072  1.0000
  C   C21       1.0  0.5202700000000002  0.26037  0.78012  1.0000
  C   C22       1.0  0.5966199999999998  0.22049999999999995  0.8165799999999998  1.0000
  C   C23       1.0  0.9800700000000001  0.25938  0.24040999999999996  1.0000
  C   C24       1.0  0.90497  0.22072000000000006  0.12443  1.0000
  C   C25       1.0  0.045840000000000124  0.8317200000000001  0.4290799999999999  1.0000
  C   C26       1.0  0.12196000000000001  0.86813  0.3891599999999999  1.0000
  C   C27       1.0  0.45168  0.38212  0.28493  1.0000
  C   C28       1.0  0.37641  0.26633  0.24656  1.0000
  C   C29       1.0  0.09675999999999994  0.92948  0.8826599999999999  1.0000
  C   C30       1.0  0.020950000000000017  0.8903800000000001  0.7668699999999999  1.0000
  C   C31       1.0  0.4012200000000001  0.7845200000000001  0.33176  1.0000
  C   C32       1.0  0.47771  0.74496  0.36826  1.0000
  C   C33       1.0  0.9012200000000002  0.83176  0.28452  1.0000
  C   C34       1.0  0.9777100000000003  0.86826  0.24495999999999996  1.0000
  C   C35       1.0  0.5967600000000001  0.38266  0.42948  1.0000
  C   C36       1.0  0.52095  0.26687  0.39038  1.0000
  C   C37       1.0  0.5458400000000001  0.9290800000000002  0.33171999999999996  1.0000
  C   C38       1.0  0.6219600000000001  0.88916  0.3681299999999999  1.0000
  C   C39       1.0  0.95168  0.78493  0.88212  1.0000
  C   C40       1.0  0.87642  0.74656  0.7663299999999997  1.0000
  C   C41       1.0  0.97973  0.7198800000000002  0.23962999999999995  1.0000
  C   C42       1.0  0.90338  0.68342  0.2795  1.0000
  C   C43       1.0  0.5199399999999998  0.25959  0.24061999999999995  1.0000
  C   C44       1.0  0.5950400000000002  0.3755700000000001  0.27928  1.0000
  C   C45       1.0  0.019939999999999992  0.74062  0.75959  1.0000
  C   C46       1.0  0.09503999999999996  0.77928  0.8755699999999997  1.0000
  C   C47       1.0  0.4797299999999998  0.7396299999999999  0.21987999999999994  1.0000
  C   C48       1.0  0.4033800000000001  0.7795000000000003  0.18342  1.0000
  I   I1        1.0  0.88914  0.2792599999999999  0.8911199999999998  1.0000
  I   I2        1.0  0.61231  0.002899999999999995  0.89154  1.0000
  I   I3        1.0  0.38914  0.39112  0.77926  1.0000
  I   I4        1.0  0.11231000000000002  0.39154  0.5029  1.0000
  I   I5        1.0  0.8789000000000001  0.98677  0.8653299999999999  1.0000
  I   I6        1.0  0.6224999999999998  0.9870999999999999  0.6084899999999998  1.0000
  I   I7        1.0  0.12250000000000004  0.10849000000000004  0.4871  1.0000
  I   I8        1.0  0.37889999999999996  0.36533  0.48676999999999987  1.0000
  I   I9        1.0  0.11086999999999998  0.72074  0.10887999999999998  1.0000
  I   I10       1.0  0.38769  0.9971  0.10846  1.0000
  I   I11       1.0  0.8877000000000003  0.60846  0.49710999999999994  1.0000
  I   I12       1.0  0.61087  0.60888  0.22074  1.0000
  I   I13       1.0  0.3775100000000002  0.01290000000000002  0.39151  1.0000
  I   I14       1.0  0.12111  0.013240000000000004  0.13468  1.0000
  I   I15       1.0  0.8775100000000002  0.8915100000000002  0.5128999999999999  1.0000
  I   I16       1.0  0.62111  0.63468  0.51324  1.0000
  N   N1        1.0  0.9474400000000001  0.16865  0.72236  1.0000
  N   N2        1.0  0.07540999999999988  0.22976999999999995  0.6555699999999998  1.0000
  N   N3        1.0  0.5535299999999999  0.77541  0.7211099999999998  1.0000
  N   N4        1.0  0.4268600000000001  0.5809900000000001  0.65552  1.0000
  N   N5        1.0  0.44744  0.22237  0.66864  1.0000
  N   N6        1.0  0.57541  0.15557999999999994  0.7297599999999999  1.0000
  N   N7        1.0  0.05353000000000003  0.22111000000000003  0.27541  1.0000
  N   N8        1.0  0.9268600000000002  0.15552  0.08097999999999997  1.0000
  N   N9        1.0  0.05256000000000004  0.83136  0.27764  1.0000
  N   N10       1.0  0.9245999999999999  0.77024  0.34442999999999996  1.0000
  N   N11       1.0  0.4464699999999999  0.22459  0.2788999999999999  1.0000
  N   N12       1.0  0.5731499999999999  0.4190199999999999  0.3444899999999999  1.0000
  N   N13       1.0  0.9464800000000002  0.7789  0.7245899999999998  1.0000
  N   N14       1.0  0.07314999999999981  0.84449  0.9190199999999997  1.0000
  N   N15       1.0  0.55257  0.77764  0.3313599999999999  1.0000
  N   N16       1.0  0.4246  0.84443  0.27024  1.0000
