data_image0
_chemical_formula_structural       Zn4H66C96N14O12
_chemical_formula_sum              "Zn4 H66 C96 N14 O12"
_cell_length_a       8.04053
_cell_length_b       14.42836
_cell_length_c       20.76408
_cell_angle_alpha    83.12157
_cell_angle_beta     81.60754999999999
_cell_angle_gamma    83.53454

_space_group_name_H-M_alt    "P 1"
_space_group_IT_number       1

loop_
  _space_group_symop_operation_xyz
  'x, y, z'

loop_
  _atom_site_type_symbol
  _atom_site_label
  _atom_site_symmetry_multiplicity
  _atom_site_fract_x
  _atom_site_fract_y
  _atom_site_fract_z
  _atom_site_occupancy
  Zn  Zn1       1.0  0.8954699999999999  0.34823999999999994  0.25816000000000006  1.0000
  Zn  Zn2       1.0  0.79578  0.39164  0.08558  1.0000
  Zn  Zn3       1.0  0.10451999999999997  0.65176  0.74184  1.0000
  Zn  Zn4       1.0  0.20420999999999978  0.60836  0.91442  1.0000
  H   H1        1.0  0.7403999999999997  0.16189  0.49881000000000003  1.0000
  H   H2        1.0  0.97764  0.9599300000000002  0.12951000000000001  1.0000
  H   H3        1.0  0.50978  0.41608  0.21791  1.0000
  H   H4        1.0  0.40163  0.35951  0.66028  1.0000
  H   H5        1.0  0.38308  0.25497  0.28855000000000003  1.0000
  H   H6        1.0  0.9942300000000001  0.92303  0.00838  1.0000
  H   H7        1.0  0.8954799999999999  0.74292  0.31192000000000003  1.0000
  H   H8        1.0  0.6276299999999996  0.9194099999999998  0.8449500000000001  1.0000
  H   H9        1.0  0.041020000000000015  0.84643  0.32779  1.0000
  H   H10       1.0  0.61547  0.69414  0.0849  1.0000
  H   H11       1.0  0.7198099999999997  0.18042000000000002  0.12157  1.0000
  H   H12       1.0  0.65793  0.91263  0.33795000000000003  1.0000
  H   H13       1.0  0.007769999999999992  0.33171  0.91904  1.0000
  H   H14       1.0  0.57023  0.14013  0.03394  1.0000
  H   H15       1.0  0.06437999999999999  0.0062800000000000035  0.35494  1.0000
  H   H16       1.0  0.24475  0.9567  0.97399  1.0000
  H   H17       1.0  0.6847099999999999  0.08213000000000001  0.30653  1.0000
  H   H18       1.0  0.30160999999999993  0.89774  0.3839  1.0000
  H   H19       1.0  0.15380999999999995  0.41272  0.714  1.0000
  H   H20       1.0  0.7979600000000001  0.57289  0.97406  1.0000
  H   H21       1.0  0.34205999999999986  0.08736999999999999  0.6620600000000001  1.0000
  H   H22       1.0  0.28018000000000004  0.81957  0.87844  1.0000
  H   H23       1.0  0.02235999999999997  0.04006999999999996  0.8704900000000002  1.0000
  H   H24       1.0  0.99223  0.66829  0.08096  1.0000
  H   H25       1.0  0.5858299999999996  0.5610900000000001  0.5599200000000001  1.0000
  H   H26       1.0  0.4902099999999999  0.58392  0.7821  1.0000
  H   H27       1.0  0.41416  0.43891  0.44008  1.0000
  H   H28       1.0  0.65581  0.79616  0.16731  1.0000
  H   H29       1.0  0.007109999999999998  0.11726000000000002  0.1574  1.0000
  H   H30       1.0  0.05342999999999997  0.82178  0.10603  1.0000
  H   H31       1.0  0.34418  0.20384000000000005  0.8327  1.0000
  H   H32       1.0  0.32481  0.2565  0.05495  1.0000
  H   H33       1.0  0.9928800000000001  0.88274  0.8426  1.0000
  H   H34       1.0  0.25958999999999993  0.83811  0.50119  1.0000
  H   H35       1.0  0.42508  0.52499  0.68679  1.0000
  H   H36       1.0  0.7396699999999996  0.32754  0.6984200000000002  1.0000
  H   H37       1.0  0.31529  0.9178600000000001  0.69347  1.0000
  H   H38       1.0  0.85981  0.25082  0.40858000000000005  1.0000
  H   H39       1.0  0.14018000000000005  0.74918  0.59143  1.0000
  H   H40       1.0  0.95897  0.15357  0.67221  1.0000
  H   H41       1.0  0.10452  0.25708  0.68808  1.0000
  H   H42       1.0  0.60829  0.3093600000000001  0.98335  1.0000
  H   H43       1.0  0.69838  0.10226000000000002  0.6161  1.0000
  H   H44       1.0  0.3917  0.69064  0.01665  1.0000
  H   H45       1.0  0.34186999999999995  0.9121600000000001  0.18721  1.0000
  H   H46       1.0  0.38453000000000004  0.3058599999999999  0.9151100000000001  1.0000
  H   H47       1.0  0.005759999999999922  0.07695999999999999  0.9916200000000001  1.0000
  H   H48       1.0  0.5524399999999999  0.57849  0.45591  1.0000
  H   H49       1.0  0.8461899999999996  0.58728  0.286  1.0000
  H   H50       1.0  0.75524  0.0433  0.02601  1.0000
  H   H51       1.0  0.9356100000000002  0.99372  0.64506  1.0000
  H   H52       1.0  0.70291  0.55398  0.85424  1.0000
  H   H53       1.0  0.21819999999999998  0.57126  0.21904000000000004  1.0000
  H   H54       1.0  0.44755  0.42151  0.54409  1.0000
  H   H55       1.0  0.20202999999999996  0.42711  0.025940000000000005  1.0000
  H   H56       1.0  0.4297699999999997  0.85987  0.96607  1.0000
  H   H57       1.0  0.61691  0.74503  0.71145  1.0000
  H   H58       1.0  0.37237  0.08059  0.15505  1.0000
  H   H59       1.0  0.5983599999999998  0.64049  0.33973000000000003  1.0000
  H   H60       1.0  0.94656  0.17821000000000004  0.8939800000000002  1.0000
  H   H61       1.0  0.26032  0.67246  0.30158  1.0000
  H   H62       1.0  0.6581199999999999  0.08784  0.81279  1.0000
  H   H63       1.0  0.7817899999999999  0.42874  0.7809700000000002  1.0000
  H   H64       1.0  0.29708  0.44602  0.14577  1.0000
  H   H65       1.0  0.6751799999999998  0.7435  0.9450500000000001  1.0000
  H   H66       1.0  0.57491  0.475  0.31321  1.0000
  C   C1        1.0  0.07977999999999999  0.27315  0.73867  1.0000
  C   C2        1.0  0.59794  0.29611000000000004  0.5131  1.0000
  C   C3        1.0  0.03389000000000002  0.07334  0.2586  1.0000
  C   C4        1.0  0.5020499999999999  0.35124  0.55903  1.0000
  C   C5        1.0  0.41216  0.6271  0.14629  1.0000
  C   C6        1.0  0.89067  0.6397000000000002  0.24715000000000006  1.0000
  C   C7        1.0  0.9552199999999998  0.005300000000000004  0.69413  1.0000
  C   C8        1.0  0.9982099999999999  0.96861  0.17899000000000004  1.0000
  C   C9        1.0  0.6906100000000002  0.8090399999999998  0.9635600000000001  1.0000
  C   C10       1.0  0.40838  0.05013999999999999  0.70086  1.0000
  C   C11       1.0  0.5275700000000001  0.73514  0.75551  1.0000
  C   C12       1.0  0.02350999999999996  0.20305999999999996  0.7886900000000001  1.0000
  C   C13       1.0  0.6817099999999997  0.38224  0.79147  1.0000
  C   C14       1.0  0.1093299999999999  0.3603  0.7528600000000001  1.0000
  C   C15       1.0  0.9871299999999997  0.94235  0.8054500000000001  1.0000
  C   C16       1.0  0.4696899999999999  0.59288  0.5845200000000002  1.0000
  C   C17       1.0  0.26621000000000006  0.021969999999999965  0.9913700000000001  1.0000
  C   C18       1.0  0.97057  0.09441999999999999  0.7095800000000001  1.0000
  C   C19       1.0  0.5303  0.40712  0.41548  1.0000
  C   C20       1.0  0.6954799999999998  0.5071799999999997  0.8989700000000002  1.0000
  C   C21       1.0  0.9965200000000001  0.2278  0.85412  1.0000
  C   C22       1.0  0.54741  0.22696  0.64656  1.0000
  C   C23       1.0  0.005480000000000002  0.75998  0.9602  1.0000
  C   C24       1.0  0.49502  0.90125  0.26578000000000007  1.0000
  C   C25       1.0  0.0017900000000000008  0.03139  0.82102  1.0000
  C   C26       1.0  0.5652799999999999  0.95638  0.8049300000000001  1.0000
  C   C27       1.0  0.53367  0.34325  0.20868000000000003  1.0000
  C   C28       1.0  0.5590100000000001  0.7476  0.17856  1.0000
  C   C29       1.0  0.5267  0.09158  0.22996  1.0000
  C   C30       1.0  0.44690999999999986  0.12422000000000001  0.025320000000000002  1.0000
  C   C31       1.0  0.92021  0.72685  0.26133000000000006  1.0000
  C   C32       1.0  0.7393399999999999  0.51633  0.95912  1.0000
  C   C33       1.0  0.30452  0.49281  0.10103  1.0000
  C   C34       1.0  0.3934  0.95494  0.7182600000000001  1.0000
  C   C35       1.0  0.9712099999999999  0.68545  0.13128  1.0000
  C   C36       1.0  0.97648  0.79694  0.21132  1.0000
  C   C37       1.0  0.04478  0.9947  0.30588  1.0000
  C   C38       1.0  0.30939  0.19096  0.03644  1.0000
  C   C39       1.0  0.029419999999999964  0.9055800000000002  0.29042  1.0000
  C   C40       1.0  0.44098999999999994  0.25239  0.82145  1.0000
  C   C41       1.0  0.5817799999999999  0.05136999999999999  0.7869200000000001  1.0000
  C   C42       1.0  0.23979999999999982  0.6935  0.5991300000000002  1.0000
  C   C43       1.0  0.33310999999999996  0.7942800000000001  0.46605  1.0000
  C   C44       1.0  0.47636000000000006  0.31683000000000006  0.6247300000000001  1.0000
  C   C45       1.0  0.31828999999999985  0.61776  0.20854000000000003  1.0000
  C   C46       1.0  0.55309  0.8757699999999999  0.9746900000000001  1.0000
  C   C47       1.0  0.028789999999999993  0.31455  0.8687300000000001  1.0000
  C   C48       1.0  0.58783  0.3729  0.85371  1.0000
  C   C49       1.0  0.0021799999999999827  0.88939  0.22673  1.0000
  C   C50       1.0  0.4182199999999999  0.94862  0.21309000000000003  1.0000
  C   C51       1.0  0.4525799999999998  0.77304  0.35345  1.0000
  C   C52       1.0  0.8521899999999996  0.82589  0.9749400000000001  1.0000
  C   C53       1.0  0.5714500000000001  0.96334  0.99598  1.0000
  C   C54       1.0  0.9688999999999997  0.83148  0.7226900000000002  1.0000
  C   C55       1.0  0.0034699999999999805  0.7722000000000001  0.14588  1.0000
  C   C56       1.0  0.63804  0.3802099999999999  0.96675  1.0000
  C   C57       1.0  0.64566  0.22305  0.15695000000000003  1.0000
  C   C58       1.0  0.26066000000000006  0.48367  0.04088000000000001  1.0000
  C   C59       1.0  0.43471000000000004  0.043620000000000006  0.19507  1.0000
  C   C60       1.0  0.9945099999999997  0.24002000000000004  0.03981  1.0000
  C   C61       1.0  0.42855  0.03666  0.00402  1.0000
  C   C62       1.0  0.99781  0.11060999999999999  0.7732800000000001  1.0000
  C   C63       1.0  0.35433999999999993  0.77695  0.84306  1.0000
  C   C64       1.0  0.4732899999999999  0.90842  0.77005  1.0000
  C   C65       1.0  0.86987  0.91093  0.9985500000000002  1.0000
  C   C66       1.0  0.34109999999999985  0.6758300000000002  0.2548  1.0000
  C   C67       1.0  0.45898999999999984  0.74253  0.23993  1.0000
  C   C68       1.0  0.73379  0.97802  0.008630000000000002  1.0000
  C   C69       1.0  0.76019  0.30649  0.40087  1.0000
  C   C70       1.0  0.50497  0.09874999999999999  0.7342300000000002  1.0000
  C   C71       1.0  0.39099  0.5764400000000001  0.64734  1.0000
  C   C72       1.0  0.6066  0.04506  0.28175000000000006  1.0000
  C   C73       1.0  0.8663899999999999  0.52787  0.16799  1.0000
  C   C74       1.0  0.36196  0.61979  0.03326  1.0000
  C   C75       1.0  0.40204999999999996  0.70389  0.48690000000000005  1.0000
  C   C76       1.0  0.541  0.25746  0.7600700000000001  1.0000
  C   C77       1.0  0.46445000000000003  0.30975  0.86805  1.0000
  C   C78       1.0  0.13359999999999997  0.47213  0.83201  1.0000
  C   C79       1.0  0.46632999999999997  0.6567500000000001  0.79132  1.0000
  C   C80       1.0  0.03108999999999998  0.16852  0.27731000000000006  1.0000
  C   C81       1.0  0.1478  0.1741  0.02507  1.0000
  C   C82       1.0  0.52363  0.68317  0.37528000000000006  1.0000
  C   C83       1.0  0.53554  0.69024  0.13195  1.0000
  C   C84       1.0  0.13011999999999999  0.08907  0.00145  1.0000
  C   C85       1.0  0.49793999999999994  0.64875  0.44097  1.0000
  C   C86       1.0  0.66689  0.20571999999999996  0.5339600000000001  1.0000
  C   C87       1.0  0.012860000000000009  0.05765  0.19455  1.0000
  C   C88       1.0  0.9115000000000001  0.61692  0.18154  1.0000
  C   C89       1.0  0.35729999999999995  0.82817  0.4000600000000001  1.0000
  C   C90       1.0  0.65889  0.32416000000000006  0.7452  1.0000
  C   C91       1.0  0.08848999999999999  0.38307  0.81846  1.0000
  C   C92       1.0  0.64269  0.17183  0.59995  1.0000
  C   C93       1.0  0.9660999999999997  0.9266600000000002  0.7414  1.0000
  C   C94       1.0  0.4724299999999999  0.26486  0.2445  1.0000
  C   C95       1.0  0.59161  0.94986  0.29914  1.0000
  C   C96       1.0  0.609  0.42356  0.35267  1.0000
  N   N1        1.0  0.47463999999999995  0.80512  0.28620000000000007  1.0000
  N   N2        1.0  0.3703699999999999  0.57912  0.09556  1.0000
  N   N3        1.0  0.29703  0.56345  0.9991600000000002  1.0000
  N   N4        1.0  0.70297  0.43655  0.00084  1.0000
  N   N5        1.0  0.24875000000000005  0.6396  0.65585  1.0000
  N   N6        1.0  0.62962  0.4208800000000001  0.9044500000000001  1.0000
  N   N7        1.0  0.35835999999999985  0.68361  0.8459700000000001  1.0000
  N   N8        1.0  0.5450199999999997  0.18941  0.21093  1.0000
  N   N9        1.0  0.6416299999999999  0.31639  0.15403000000000003  1.0000
  N   N10       1.0  0.52535  0.19488000000000003  0.7138  1.0000
  N   N11       1.0  0.37262  0.6669500000000002  0.5539700000000001  1.0000
  N   N12       1.0  0.75124  0.3604  0.34416  1.0000
  N   N13       1.0  0.4549799999999999  0.81059  0.7890700000000002  1.0000
  N   N14       1.0  0.62737  0.33305  0.44603000000000004  1.0000
  O   O1        1.0  0.82411  0.4675  0.21900000000000003  1.0000
  O   O2        1.0  0.8597899999999997  0.51061  0.1091  1.0000
  O   O3        1.0  0.14844999999999986  0.78217  0.96763  1.0000
  O   O4        1.0  0.95051  0.81459  0.6663  1.0000
  O   O5        1.0  0.1402  0.48939000000000005  0.89091  1.0000
  O   O6        1.0  0.17587999999999993  0.5325  0.78101  1.0000
  O   O7        1.0  0.9833299999999999  0.68178  0.9384300000000001  1.0000
  O   O8        1.0  0.01666999999999999  0.31822  0.06157  1.0000
  O   O9        1.0  0.04947999999999999  0.18540000000000004  0.3337  1.0000
  O   O10       1.0  0.85154  0.21783  0.03238  1.0000
  O   O11       1.0  0.99978  0.23637  0.22950000000000004  1.0000
  O   O12       1.0  0.00021999999999993135  0.76363  0.7705000000000001  1.0000
