data_image0
_chemical_formula_structural       Eu3H45C99O18
_chemical_formula_sum              "Eu3 H45 C99 O18"
_cell_length_a       12.55402
_cell_length_b       21.53217
_cell_length_c       21.532210000000003
_cell_angle_alpha    115.72345
_cell_angle_beta     101.89395
_cell_angle_gamma    101.89397

_symmetry_space_group_name_H-M    'P 1'
_symmetry_Int_Tables_number       1

loop_
  _symmetry_equiv_pos_as_xyz
  'x,y,z'

loop_
  _atom_site_type_symbol
  _atom_site_label
  _atom_site_symmetry_multiplicity
  _atom_site_fract_x
  _atom_site_fract_y
  _atom_site_fract_z
  _atom_site_occupancy
  Eu  Eu1       1.0  0.32285  0.64361  0.32256  1.0000
  Eu  Eu2       1.0  9.99999999999969e-06  0.6796499999999999  0.32034  1.0000
  Eu  Eu3       1.0  0.67716  0.6774399999999999  0.35639  1.0000
  H   H1        1.0  0.6745100000000002  0.6063999999999999  0.52915  1.0000
  H   H2        1.0  0.67561  0.538  0.59808  1.0000
  H   H3        1.0  0.4382600000000001  0.24831  0.54772  1.0000
  H   H4        1.0  0.2666  0.0064399999999999805  0.451  1.0000
  H   H5        1.0  0.20310000000000009  0.86959  0.38205  1.0000
  H   H6        1.0  0.43907999999999997  0.8719099999999999  0.5578899999999999  1.0000
  H   H7        1.0  0.49265  0.008009999999999991  0.63315  1.0000
  H   H8        1.0  0.14299  0.47254  0.07928  1.0000
  H   H9        1.0  0.07505999999999995  0.4044499999999999  0.94258  1.0000
  H   H10       1.0  0.89008  0.45281  0.70046  1.0000
  H   H11       1.0  0.81623  0.54723  0.55443  1.0000
  H   H12       1.0  0.82018  0.61645  0.48595  1.0000
  H   H13       1.0  0.88016  0.44511  0.3149  1.0000
  H   H14       1.0  0.85919  0.36923  0.37618  1.0000
  H   H15       1.0  0.06689999999999997  0.92388  0.39485  1.0000
  H   H16       1.0  0.13743999999999995  0.06077999999999998  0.46313999999999994  1.0000
  H   H17       1.0  0.18942999999999993  0.29867999999999995  0.7516599999999999  1.0000
  H   H18       1.0  0.26011  0.44364  0.99297  1.0000
  H   H19       1.0  0.33303  0.5122  0.12999  1.0000
  H   H20       1.0  0.56736  0.6875  0.13054  1.0000
  H   H21       1.0  0.4851  0.62547  0.99382  1.0000
  H   H22       1.0  0.8570200000000002  0.92072  0.52746  1.0000
  H   H23       1.0  0.9249600000000001  0.05741999999999999  0.59555  1.0000
  H   H24       1.0  0.10994  0.29953  0.54718  1.0000
  H   H25       1.0  0.18377999999999997  0.44556999999999997  0.45276999999999995  1.0000
  H   H26       1.0  0.17984000000000003  0.51404  0.38355  1.0000
  H   H27       1.0  0.11985  0.68509  0.55488  1.0000
  H   H28       1.0  0.14082  0.62381  0.63077  1.0000
  H   H29       1.0  0.93311  0.60515  0.07611  1.0000
  H   H30       1.0  0.86257  0.5368600000000001  0.93922  1.0000
  H   H31       1.0  0.81058  0.24833999999999995  0.7013099999999999  1.0000
  H   H32       1.0  0.7399  0.0070299999999999955  0.55635  1.0000
  H   H33       1.0  0.66698  0.8700099999999997  0.4878  1.0000
  H   H34       1.0  0.43265  0.86945  0.3125  1.0000
  H   H35       1.0  0.51491  0.006169999999999999  0.37453  1.0000
  H   H36       1.0  0.3255  0.47084  0.3936  1.0000
  H   H37       1.0  0.3244  0.40190999999999993  0.462  1.0000
  H   H38       1.0  0.56175  0.45228  0.75169  1.0000
  H   H39       1.0  0.73341  0.54899  0.99356  1.0000
  H   H40       1.0  0.79691  0.61795  0.1304  1.0000
  H   H41       1.0  0.56093  0.4421  0.12809  1.0000
  H   H42       1.0  0.50736  0.3668399999999999  0.99199  1.0000
  H   H43       1.0  0.50001  0.24757  0.75243  1.0000
  H   H44       1.0  0.74845  0.24807999999999997  0.49607999999999997  1.0000
  H   H45       1.0  0.25157  0.50392  0.75192  1.0000
  C   C1        1.0  0.59839  0.56175  0.51531  1.0000
  C   C2        1.0  0.5987399999999998  0.52394  0.55376  1.0000
  C   C3        1.0  0.46548  0.27706  0.60722  1.0000
  C   C4        1.0  0.46778000000000003  0.23809999999999998  0.64578  1.0000
  C   C5        1.0  0.43846  0.16064999999999993  0.60986  1.0000
  C   C6        1.0  0.41651  0.09465999999999998  0.58376  1.0000
  C   C7        1.0  0.38527  0.017319999999999988  0.54618  1.0000
  C   C8        1.0  0.30301999999999996  0.9770499999999998  0.47475999999999996  1.0000
  C   C9        1.0  0.26879999999999993  0.9014799999999998  0.43606  1.0000
  C   C10       1.0  0.31883000000000006  0.86404  0.46612  1.0000
  C   C11       1.0  0.40109000000000006  0.90303  0.53682  1.0000
  C   C12       1.0  0.43155999999999994  0.9786799999999998  0.57763  1.0000
  C   C13       1.0  0.28633  0.78303  0.42017  1.0000
  C   C14       1.0  0.08131999999999996  0.4859199999999999  0.04796999999999999  1.0000
  C   C15       1.0  0.043049999999999956  0.44789  0.97188  1.0000
  C   C16       1.0  0.85802  0.3932299999999999  0.67041  1.0000
  C   C17       1.0  0.8223  0.3547299999999999  0.5931599999999999  1.0000
  C   C18       1.0  0.8291600000000001  0.39093999999999995  0.55178  1.0000
  C   C19       1.0  0.83344  0.41694  0.51135  1.0000
  C   C20       1.0  0.83929  0.45435999999999993  0.47133  1.0000
  C   C21       1.0  0.82821  0.52464  0.50159  1.0000
  C   C22       1.0  0.83184  0.5633099999999999  0.46437999999999996  1.0000
  C   C23       1.0  0.8512900000000002  0.53435  0.39731  1.0000
  C   C24       1.0  0.86301  0.46475  0.36653  1.0000
  C   C25       1.0  0.85348  0.4239  0.40170999999999996  1.0000
  C   C26       1.0  0.86391  0.57989  0.36118  1.0000
  C   C27       1.0  0.03633000000000001  0.95378  0.4388  1.0000
  C   C28       1.0  0.07495000000000002  0.02987999999999998  0.47639999999999993  1.0000
  C   C29       1.0  0.18757  0.3293  0.72258  1.0000
  C   C30       1.0  0.22868  0.40664999999999996  0.76175  1.0000
  C   C31       1.0  0.2769299999999999  0.4478799999999998  0.8394899999999998  1.0000
  C   C32       1.0  0.3213800000000001  0.48812  0.90567  1.0000
  C   C33       1.0  0.36763  0.52851  0.98322  1.0000
  C   C34       1.0  0.32569999999999993  0.49734999999999996  0.02302  1.0000
  C   C35       1.0  0.36676  0.5347  0.09873999999999998  1.0000
  C   C36       1.0  0.45403000000000004  0.6030699999999999  0.13712  1.0000
  C   C37       1.0  0.49769  0.63482  0.09865  1.0000
  C   C38       1.0  0.45282  0.5992  0.02264  1.0000
  C   C39       1.0  0.50332  0.63901  0.21855  1.0000
  C   C40       1.0  0.91869  0.9520299999999999  0.5140799999999999  1.0000
  C   C41       1.0  0.95697  0.02810999999999998  0.55211  1.0000
  C   C42       1.0  0.14198999999999995  0.32959  0.60677  1.0000
  C   C43       1.0  0.17770999999999995  0.4068299999999999  0.64527  1.0000
  C   C44       1.0  0.17085  0.44822  0.60905  1.0000
  C   C45       1.0  0.16658  0.48864  0.58306  1.0000
  C   C46       1.0  0.16072  0.52867  0.54564  1.0000
  C   C47       1.0  0.17179999999999998  0.49840999999999996  0.47535999999999995  1.0000
  C   C48       1.0  0.16817  0.53561  0.43669  1.0000
  C   C49       1.0  0.14872  0.60269  0.46565  1.0000
  C   C50       1.0  0.13700000000000004  0.63347  0.53525  1.0000
  C   C51       1.0  0.14652999999999997  0.5982799999999999  0.5761  1.0000
  C   C52       1.0  0.1361  0.6388199999999999  0.42011  1.0000
  C   C53       1.0  0.96368  0.5612  0.04621  1.0000
  C   C54       1.0  0.9250599999999998  0.5235999999999998  0.9701199999999999  1.0000
  C   C55       1.0  0.81244  0.27741  0.6707  1.0000
  C   C56       1.0  0.77133  0.23823999999999995  0.5933499999999999  1.0000
  C   C57       1.0  0.72308  0.16051  0.55211  1.0000
  C   C58       1.0  0.67863  0.09433000000000001  0.51188  1.0000
  C   C59       1.0  0.63238  0.01677000000000002  0.47148  1.0000
  C   C60       1.0  0.6743099999999999  0.97698  0.5026399999999999  1.0000
  C   C61       1.0  0.6332499999999999  0.9012499999999999  0.4653  1.0000
  C   C62       1.0  0.54598  0.86288  0.39693  1.0000
  C   C63       1.0  0.50232  0.90134  0.36517  1.0000
  C   C64       1.0  0.54718  0.9773499999999999  0.40079  1.0000
  C   C65       1.0  0.49668000000000007  0.78144  0.36099  1.0000
  C   C66       1.0  0.40162000000000003  0.48468999999999995  0.4382499999999999  1.0000
  C   C67       1.0  0.40126999999999996  0.4462399999999999  0.4760599999999999  1.0000
  C   C68       1.0  0.5345299999999998  0.39278  0.7229299999999999  1.0000
  C   C69       1.0  0.53223  0.35422  0.7619  1.0000
  C   C70       1.0  0.56155  0.39014  0.83934  1.0000
  C   C71       1.0  0.5835  0.41623999999999994  0.90533  1.0000
  C   C72       1.0  0.61474  0.45380999999999994  0.9826799999999999  1.0000
  C   C73       1.0  0.69699  0.5252399999999999  0.02295  1.0000
  C   C74       1.0  0.73121  0.56394  0.09851  1.0000
  C   C75       1.0  0.68118  0.53387  0.13596  1.0000
  C   C76       1.0  0.59892  0.46318000000000004  0.09697  1.0000
  C   C77       1.0  0.56845  0.42236999999999997  0.02132  1.0000
  C   C78       1.0  0.71368  0.57983  0.21696  1.0000
  C   C79       1.0  0.49999999999999994  0.5839199999999999  0.41607  1.0000
  C   C80       1.0  0.50001  0.54274  0.45726  1.0000
  C   C81       1.0  0.5000099999999998  0.4653399999999999  0.5346499999999998  1.0000
  C   C82       1.0  0.50001  0.42657  0.57343  1.0000
  C   C83       1.0  0.50001  0.39307  0.60692  1.0000
  C   C84       1.0  0.5000099999999998  0.35421  0.64579  1.0000
  C   C85       1.0  0.5000099999999998  0.2773399999999999  0.72266  1.0000
  C   C86       1.0  0.08358000000000002  0.58395  0.16864  1.0000
  C   C87       1.0  0.04216  0.54302  0.08623  1.0000
  C   C88       1.0  0.9641899999999999  0.4660999999999998  0.9314299999999999  1.0000
  C   C89       1.0  0.9254099999999998  0.42721999999999993  0.85378  1.0000
  C   C90       1.0  0.8925599999999998  0.3937099999999999  0.7870999999999998  1.0000
  C   C91       1.0  0.85433  0.35473999999999994  0.70934  1.0000
  C   C92       1.0  0.77805  0.2776  0.55546  1.0000
  C   C93       1.0  0.91643  0.8313599999999999  0.41604  1.0000
  C   C94       1.0  0.95785  0.91376  0.45697  1.0000
  C   C95       1.0  0.035819999999999984  0.06857  0.5339  1.0000
  C   C96       1.0  0.07460000000000004  0.14622  0.57278  1.0000
  C   C97       1.0  0.10746000000000003  0.21289999999999998  0.60629  1.0000
  C   C98       1.0  0.14567999999999992  0.2906599999999998  0.6452599999999998  1.0000
  C   C99       1.0  0.22196  0.44453  0.7224  1.0000
  O   O1        1.0  0.4024400000000001  0.58102  0.38081  1.0000
  O   O2        1.0  0.20065000000000002  0.75014  0.35976  1.0000
  O   O3        1.0  0.3500499999999999  0.7516599999999998  0.43976999999999994  1.0000
  O   O4        1.0  0.02221000000000002  0.6187  0.20009  1.0000
  O   O5        1.0  0.8396899999999999  0.6393899999999998  0.38787  1.0000
  O   O6        1.0  0.90693  0.56075  0.31024  1.0000
  O   O7        1.0  0.82231  0.79821  0.41876  1.0000
  O   O8        1.0  0.45269  0.61144  0.25164  1.0000
  O   O9        1.0  0.5984299999999999  0.6915599999999998  0.25087  1.0000
  O   O10       1.0  0.9778  0.79991  0.3813  1.0000
  O   O11       1.0  0.16032  0.61213  0.36061  1.0000
  O   O12       1.0  0.09308000000000005  0.68976  0.43925  1.0000
  O   O13       1.0  0.17770000000000002  0.58124  0.20178  1.0000
  O   O14       1.0  0.54732  0.74836  0.38856  1.0000
  O   O15       1.0  0.40157999999999994  0.7491299999999999  0.30843  1.0000
  O   O16       1.0  0.5975699999999999  0.61918  0.41898  1.0000
  O   O17       1.0  0.79936  0.64024  0.24984999999999996  1.0000
  O   O18       1.0  0.64996  0.56023  0.24832999999999997  1.0000
