data_image0
_chemical_formula_structural       Cu4H72C56N16O16
_chemical_formula_sum              "Cu4 H72 C56 N16 O16"
_cell_length_a       8.22973
_cell_length_b       8.69576
_cell_length_c       24.06612
_cell_angle_alpha    91.87655
_cell_angle_beta     90.04218
_cell_angle_gamma    90.13530999999999

_symmetry_space_group_name_H-M    'P 1'
_symmetry_Int_Tables_number       1

loop_
  _symmetry_equiv_pos_as_xyz
  'x,y,z'

loop_
  _atom_site_type_symbol
  _atom_site_label
  _atom_site_symmetry_multiplicity
  _atom_site_fract_x
  _atom_site_fract_y
  _atom_site_fract_z
  _atom_site_occupancy
  Cu  Cu1       1.0  0.69978  0.75042  0.7501199999999999  1.0000
  Cu  Cu2       1.0  0.30022  0.24957000000000001  0.24988  1.0000
  Cu  Cu3       1.0  0.9999800000000001  0.49996  0.5  1.0000
  Cu  Cu4       1.0  2.0000000000000198e-05  0.99998  0.0  1.0000
  H   H1        1.0  0.00962  0.58289  0.63552  1.0000
  H   H2        1.0  0.20637  0.21543  0.53821  1.0000
  H   H3        1.0  0.29782  0.18325999999999998  0.64889  1.0000
  H   H4        1.0  0.15928  0.54596  0.7268899999999999  1.0000
  H   H5        1.0  0.2952200000000001  0.38835  0.73111  1.0000
  H   H6        1.0  0.04855  0.37976  0.7956  1.0000
  H   H7        1.0  0.92195  0.37989  0.73711  1.0000
  H   H8        1.0  0.63987  0.67835  0.61975  1.0000
  H   H9        1.0  0.64576  0.38569000000000003  0.75516  1.0000
  H   H10       1.0  0.59917  0.20761000000000002  0.65685  1.0000
  H   H11       1.0  0.50594  0.29338  0.5596  1.0000
  H   H12       1.0  0.70585  0.35497  0.54444  1.0000
  H   H13       1.0  0.60754  0.6204  0.53011  1.0000
  H   H14       1.0  0.4077400000000001  0.56941  0.55037  1.0000
  H   H15       1.0  0.03752  0.017610000000000004  0.54388  1.0000
  H   H16       1.0  0.13054  0.94803  0.60351  1.0000
  H   H17       1.0  0.86483  0.09164  0.62069  1.0000
  H   H18       1.0  0.76022  0.94565  0.58319  1.0000
  H   H19       1.0  0.00875  0.91747  0.8644  1.0000
  H   H20       1.0  0.20650000000000004  0.28524  0.96196  1.0000
  H   H21       1.0  0.29853000000000013  0.31748  0.85135  1.0000
  H   H22       1.0  0.15883000000000003  0.95499  0.77305  1.0000
  H   H23       1.0  0.29508  0.11296  0.76907  1.0000
  H   H24       1.0  0.04846000000000002  0.12109  0.70451  1.0000
  H   H25       1.0  0.9217500000000002  0.12036000000000001  0.76289  1.0000
  H   H26       1.0  0.63716  0.82275  0.88045  1.0000
  H   H27       1.0  0.6450300000000002  0.11472000000000002  0.74486  1.0000
  H   H28       1.0  0.59979  0.29331  0.8430699999999999  1.0000
  H   H29       1.0  0.5060900000000003  0.20727000000000004  0.9406  1.0000
  H   H30       1.0  0.70602  0.14594  0.95562  1.0000
  H   H31       1.0  0.60734  0.8803699999999999  0.9697699999999999  1.0000
  H   H32       1.0  0.40752  0.93077  0.94951  1.0000
  H   H33       1.0  0.03755  0.48233  0.95491  1.0000
  H   H34       1.0  0.1283  0.55485  0.89523  1.0000
  H   H35       1.0  0.86221  0.40967  0.87862  1.0000
  H   H36       1.0  0.7588500000000001  0.5539200000000001  0.9171  1.0000
  H   H37       1.0  0.9903500000000001  0.4170700000000001  0.36447  1.0000
  H   H38       1.0  0.7936  0.78454  0.46179  1.0000
  H   H39       1.0  0.7022  0.81673  0.3511  1.0000
  H   H40       1.0  0.84073  0.45403000000000004  0.27311  1.0000
  H   H41       1.0  0.70479  0.61164  0.26889  1.0000
  H   H42       1.0  0.9514600000000002  0.62023  0.2044  1.0000
  H   H43       1.0  0.07805  0.6201  0.26289  1.0000
  H   H44       1.0  0.36013  0.32163  0.38023999999999997  1.0000
  H   H45       1.0  0.35424  0.6143  0.24484  1.0000
  H   H46       1.0  0.40084  0.79238  0.34315  1.0000
  H   H47       1.0  0.49406000000000005  0.70661  0.44039  1.0000
  H   H48       1.0  0.29414  0.64501  0.45554999999999995  1.0000
  H   H49       1.0  0.39245000000000013  0.37959  0.46989  1.0000
  H   H50       1.0  0.5922500000000002  0.43057  0.44963  1.0000
  H   H51       1.0  0.96253  0.98225  0.45609  1.0000
  H   H52       1.0  0.86951  0.05189  0.39647  1.0000
  H   H53       1.0  0.13525  0.90829  0.37928999999999996  1.0000
  H   H54       1.0  0.23983  0.05431  0.4168  1.0000
  H   H55       1.0  0.99127  0.0825  0.13559  1.0000
  H   H56       1.0  0.7935200000000002  0.7147200000000002  0.03804  1.0000
  H   H57       1.0  0.7014600000000002  0.6825  0.14865  1.0000
  H   H58       1.0  0.84118  0.04499  0.22694  1.0000
  H   H59       1.0  0.70492  0.88703  0.23093  1.0000
  H   H60       1.0  0.9515400000000003  0.8789  0.29548  1.0000
  H   H61       1.0  0.07825  0.8796300000000001  0.23711  1.0000
  H   H62       1.0  0.36286  0.17724  0.11955  1.0000
  H   H63       1.0  0.35497  0.88527  0.25514  1.0000
  H   H64       1.0  0.40021  0.70667  0.15693  1.0000
  H   H65       1.0  0.49392  0.7927100000000002  0.0594  1.0000
  H   H66       1.0  0.29399  0.85404  0.04438  1.0000
  H   H67       1.0  0.39266  0.11961000000000001  0.030219999999999997  1.0000
  H   H68       1.0  0.59249  0.06920999999999998  0.05048  1.0000
  H   H69       1.0  0.96245  0.51763  0.04507  1.0000
  H   H70       1.0  0.8717  0.44513  0.10476  1.0000
  H   H71       1.0  0.13780000000000006  0.5903  0.12136  1.0000
  H   H72       1.0  0.24114  0.44605  0.08289  1.0000
  C   C1        1.0  0.07123  0.47714000000000006  0.62301  1.0000
  C   C2        1.0  0.17777000000000007  0.28472  0.57493  1.0000
  C   C3        1.0  0.22443000000000005  0.26869  0.62918  1.0000
  C   C4        1.0  0.17134  0.42131  0.71934  1.0000
  C   C5        1.0  0.03981  0.33852  0.7520199999999999  1.0000
  C   C6        1.0  0.6336100000000002  0.57576  0.64368  1.0000
  C   C7        1.0  0.63681  0.41796999999999995  0.71239  1.0000
  C   C8        1.0  0.61257  0.33037999999999995  0.66441  1.0000
  C   C9        1.0  0.58882  0.39219  0.56201  1.0000
  C   C10       1.0  0.51882  0.52561  0.53008  1.0000
  C   C11       1.0  0.03974  0.77682  0.54775  1.0000
  C   C12       1.0  0.02347  0.9337  0.57667  1.0000
  C   C13       1.0  0.86845  0.96814  0.60897  1.0000
  C   C14       1.0  0.8526  0.87936  0.66226  1.0000
  C   C15       1.0  0.07083  0.02324  0.87702  1.0000
  C   C16       1.0  0.17785  0.21588  0.92521  1.0000
  C   C17       1.0  0.22469000000000006  0.23201000000000002  0.8709999999999999  1.0000
  C   C18       1.0  0.17112  0.07962000000000001  0.78076  1.0000
  C   C19       1.0  0.03968  0.16222  0.74809  1.0000
  C   C20       1.0  0.6315600000000002  0.92514  0.85641  1.0000
  C   C21       1.0  0.63576  0.08267  0.78765  1.0000
  C   C22       1.0  0.6123400000000001  0.17048  0.8356  1.0000
  C   C23       1.0  0.5887  0.10866  0.93808  1.0000
  C   C24       1.0  0.51867  0.9747900000000002  0.9698899999999999  1.0000
  C   C25       1.0  0.03917000000000001  0.7234700000000002  0.9521399999999999  1.0000
  C   C26       1.0  0.02227  0.56738  0.9226  1.0000
  C   C27       1.0  0.8661500000000002  0.53293  0.89078  1.0000
  C   C28       1.0  0.84761  0.62291  0.83787  1.0000
  C   C29       1.0  0.92874  0.52281  0.37698999999999994  1.0000
  C   C30       1.0  0.8222000000000003  0.71525  0.42506999999999995  1.0000
  C   C31       1.0  0.77557  0.7312900000000002  0.37082  1.0000
  C   C32       1.0  0.82867  0.57867  0.28066  1.0000
  C   C33       1.0  0.9601900000000002  0.66147  0.24798  1.0000
  C   C34       1.0  0.36639  0.42423  0.35631  1.0000
  C   C35       1.0  0.36320000000000013  0.58202  0.28761  1.0000
  C   C36       1.0  0.38743  0.66961  0.33558999999999994  1.0000
  C   C37       1.0  0.41119  0.6078  0.43799  1.0000
  C   C38       1.0  0.48118  0.47437999999999997  0.46992  1.0000
  C   C39       1.0  0.9602300000000003  0.22303  0.45226  1.0000
  C   C40       1.0  0.97658  0.06618  0.42331  1.0000
  C   C41       1.0  0.1316  0.0318  0.39101  1.0000
  C   C42       1.0  0.14742  0.12061  0.33773  1.0000
  C   C43       1.0  0.92919  0.9767200000000001  0.12297  1.0000
  C   C44       1.0  0.8221600000000002  0.78408  0.07479  1.0000
  C   C45       1.0  0.7753100000000003  0.76796  0.129  1.0000
  C   C46       1.0  0.8288800000000002  0.92036  0.21923999999999996  1.0000
  C   C47       1.0  0.96032  0.83777  0.25191  1.0000
  C   C48       1.0  0.3684500000000001  0.07484  0.14359  1.0000
  C   C49       1.0  0.36424  0.91732  0.21234  1.0000
  C   C50       1.0  0.3876600000000001  0.82951  0.1644  1.0000
  C   C51       1.0  0.41131  0.89133  0.06191999999999999  1.0000
  C   C52       1.0  0.48134  0.0252  0.0301  1.0000
  C   C53       1.0  0.96084  0.2765  0.04785999999999999  1.0000
  C   C54       1.0  0.9777300000000001  0.43258000000000013  0.07739  1.0000
  C   C55       1.0  0.13384  0.46704  0.10921  1.0000
  C   C56       1.0  0.15239000000000005  0.37707  0.16212  1.0000
  N   N1        1.0  0.08211  0.4145  0.57148  1.0000
  N   N2        1.0  0.15732  0.39169  0.65903  1.0000
  N   N3        1.0  0.6503  0.5708  0.6988399999999999  1.0000
  N   N4        1.0  0.61011  0.43244  0.6214  1.0000
  N   N5        1.0  0.08185  0.08589  0.92857  1.0000
  N   N6        1.0  0.15728  0.1089  0.84108  1.0000
  N   N7        1.0  0.64807  0.92986  0.80125  1.0000
  N   N8        1.0  0.60932  0.06854999999999999  0.8786599999999999  1.0000
  N   N9        1.0  0.9178300000000003  0.58545  0.42852  1.0000
  N   N10       1.0  0.84268  0.60829  0.34095999999999993  1.0000
  N   N11       1.0  0.3497  0.42919  0.30116  1.0000
  N   N12       1.0  0.38989  0.56755  0.3786  1.0000
  N   N13       1.0  0.91817  0.9140700000000002  0.07143  1.0000
  N   N14       1.0  0.84272  0.89108  0.15892  1.0000
  N   N15       1.0  0.35194  0.07013  0.19874  1.0000
  N   N16       1.0  0.39069  0.93143  0.12133999999999999  1.0000
  O   O1        1.0  0.96739  0.80182  0.6804399999999999  1.0000
  O   O2        1.0  0.71084  0.8927100000000002  0.68628  1.0000
  O   O3        1.0  0.91261  0.6879700000000001  0.54413  1.0000
  O   O4        1.0  0.17505  0.7415  0.52717  1.0000
  O   O5        1.0  0.95982  0.70409  0.8195699999999999  1.0000
  O   O6        1.0  0.70587  0.60705  0.8139299999999999  1.0000
  O   O7        1.0  0.91245  0.81225  0.9558799999999998  1.0000
  O   O8        1.0  0.1747  0.7584000000000002  0.9728  1.0000
  O   O9        1.0  0.03262  0.19815  0.31956  1.0000
  O   O10       1.0  0.2892  0.10729000000000001  0.31371  1.0000
  O   O11       1.0  0.08731  0.31197  0.45587  1.0000
  O   O12       1.0  0.8249400000000002  0.25829  0.47287  1.0000
  O   O13       1.0  0.040170000000000004  0.29589  0.18042999999999998  1.0000
  O   O14       1.0  0.29413  0.39294  0.18606  1.0000
  O   O15       1.0  0.08757000000000002  0.18771999999999997  0.044109999999999996  1.0000
  O   O16       1.0  0.8253  0.24158000000000002  0.02721  1.0000
