data_image0
_chemical_formula_structural       Cu4H56C80N16
_chemical_formula_sum              "Cu4 H56 C80 N16"
_cell_length_a       7.59642
_cell_length_b       11.31737
_cell_length_c       21.72097
_cell_angle_alpha    85.50326
_cell_angle_beta     89.98894000000001
_cell_angle_gamma    90.0054

_symmetry_space_group_name_H-M    'P 1'
_symmetry_Int_Tables_number       1

loop_
  _symmetry_equiv_pos_as_xyz
  'x,y,z'

loop_
  _atom_site_type_symbol
  _atom_site_label
  _atom_site_symmetry_multiplicity
  _atom_site_fract_x
  _atom_site_fract_y
  _atom_site_fract_z
  _atom_site_occupancy
  Cu  Cu1       1.0  0.15921  0.17391000000000004  0.15515  1.0000
  Cu  Cu2       1.0  0.3401799999999999  0.67364  0.65514  1.0000
  Cu  Cu3       1.0  0.6598199999999997  0.32635999999999993  0.34486  1.0000
  Cu  Cu4       1.0  0.84078  0.82608  0.84485  1.0000
  H   H1        1.0  0.24841  0.3158  0.25882  1.0000
  H   H2        1.0  0.89997  0.9853  0.35333  1.0000
  H   H3        1.0  0.15658  0.32086  0.36927  1.0000
  H   H4        1.0  0.83114  0.18569999999999998  0.60454  1.0000
  H   H5        1.0  0.92086  0.33143000000000006  0.64548  1.0000
  H   H6        1.0  0.37707  0.56682  0.53341  1.0000
  H   H7        1.0  0.07503999999999997  0.49544  0.69095  1.0000
  H   H8        1.0  0.9995999999999999  0.9932299999999998  0.24511  1.0000
  H   H9        1.0  0.8020099999999998  0.004860000000000003  0.43729  1.0000
  H   H10       1.0  0.23193999999999995  0.40358  0.48113  1.0000
  H   H11       1.0  0.6375499999999997  0.07391000000000002  0.64187  1.0000
  H   H12       1.0  0.4465399999999999  0.9165799999999998  0.68786  1.0000
  H   H13       1.0  0.4696599999999999  0.73242  0.52985  1.0000
  H   H14       1.0  0.67288  0.87373  0.47977  1.0000
  H   H15       1.0  0.25171  0.81564  0.75873  1.0000
  H   H16       1.0  0.6002999999999997  0.48551  0.85341  1.0000
  H   H17       1.0  0.3435899999999999  0.82104  0.8691500000000001  1.0000
  H   H18       1.0  0.6682399999999997  0.6859199999999999  0.10456  1.0000
  H   H19       1.0  0.5788999999999997  0.83166  0.14544  1.0000
  H   H20       1.0  0.12317  0.06725  0.03344  1.0000
  H   H21       1.0  0.42489  0.9956399999999999  0.19098  1.0000
  H   H22       1.0  0.50075  0.4930899999999999  0.74522  1.0000
  H   H23       1.0  0.69772  0.50503  0.93729  1.0000
  H   H24       1.0  0.2681599999999999  0.904  0.9811300000000001  1.0000
  H   H25       1.0  0.8620299999999997  0.57415  0.1419  1.0000
  H   H26       1.0  0.05318  0.41694999999999993  0.18785000000000002  1.0000
  H   H27       1.0  0.029979999999999993  0.23265999999999998  0.02986  1.0000
  H   H28       1.0  0.82669  0.37382999999999994  0.97982  1.0000
  H   H29       1.0  0.74829  0.18435999999999994  0.24127  1.0000
  H   H30       1.0  0.3996899999999999  0.51449  0.14659  1.0000
  H   H31       1.0  0.6564099999999998  0.17896  0.13085  1.0000
  H   H32       1.0  0.3317599999999999  0.3140799999999999  0.89544  1.0000
  H   H33       1.0  0.4211  0.16834  0.85456  1.0000
  H   H34       1.0  0.87683  0.9327499999999999  0.9665600000000001  1.0000
  H   H35       1.0  0.57511  0.00436  0.8090300000000001  1.0000
  H   H36       1.0  0.4992499999999999  0.5069  0.25478  1.0000
  H   H37       1.0  0.3022799999999999  0.4949699999999999  0.06271  1.0000
  H   H38       1.0  0.73184  0.09599999999999999  0.01887  1.0000
  H   H39       1.0  0.13797  0.4258499999999999  0.8581  1.0000
  H   H40       1.0  0.94682  0.58305  0.81215  1.0000
  H   H41       1.0  0.9700199999999998  0.7673400000000002  0.97015  1.0000
  H   H42       1.0  0.17331  0.62617  0.02018  1.0000
  H   H43       1.0  0.75159  0.6841999999999999  0.7411900000000001  1.0000
  H   H44       1.0  0.10002999999999997  0.01469999999999999  0.64667  1.0000
  H   H45       1.0  0.8434199999999997  0.67913  0.63073  1.0000
  H   H46       1.0  0.16886  0.8142999999999998  0.39546  1.0000
  H   H47       1.0  0.07914  0.66856  0.35452  1.0000
  H   H48       1.0  0.62293  0.4331799999999999  0.46658999999999995  1.0000
  H   H49       1.0  0.9249599999999998  0.50456  0.30905  1.0000
  H   H50       1.0  0.00039999999999999996  0.006770000000000004  0.75489  1.0000
  H   H51       1.0  0.19799  0.99514  0.56271  1.0000
  H   H52       1.0  0.7680599999999999  0.59641  0.51887  1.0000
  H   H53       1.0  0.36245  0.92608  0.35813  1.0000
  H   H54       1.0  0.5534499999999999  0.08342  0.31214  1.0000
  H   H55       1.0  0.5303399999999998  0.26757  0.47014999999999996  1.0000
  H   H56       1.0  0.32712  0.12626999999999994  0.52023  1.0000
  C   C1        1.0  0.16881  0.24517  0.28137  1.0000
  C   C2        1.0  0.9739899999999998  0.06207  0.33455  1.0000
  C   C3        1.0  0.11824  0.24806999999999996  0.34242  1.0000
  C   C4        1.0  0.015099999999999997  0.15593999999999997  0.37118  1.0000
  C   C5        1.0  0.96318  0.16008999999999993  0.43603000000000003  1.0000
  C   C6        1.0  0.7960299999999998  0.07990999999999997  0.5258  1.0000
  C   C7        1.0  0.8645999999999998  0.17646  0.55654  1.0000
  C   C8        1.0  0.98058  0.25661999999999996  0.52604  1.0000
  C   C9        1.0  0.06324  0.35251999999999994  0.55806  1.0000
  C   C10       1.0  0.02119  0.3804699999999999  0.61843  1.0000
  C   C11       1.0  0.27572  0.51256  0.55699  1.0000
  C   C12       1.0  0.10673999999999997  0.4724999999999999  0.64451  1.0000
  C   C13       1.0  0.030339999999999992  0.06515999999999997  0.2738  1.0000
  C   C14       1.0  0.8512699999999997  0.07476000000000001  0.46396  1.0000
  C   C15       1.0  0.19633999999999993  0.42199  0.52787  1.0000
  C   C16       1.0  0.6792899999999997  0.9911199999999999  0.5552  1.0000
  C   C17       1.0  0.60702  0.99909  0.61527  1.0000
  C   C18       1.0  0.49821  0.91161  0.64141  1.0000
  C   C19       1.0  0.51342  0.8073  0.55426  1.0000
  C   C20       1.0  0.62688  0.8892299999999997  0.5257  1.0000
  C   C21       1.0  0.33139  0.7451199999999999  0.7813099999999998  1.0000
  C   C22       1.0  0.5262999999999998  0.56222  0.8345799999999999  1.0000
  C   C23       1.0  0.38196999999999987  0.7481999999999999  0.84236  1.0000
  C   C24       1.0  0.48512  0.6561499999999998  0.87115  1.0000
  C   C25       1.0  0.53692  0.66036  0.93601  1.0000
  C   C26       1.0  0.70373  0.5801199999999999  0.025810000000000003  1.0000
  C   C27       1.0  0.6350199999999998  0.67664  0.056560000000000006  1.0000
  C   C28       1.0  0.51928  0.75688  0.02602  1.0000
  C   C29       1.0  0.4367  0.85283  0.05803  1.0000
  C   C30       1.0  0.4786999999999999  0.8807699999999999  0.11841000000000002  1.0000
  C   C31       1.0  0.22446999999999995  0.01301  0.057  1.0000
  C   C32       1.0  0.3932499999999999  0.97285  0.14451  1.0000
  C   C33       1.0  0.4699599999999999  0.56514  0.7738299999999999  1.0000
  C   C34       1.0  0.64867  0.5749899999999998  0.96396  1.0000
  C   C35       1.0  0.30377  0.92239  0.02786  1.0000
  C   C36       1.0  0.82042  0.4913399999999999  0.05522  1.0000
  C   C37       1.0  0.89267  0.49937  0.11528  1.0000
  C   C38       1.0  0.0015199999999999997  0.41191999999999995  0.14141  1.0000
  C   C39       1.0  0.98628  0.30755  0.05426000000000001  1.0000
  C   C40       1.0  0.8727999999999998  0.38944999999999996  0.02571  1.0000
  C   C41       1.0  0.6685999999999998  0.25488  0.21869  1.0000
  C   C42       1.0  0.4737  0.43777999999999995  0.16542  1.0000
  C   C43       1.0  0.6180199999999999  0.2518  0.15765  1.0000
  C   C44       1.0  0.5148699999999999  0.34385  0.12885  1.0000
  C   C45       1.0  0.46309  0.33963999999999994  0.064  1.0000
  C   C46       1.0  0.29627  0.41988  0.97419  1.0000
  C   C47       1.0  0.36498  0.32336  0.94345  1.0000
  C   C48       1.0  0.48072  0.24311999999999998  0.9739800000000001  1.0000
  C   C49       1.0  0.5633  0.14717  0.94197  1.0000
  C   C50       1.0  0.5213  0.11923000000000002  0.88159  1.0000
  C   C51       1.0  0.77552  0.98699  0.943  1.0000
  C   C52       1.0  0.6067499999999999  0.027150000000000014  0.8554899999999999  1.0000
  C   C53       1.0  0.5300399999999998  0.43486  0.22617  1.0000
  C   C54       1.0  0.35132999999999986  0.42501  0.03604  1.0000
  C   C55       1.0  0.6962299999999998  0.07760999999999996  0.9721400000000001  1.0000
  C   C56       1.0  0.17958  0.50865  0.94478  1.0000
  C   C57       1.0  0.10732999999999997  0.50063  0.88472  1.0000
  C   C58       1.0  0.9984799999999999  0.58807  0.8585899999999999  1.0000
  C   C59       1.0  0.01372  0.6924399999999999  0.94574  1.0000
  C   C60       1.0  0.12719  0.6105499999999999  0.97429  1.0000
  C   C61       1.0  0.83119  0.75482  0.71863  1.0000
  C   C62       1.0  0.02601  0.93793  0.66545  1.0000
  C   C63       1.0  0.8817599999999998  0.7519199999999999  0.65758  1.0000
  C   C64       1.0  0.9849  0.84406  0.62882  1.0000
  C   C65       1.0  0.03682  0.8399100000000002  0.56398  1.0000
  C   C66       1.0  0.20397  0.9200799999999999  0.4742  1.0000
  C   C67       1.0  0.13539  0.82353  0.44346  1.0000
  C   C68       1.0  0.019419999999999993  0.74337  0.47396  1.0000
  C   C69       1.0  0.9367599999999998  0.64747  0.44194  1.0000
  C   C70       1.0  0.9788099999999997  0.61953  0.3815700000000001  1.0000
  C   C71       1.0  0.72428  0.48742999999999986  0.44301  1.0000
  C   C72       1.0  0.8932599999999999  0.5275  0.35549  1.0000
  C   C73       1.0  0.96966  0.93483  0.7262  1.0000
  C   C74       1.0  0.14872999999999995  0.92524  0.53604  1.0000
  C   C75       1.0  0.8036599999999998  0.5780099999999999  0.47213  1.0000
  C   C76       1.0  0.32071  0.008869999999999996  0.4448  1.0000
  C   C77       1.0  0.39298  0.000910000000000006  0.38473  1.0000
  C   C78       1.0  0.50179  0.08839  0.35859  1.0000
  C   C79       1.0  0.4865799999999999  0.1927  0.44575000000000004  1.0000
  C   C80       1.0  0.37312  0.11076999999999997  0.47430000000000005  1.0000
  N   N1        1.0  0.12546  0.15618  0.24573  1.0000
  N   N2        1.0  0.03016  0.25114999999999993  0.46607  1.0000
  N   N3        1.0  0.23318999999999995  0.54045  0.61479  1.0000
  N   N4        1.0  0.4466499999999999  0.81473  0.612  1.0000
  N   N5        1.0  0.3747799999999999  0.6560599999999999  0.74572  1.0000
  N   N6        1.0  0.46989  0.7514299999999999  0.96604  1.0000
  N   N7        1.0  0.26694  0.04087  0.11481  1.0000
  N   N8        1.0  0.053049999999999986  0.3150299999999999  0.11199  1.0000
  N   N9        1.0  0.62522  0.34394  0.25428  1.0000
  N   N10       1.0  0.5301099999999997  0.24856999999999999  0.03396  1.0000
  N   N11       1.0  0.73306  0.9591299999999999  0.88519  1.0000
  N   N12       1.0  0.9469499999999997  0.6849700000000001  0.88801  1.0000
  N   N13       1.0  0.87454  0.84382  0.75427  1.0000
  N   N14       1.0  0.9698399999999998  0.74884  0.53393  1.0000
  N   N15       1.0  0.76681  0.45954  0.38521  1.0000
  N   N16       1.0  0.55334  0.18526  0.388  1.0000
