data_image0
_chemical_formula_structural       Zn16H48C48N64O32
_chemical_formula_sum              "Zn16 H48 C48 N64 O32"
_cell_length_a       12.97864
_cell_length_b       13.92446
_cell_length_c       16.97726
_cell_angle_alpha    90.0
_cell_angle_beta     90.0
_cell_angle_gamma    90.0

_symmetry_space_group_name_H-M    'P 1'
_symmetry_Int_Tables_number       1

loop_
  _symmetry_equiv_pos_as_xyz
  'x,y,z'

loop_
  _atom_site_type_symbol
  _atom_site_label
  _atom_site_symmetry_multiplicity
  _atom_site_fract_x
  _atom_site_fract_y
  _atom_site_fract_z
  _atom_site_occupancy
  Zn  Zn1       1.0  0.9766099999999998  0.4077500000000001  0.57333  1.0000
  Zn  Zn2       1.0  0.92951  0.4787300000000001  0.90517  1.0000
  Zn  Zn3       1.0  0.02339  0.09225  0.07333  1.0000
  Zn  Zn4       1.0  0.07049  0.021270000000000008  0.40517  1.0000
  Zn  Zn5       1.0  0.4766  0.59225  0.92667  1.0000
  Zn  Zn6       1.0  0.42951  0.52127  0.59483  1.0000
  Zn  Zn7       1.0  0.52339  0.9077500000000001  0.42667  1.0000
  Zn  Zn8       1.0  0.57049  0.9787300000000002  0.09483  1.0000
  Zn  Zn9       1.0  0.02339  0.59225  0.42667  1.0000
  Zn  Zn10      1.0  0.07049  0.52127  0.09483  1.0000
  Zn  Zn11      1.0  0.9766  0.9077500000000001  0.92667  1.0000
  Zn  Zn12      1.0  0.92951  0.9787300000000002  0.59483  1.0000
  Zn  Zn13      1.0  0.52339  0.4077500000000001  0.07333  1.0000
  Zn  Zn14      1.0  0.57049  0.4787300000000001  0.40517  1.0000
  Zn  Zn15      1.0  0.47661  0.09225  0.57333  1.0000
  Zn  Zn16      1.0  0.42951  0.021270000000000008  0.90517  1.0000
  H   H1        1.0  0.9459  0.19809000000000004  0.65426  1.0000
  H   H2        1.0  0.74016  0.355  0.5023  1.0000
  H   H3        1.0  0.05615  0.23295000000000002  0.36162  1.0000
  H   H4        1.0  0.06419  0.34064000000000005  0.41134  1.0000
  H   H5        1.0  0.7215  0.6138100000000002  0.32052  1.0000
  H   H6        1.0  0.84383  0.6555100000000003  0.33887  1.0000
  H   H7        1.0  0.0541  0.30191  0.15426  1.0000
  H   H8        1.0  0.25984  0.145  0.0023  1.0000
  H   H9        1.0  0.94384  0.26705  0.86162  1.0000
  H   H10       1.0  0.93581  0.15936000000000006  0.91134  1.0000
  H   H11       1.0  0.27849  0.8862  0.82052  1.0000
  H   H12       1.0  0.15616  0.84449  0.83887  1.0000
  H   H13       1.0  0.44589  0.8019100000000002  0.84574  1.0000
  H   H14       1.0  0.24015999999999998  0.6450000000000002  0.9976999999999999  1.0000
  H   H15       1.0  0.55615  0.76705  0.13838  1.0000
  H   H16       1.0  0.56419  0.65936  0.08866  1.0000
  H   H17       1.0  0.2215  0.3862  0.17948  1.0000
  H   H18       1.0  0.34383  0.34449  0.16113  1.0000
  H   H19       1.0  0.5541  0.6980900000000002  0.34574  1.0000
  H   H20       1.0  0.75984  0.855  0.4976999999999999  1.0000
  H   H21       1.0  0.44384  0.7329500000000002  0.63838  1.0000
  H   H22       1.0  0.43580999999999986  0.8406400000000003  0.58866  1.0000
  H   H23       1.0  0.7784899999999999  0.11381000000000002  0.67948  1.0000
  H   H24       1.0  0.6561699999999999  0.15551  0.66113  1.0000
  H   H25       1.0  0.0541  0.8019100000000002  0.34574  1.0000
  H   H26       1.0  0.25984  0.6450000000000002  0.4976999999999999  1.0000
  H   H27       1.0  0.94384  0.76705  0.63838  1.0000
  H   H28       1.0  0.93581  0.65936  0.58866  1.0000
  H   H29       1.0  0.27849  0.3862  0.67948  1.0000
  H   H30       1.0  0.15617  0.34449  0.66113  1.0000
  H   H31       1.0  0.9458899999999999  0.6980900000000002  0.84574  1.0000
  H   H32       1.0  0.74016  0.855  0.9976999999999999  1.0000
  H   H33       1.0  0.05615  0.7329500000000002  0.13838  1.0000
  H   H34       1.0  0.06419  0.8406500000000001  0.08866  1.0000
  H   H35       1.0  0.72151  0.11381000000000002  0.17948  1.0000
  H   H36       1.0  0.84383  0.15551  0.16113  1.0000
  H   H37       1.0  0.5541  0.19809000000000004  0.15426  1.0000
  H   H38       1.0  0.75984  0.355  0.0023  1.0000
  H   H39       1.0  0.4438499999999999  0.23295000000000002  0.86162  1.0000
  H   H40       1.0  0.43580999999999986  0.34064000000000005  0.91134  1.0000
  H   H41       1.0  0.7784899999999999  0.6138100000000002  0.82052  1.0000
  H   H42       1.0  0.6561699999999999  0.6555100000000003  0.83887  1.0000
  H   H43       1.0  0.44589999999999996  0.30191  0.65426  1.0000
  H   H44       1.0  0.24015999999999998  0.145  0.5023  1.0000
  H   H45       1.0  0.55615  0.26705  0.36162  1.0000
  H   H46       1.0  0.56419  0.15936000000000006  0.41134  1.0000
  H   H47       1.0  0.2215  0.8862  0.32052  1.0000
  H   H48       1.0  0.34383  0.84449  0.33887  1.0000
  C   C1        1.0  0.9710899999999998  0.41154  0.74478  1.0000
  C   C2        1.0  0.9229699999999997  0.5087500000000001  0.72119  1.0000
  C   C3        1.0  0.02806  0.22083  0.4776599999999999  1.0000
  C   C4        1.0  0.9723199999999999  0.19001000000000007  0.59428  1.0000
  C   C5        1.0  0.7964599999999998  0.5477000000000002  0.40896  1.0000
  C   C6        1.0  0.77478  0.41854  0.47662  1.0000
  C   C7        1.0  0.02891  0.08846  0.24477999999999997  1.0000
  C   C8        1.0  0.07702  0.9912500000000002  0.22119  1.0000
  C   C9        1.0  0.97194  0.27917000000000003  0.9776600000000001  1.0000
  C   C10       1.0  0.027679999999999993  0.30999  0.09428  1.0000
  C   C11       1.0  0.20354  0.9523000000000003  0.90896  1.0000
  C   C12       1.0  0.22522  0.08146  0.97662  1.0000
  C   C13       1.0  0.47108999999999995  0.5884600000000002  0.75522  1.0000
  C   C14       1.0  0.42296999999999996  0.49125000000000013  0.77881  1.0000
  C   C15       1.0  0.52806  0.77917  0.02234  1.0000
  C   C16       1.0  0.47232  0.8099900000000001  0.90572  1.0000
  C   C17       1.0  0.29646  0.4523  0.09104  1.0000
  C   C18       1.0  0.27478  0.58146  0.02338  1.0000
  C   C19       1.0  0.52891  0.91154  0.25522  1.0000
  C   C20       1.0  0.57702  0.00875  0.27881  1.0000
  C   C21       1.0  0.47194  0.72084  0.52234  1.0000
  C   C22       1.0  0.52768  0.69001  0.40572  1.0000
  C   C23       1.0  0.70354  0.04770000000000001  0.59103  1.0000
  C   C24       1.0  0.72522  0.9185400000000002  0.52338  1.0000
  C   C25       1.0  0.02891  0.5884600000000002  0.25522  1.0000
  C   C26       1.0  0.07702  0.49125000000000013  0.27881  1.0000
  C   C27       1.0  0.97194  0.77917  0.52234  1.0000
  C   C28       1.0  0.027679999999999993  0.8099900000000001  0.40572  1.0000
  C   C29       1.0  0.20354  0.4523  0.59103  1.0000
  C   C30       1.0  0.22522  0.58146  0.52338  1.0000
  C   C31       1.0  0.9710899999999998  0.91154  0.75522  1.0000
  C   C32       1.0  0.9229799999999999  0.00875  0.77881  1.0000
  C   C33       1.0  0.02806  0.72084  0.02234  1.0000
  C   C34       1.0  0.9723199999999999  0.69001  0.90572  1.0000
  C   C35       1.0  0.7964599999999998  0.04770000000000001  0.09104  1.0000
  C   C36       1.0  0.7747699999999998  0.9185400000000002  0.02338  1.0000
  C   C37       1.0  0.52891  0.41154  0.24477999999999997  1.0000
  C   C38       1.0  0.57702  0.50876  0.22119  1.0000
  C   C39       1.0  0.47194  0.22083  0.9776600000000001  1.0000
  C   C40       1.0  0.52768  0.19001000000000007  0.09428  1.0000
  C   C41       1.0  0.70354  0.5477000000000002  0.90896  1.0000
  C   C42       1.0  0.72522  0.41854  0.97662  1.0000
  C   C43       1.0  0.47108999999999995  0.08846  0.74478  1.0000
  C   C44       1.0  0.42296999999999996  0.9912500000000002  0.72119  1.0000
  C   C45       1.0  0.52806  0.27917000000000003  0.4776599999999999  1.0000
  C   C46       1.0  0.47232  0.30999  0.59428  1.0000
  C   C47       1.0  0.29646  0.9523000000000003  0.40896  1.0000
  C   C48       1.0  0.27478  0.08146  0.47662  1.0000
  N   N1        1.0  0.9967499999999998  0.26412  0.54587  1.0000
  N   N2        1.0  0.98589  0.10553  0.55967  1.0000
  N   N3        1.0  0.02197  0.12412000000000001  0.48395  1.0000
  N   N4        1.0  0.06723  0.26747  0.41405  1.0000
  N   N5        1.0  0.87078  0.44654000000000005  0.49017000000000005  1.0000
  N   N6        1.0  0.8853999999999997  0.53034  0.44723  1.0000
  N   N7        1.0  0.7247499999999999  0.4788600000000001  0.42647  1.0000
  N   N8        1.0  0.7787399999999998  0.6248600000000002  0.3614  1.0000
  N   N9        1.0  0.00325  0.23589000000000002  0.04587  1.0000
  N   N10       1.0  0.01411  0.39447  0.05967  1.0000
  N   N11       1.0  0.9780299999999998  0.37588  0.9839499999999999  1.0000
  N   N12       1.0  0.93276  0.23254000000000005  0.91405  1.0000
  N   N13       1.0  0.12922  0.05346  0.99017  1.0000
  N   N14       1.0  0.11459  0.96966  0.9472300000000001  1.0000
  N   N15       1.0  0.27525  0.02114  0.92647  1.0000
  N   N16       1.0  0.22126  0.87514  0.8614  1.0000
  N   N17       1.0  0.49674  0.73589  0.95413  1.0000
  N   N18       1.0  0.48589  0.8944800000000003  0.94033  1.0000
  N   N19       1.0  0.52196  0.8758800000000001  0.01605  1.0000
  N   N20       1.0  0.56723  0.7325400000000002  0.08595  1.0000
  N   N21       1.0  0.3707799999999999  0.5534600000000001  0.00983  1.0000
  N   N22       1.0  0.3854  0.4696600000000001  0.05277  1.0000
  N   N23       1.0  0.22474999999999998  0.52114  0.07353  1.0000
  N   N24       1.0  0.27874  0.3751400000000001  0.1386  1.0000
  N   N25       1.0  0.50325  0.7641200000000001  0.45413  1.0000
  N   N26       1.0  0.51411  0.6055300000000002  0.44033  1.0000
  N   N27       1.0  0.47802999999999995  0.62412  0.51605  1.0000
  N   N28       1.0  0.43275999999999987  0.7674700000000002  0.58595  1.0000
  N   N29       1.0  0.62921  0.9465400000000003  0.50983  1.0000
  N   N30       1.0  0.6146  0.030340000000000006  0.55277  1.0000
  N   N31       1.0  0.77525  0.9788600000000002  0.57353  1.0000
  N   N32       1.0  0.7212599999999998  0.12486000000000003  0.6386  1.0000
  N   N33       1.0  0.00325  0.73589  0.45413  1.0000
  N   N34       1.0  0.0141  0.8944800000000003  0.44033  1.0000
  N   N35       1.0  0.9780299999999998  0.8758800000000001  0.51605  1.0000
  N   N36       1.0  0.93276  0.7325400000000002  0.58595  1.0000
  N   N37       1.0  0.12922  0.5534600000000001  0.50983  1.0000
  N   N38       1.0  0.1146  0.4696600000000001  0.55277  1.0000
  N   N39       1.0  0.27525  0.52114  0.57353  1.0000
  N   N40       1.0  0.22126  0.3751400000000001  0.6386  1.0000
  N   N41       1.0  0.99674  0.7641200000000001  0.95413  1.0000
  N   N42       1.0  0.98589  0.6055300000000002  0.94033  1.0000
  N   N43       1.0  0.02196  0.62412  0.01605  1.0000
  N   N44       1.0  0.06723  0.7674700000000002  0.08595  1.0000
  N   N45       1.0  0.87078  0.9465400000000003  0.00983  1.0000
  N   N46       1.0  0.8853999999999997  0.030340000000000006  0.05277  1.0000
  N   N47       1.0  0.72474  0.9788600000000002  0.07353  1.0000
  N   N48       1.0  0.7787399999999998  0.12486000000000003  0.1386  1.0000
  N   N49       1.0  0.50325  0.26412  0.04587  1.0000
  N   N50       1.0  0.51411  0.10553  0.05967  1.0000
  N   N51       1.0  0.47804  0.12412000000000001  0.9839499999999999  1.0000
  N   N52       1.0  0.43277  0.26747  0.91405  1.0000
  N   N53       1.0  0.6292199999999999  0.44654000000000005  0.99017  1.0000
  N   N54       1.0  0.61459  0.53034  0.9472300000000001  1.0000
  N   N55       1.0  0.77525  0.4788600000000001  0.92647  1.0000
  N   N56       1.0  0.7212599999999998  0.6248600000000002  0.8614  1.0000
  N   N57       1.0  0.49675  0.23589000000000002  0.54587  1.0000
  N   N58       1.0  0.48589  0.39447  0.55967  1.0000
  N   N59       1.0  0.52196  0.37588  0.48395  1.0000
  N   N60       1.0  0.56723  0.23254000000000005  0.41405  1.0000
  N   N61       1.0  0.3707799999999999  0.05346  0.49017000000000005  1.0000
  N   N62       1.0  0.3854  0.96966  0.44723  1.0000
  N   N63       1.0  0.22474999999999998  0.02114  0.42647  1.0000
  N   N64       1.0  0.27874  0.87514  0.3614  1.0000
  O   O1        1.0  0.00021  0.35624000000000006  0.69004  1.0000
  O   O2        1.0  0.91621  0.52449  0.64758  1.0000
  O   O3        1.0  0.8958699999999999  0.56269  0.77732  1.0000
  O   O4        1.0  0.9794199999999998  0.39092  0.81745  1.0000
  O   O5        1.0  0.99979  0.14376000000000005  0.19004  1.0000
  O   O6        1.0  0.08379  0.97551  0.14758  1.0000
  O   O7        1.0  0.10411999999999998  0.9373100000000002  0.27732  1.0000
  O   O8        1.0  0.020579999999999998  0.10908000000000001  0.31745  1.0000
  O   O9        1.0  0.50021  0.6437600000000002  0.8099600000000001  1.0000
  O   O10       1.0  0.41620999999999997  0.4755100000000001  0.85242  1.0000
  O   O11       1.0  0.39587  0.4373100000000001  0.72268  1.0000
  O   O12       1.0  0.47942  0.60908  0.68255  1.0000
  O   O13       1.0  0.49979  0.85624  0.30996  1.0000
  O   O14       1.0  0.58379  0.02449000000000001  0.35242  1.0000
  O   O15       1.0  0.60413  0.06269  0.22268  1.0000
  O   O16       1.0  0.52057  0.8909200000000002  0.18255  1.0000
  O   O17       1.0  0.99979  0.6437600000000002  0.30996  1.0000
  O   O18       1.0  0.08379  0.4755100000000001  0.35242  1.0000
  O   O19       1.0  0.10411999999999998  0.4373100000000001  0.22268  1.0000
  O   O20       1.0  0.020569999999999998  0.60908  0.18255  1.0000
  O   O21       1.0  0.00021  0.85624  0.8099600000000001  1.0000
  O   O22       1.0  0.91621  0.02449000000000001  0.85242  1.0000
  O   O23       1.0  0.8958699999999999  0.06269  0.72268  1.0000
  O   O24       1.0  0.9794199999999998  0.8909200000000002  0.68255  1.0000
  O   O25       1.0  0.49979  0.35624000000000006  0.19004  1.0000
  O   O26       1.0  0.58379  0.52449  0.14758  1.0000
  O   O27       1.0  0.60412  0.56269  0.27732  1.0000
  O   O28       1.0  0.52057  0.39092  0.31745  1.0000
  O   O29       1.0  0.50021  0.14376000000000005  0.69004  1.0000
  O   O30       1.0  0.41620999999999997  0.97551  0.64758  1.0000
  O   O31       1.0  0.39587  0.9373100000000002  0.77732  1.0000
  O   O32       1.0  0.47942  0.10908000000000001  0.81745  1.0000
