data_image0
_chemical_formula_structural       Ba12Cr8H16C48O104
_chemical_formula_sum              "Ba12 Cr8 H16 C48 O104"
_cell_length_a       10.94196
_cell_length_b       14.6123
_cell_length_c       18.56052
_cell_angle_alpha    86.47953
_cell_angle_beta     82.70552000000002
_cell_angle_gamma    72.58314

_space_group_name_H-M_alt    "P 1"
_space_group_IT_number       1

loop_
  _space_group_symop_operation_xyz
  'x, y, z'

loop_
  _atom_site_type_symbol
  _atom_site_label
  _atom_site_symmetry_multiplicity
  _atom_site_fract_x
  _atom_site_fract_y
  _atom_site_fract_z
  _atom_site_occupancy
  Ba  Ba1       1.0  0.63306  0.6128899999999998  0.49556999999999995  1.0000
  Ba  Ba2       1.0  0.45552000000000004  0.37214999999999987  0.23105999999999993  1.0000
  Ba  Ba3       1.0  0.17359  0.57975  0.01563  1.0000
  Ba  Ba4       1.0  0.2245600000000002  0.8875999999999997  0.99732  1.0000
  Ba  Ba5       1.0  0.89242  0.10154999999999997  0.7377199999999999  1.0000
  Ba  Ba6       1.0  0.80956  0.88376  0.52213  1.0000
  Ba  Ba7       1.0  0.36694  0.38711  0.50444  1.0000
  Ba  Ba8       1.0  0.5444799999999999  0.6278499999999998  0.7689399999999997  1.0000
  Ba  Ba9       1.0  0.8264100000000001  0.4202499999999999  0.98438  1.0000
  Ba  Ba10      1.0  0.7754399999999999  0.1124  0.00269  1.0000
  Ba  Ba11      1.0  0.10758000000000006  0.8984499999999997  0.26229  1.0000
  Ba  Ba12      1.0  0.19044000000000003  0.11623999999999997  0.47787999999999997  1.0000
  Cr  Cr1       1.0  0.8523  0.36132  0.6528199999999998  1.0000
  Cr  Cr2       1.0  0.6263  0.62994  0.15878  1.0000
  Cr  Cr3       1.0  0.77625  0.83882  0.86065  1.0000
  Cr  Cr4       1.0  0.26806  0.8896299999999999  0.6544999999999999  1.0000
  Cr  Cr5       1.0  0.1477  0.63868  0.34718999999999994  1.0000
  Cr  Cr6       1.0  0.3737  0.37006  0.8412199999999997  1.0000
  Cr  Cr7       1.0  0.22375  0.16118  0.13935  1.0000
  Cr  Cr8       1.0  0.73194  0.11037  0.34550999999999993  1.0000
  H   H1        1.0  0.17853999999999995  0.42648  0.34622  1.0000
  H   H2        1.0  0.25291  0.31514  0.3489099999999999  1.0000
  H   H3        1.0  0.5613099999999999  0.43210999999999994  0.36552  1.0000
  H   H4        1.0  0.6040199999999999  0.31812  0.3782299999999999  1.0000
  H   H5        1.0  0.37587000000000015  0.8388999999999998  0.15866  1.0000
  H   H6        1.0  0.35582000000000014  0.9512199999999997  0.15388999999999994  1.0000
  H   H7        1.0  0.9819899999999999  0.79642  0.14746  1.0000
  H   H8        1.0  0.93677  0.9048599999999999  0.12157999999999998  1.0000
  H   H9        1.0  0.8214599999999999  0.57352  0.6537799999999999  1.0000
  H   H10       1.0  0.7470899999999999  0.68487  0.6511  1.0000
  H   H11       1.0  0.43869  0.56788  0.6344799999999999  1.0000
  H   H12       1.0  0.39598000000000017  0.6818799999999999  0.62177  1.0000
  H   H13       1.0  0.6241299999999999  0.16109999999999997  0.8413399999999998  1.0000
  H   H14       1.0  0.6441799999999998  0.048780000000000004  0.84612  1.0000
  H   H15       1.0  0.018010000000000005  0.20358999999999994  0.85254  1.0000
  H   H16       1.0  0.06323000000000002  0.09514  0.87842  1.0000
  C   C1        1.0  0.6805899999999999  0.37741999999999987  0.5538799999999998  1.0000
  C   C2        1.0  0.6845200000000001  0.2817  0.5960599999999998  1.0000
  C   C3        1.0  0.9277  0.662  0.44124  1.0000
  C   C4        1.0  0.9516600000000003  0.5635799999999997  0.40669  1.0000
  C   C5        1.0  0.22145  0.56747  0.20878  1.0000
  C   C6        1.0  0.09887999999999995  0.65214  0.20458  1.0000
  C   C7        1.0  0.5966  0.57409  0.30416999999999994  1.0000
  C   C8        1.0  0.6492399999999998  0.6616  0.30094  1.0000
  C   C9        1.0  0.38507  0.69054  0.10658  1.0000
  C   C10       1.0  0.4696200000000001  0.6123999999999998  0.05474999999999999  1.0000
  C   C11       1.0  0.87944  0.55677  0.10276  1.0000
  C   C12       1.0  0.8333  0.66031  0.07099  1.0000
  C   C13       1.0  0.002830000000000099  0.7872099999999999  0.9254499999999998  1.0000
  C   C14       1.0  0.9156800000000004  0.8787099999999998  0.96256  1.0000
  C   C15       1.0  0.5612800000000001  0.8183999999999998  0.94665  1.0000
  C   C16       1.0  0.51524  0.9161899999999997  0.90548  1.0000
  C   C17       1.0  0.76229  0.81973  0.71389  1.0000
  C   C18       1.0  0.8205199999999999  0.9029299999999999  0.71747  1.0000
  C   C19       1.0  0.3073099999999999  0.8335999999999999  0.79912  1.0000
  C   C20       1.0  0.17954000000000012  0.9163699999999998  0.80327  1.0000
  C   C21       1.0  0.47760000000000014  0.9506699999999998  0.59637  1.0000
  C   C22       1.0  0.49540999999999996  0.85212  0.56345  1.0000
  C   C23       1.0  0.09668  0.81167  0.603  1.0000
  C   C24       1.0  0.11048000000000013  0.8943999999999998  0.5493099999999997  1.0000
  C   C25       1.0  0.3194  0.6225799999999999  0.4461299999999999  1.0000
  C   C26       1.0  0.31547  0.71829  0.4039399999999999  1.0000
  C   C27       1.0  0.07228999999999998  0.338  0.55876  1.0000
  C   C28       1.0  0.04834000000000004  0.43642  0.5933199999999997  1.0000
  C   C29       1.0  0.77855  0.43253  0.7912299999999998  1.0000
  C   C30       1.0  0.90113  0.34786  0.7954199999999999  1.0000
  C   C31       1.0  0.40340000000000004  0.4259199999999999  0.69583  1.0000
  C   C32       1.0  0.35076  0.3384  0.69906  1.0000
  C   C33       1.0  0.61493  0.30946  0.89342  1.0000
  C   C34       1.0  0.53039  0.3876  0.9452599999999999  1.0000
  C   C35       1.0  0.12056000000000001  0.4432299999999999  0.89724  1.0000
  C   C36       1.0  0.1667  0.33969  0.92902  1.0000
  C   C37       1.0  0.99717  0.21278999999999995  0.07455  1.0000
  C   C38       1.0  0.08433000000000003  0.12129  0.03744999999999998  1.0000
  C   C39       1.0  0.43872  0.1816  0.05336  1.0000
  C   C40       1.0  0.48474999999999996  0.08380999999999998  0.09451999999999998  1.0000
  C   C41       1.0  0.23771  0.18026999999999999  0.28611  1.0000
  C   C42       1.0  0.17947999999999983  0.09707  0.28253  1.0000
  C   C43       1.0  0.6926899999999999  0.16639999999999994  0.20088  1.0000
  C   C44       1.0  0.8204499999999999  0.08362999999999998  0.19673  1.0000
  C   C45       1.0  0.52241  0.049330000000000006  0.40362999999999993  1.0000
  C   C46       1.0  0.50459  0.14788  0.43655999999999995  1.0000
  C   C47       1.0  0.90332  0.18833  0.397  1.0000
  C   C48       1.0  0.8895099999999998  0.1056  0.45069  1.0000
  O   O1        1.0  0.75144  0.4257799999999999  0.575  1.0000
  O   O2        1.0  0.61126  0.40699  0.50434  1.0000
  O   O3        1.0  0.7627399999999999  0.26329  0.64786  1.0000
  O   O4        1.0  0.6184300000000001  0.23230999999999993  0.58194  1.0000
  O   O5        1.0  0.003020000000000027  0.71244  0.41459999999999997  1.0000
  O   O6        1.0  0.8384000000000005  0.69011  0.49105  1.0000
  O   O7        1.0  0.05127000000000003  0.5425599999999999  0.35674  1.0000
  O   O8        1.0  0.87966  0.5136899999999999  0.42594  1.0000
  O   O9        1.0  0.27215  0.55922  0.26890999999999987  1.0000
  O   O10       1.0  0.2690999999999999  0.51347  0.15584  1.0000
  O   O11       1.0  0.06633000000000004  0.7055299999999998  0.26149  1.0000
  O   O12       1.0  0.04321999999999995  0.66727  0.14901  1.0000
  O   O13       1.0  0.57032  0.54911  0.24342  1.0000
  O   O14       1.0  0.5822200000000001  0.5332499999999998  0.36469  1.0000
  O   O15       1.0  0.6615200000000001  0.6988499999999997  0.23642999999999997  1.0000
  O   O16       1.0  0.67577  0.6894199999999999  0.35711  1.0000
  O   O17       1.0  0.4428199999999999  0.71309  0.15656999999999996  1.0000
  O   O18       1.0  0.26901000000000014  0.7293799999999998  0.09792999999999998  1.0000
  O   O19       1.0  0.58246  0.5688499999999999  0.07524  1.0000
  O   O20       1.0  0.42566000000000004  0.59756  0.9996399999999999  1.0000
  O   O21       1.0  0.7946499999999999  0.5321999999999999  0.14877  1.0000
  O   O22       1.0  0.9862300000000002  0.5003599999999999  0.08  1.0000
  O   O23       1.0  0.7133200000000001  0.7041599999999999  0.09030999999999997  1.0000
  O   O24       1.0  0.90987  0.6918099999999999  0.029  1.0000
  O   O25       1.0  0.9534  0.7572399999999999  0.87608  1.0000
  O   O26       1.0  0.11389999999999997  0.74999  0.94448  1.0000
  O   O27       1.0  0.80554  0.9147799999999998  0.93797  1.0000
  O   O28       1.0  0.95219  0.91728  0.01076  1.0000
  O   O29       1.0  0.67959  0.76889  0.92703  1.0000
  O   O30       1.0  0.4845699999999998  0.79237  0.99258  1.0000
  O   O31       1.0  0.6049499999999999  0.93509  0.85848  1.0000
  O   O32       1.0  0.4023900000000003  0.9677999999999998  0.9165899999999999  1.0000
  O   O33       1.0  0.8481300000000003  0.9162899999999999  0.7810199999999998  1.0000
  O   O34       1.0  0.8372700000000001  0.9536  0.66222  1.0000
  O   O35       1.0  0.7454500000000003  0.7747299999999998  0.77456  1.0000
  O   O36       1.0  0.73443  0.80116  0.65422  1.0000
  O   O37       1.0  0.3653000000000001  0.8145699999999998  0.7338899999999999  1.0000
  O   O38       1.0  0.34915000000000007  0.78789  0.8543799999999999  1.0000
  O   O39       1.0  0.14604  0.95402  0.74066  1.0000
  O   O40       1.0  0.11712000000000015  0.9409499999999997  0.8632299999999998  1.0000
  O   O41       1.0  0.3704100000000001  0.98155  0.6391799999999999  1.0000
  O   O42       1.0  0.5617600000000003  0.9919199999999998  0.5811599999999998  1.0000
  O   O43       1.0  0.4010799999999999  0.8156499999999999  0.58197  1.0000
  O   O44       1.0  0.5952400000000001  0.8115999999999998  0.5236599999999998  1.0000
  O   O45       1.0  0.1705900000000001  0.7961199999999998  0.65478  1.0000
  O   O46       1.0  0.017340000000000005  0.76871  0.59525  1.0000
  O   O47       1.0  0.16466000000000003  0.9532799999999999  0.5745099999999999  1.0000
  O   O48       1.0  0.06959000000000003  0.90309  0.48930999999999997  1.0000
  O   O49       1.0  0.26547  0.3799799999999999  0.34349  1.0000
  O   O50       1.0  0.53381  0.37207  0.3632  1.0000
  O   O51       1.0  0.30957000000000007  0.9020999999999999  0.15645999999999993  1.0000
  O   O52       1.0  0.98687  0.8611899999999999  0.15621  1.0000
  O   O53       1.0  0.24856  0.57423  0.4250199999999999  1.0000
  O   O54       1.0  0.38875000000000004  0.5930099999999999  0.49566999999999994  1.0000
  O   O55       1.0  0.23726000000000008  0.7366999999999999  0.35214  1.0000
  O   O56       1.0  0.3815700000000001  0.76769  0.41807  1.0000
  O   O57       1.0  0.9969699999999999  0.28756999999999994  0.5854099999999998  1.0000
  O   O58       1.0  0.1616  0.30989  0.50895  1.0000
  O   O59       1.0  0.94873  0.45743999999999996  0.64326  1.0000
  O   O60       1.0  0.12033000000000002  0.48631  0.57406  1.0000
  O   O61       1.0  0.72785  0.44077  0.7310999999999999  1.0000
  O   O62       1.0  0.7309099999999998  0.48653  0.84417  1.0000
  O   O63       1.0  0.9336800000000001  0.29447  0.7385199999999997  1.0000
  O   O64       1.0  0.9567899999999999  0.3327300000000001  0.8509999999999998  1.0000
  O   O65       1.0  0.4296800000000001  0.45089  0.7565799999999998  1.0000
  O   O66       1.0  0.41777999999999976  0.4667499999999999  0.63531  1.0000
  O   O67       1.0  0.33848  0.30115  0.76358  1.0000
  O   O68       1.0  0.32422999999999996  0.31058  0.6428899999999997  1.0000
  O   O69       1.0  0.5571800000000002  0.2869099999999999  0.84343  1.0000
  O   O70       1.0  0.7309899999999999  0.27062  0.9020699999999998  1.0000
  O   O71       1.0  0.41754  0.43115  0.9247699999999999  1.0000
  O   O72       1.0  0.5743399999999999  0.40244  0.0003599999999999999  1.0000
  O   O73       1.0  0.20535  0.4678  0.85124  1.0000
  O   O74       1.0  0.01378000000000005  0.49964  0.92  1.0000
  O   O75       1.0  0.28668  0.29584  0.9096899999999999  1.0000
  O   O76       1.0  0.09012999999999997  0.30819  0.971  1.0000
  O   O77       1.0  0.04660000000000002  0.24276  0.12391999999999999  1.0000
  O   O78       1.0  0.8861  0.25001  0.05552999999999999  1.0000
  O   O79       1.0  0.19446  0.08521999999999999  0.062039999999999984  1.0000
  O   O80       1.0  0.04781000000000003  0.08272  0.9892499999999999  1.0000
  O   O81       1.0  0.32041000000000003  0.23110999999999995  0.07297  1.0000
  O   O82       1.0  0.51543  0.20763  0.00742  1.0000
  O   O83       1.0  0.39505  0.06492  0.14153  1.0000
  O   O84       1.0  0.59761  0.0322  0.08340999999999997  1.0000
  O   O85       1.0  0.15187  0.08370999999999998  0.21899  1.0000
  O   O86       1.0  0.16272999999999999  0.04639999999999998  0.33778  1.0000
  O   O87       1.0  0.25455000000000005  0.22526999999999994  0.22544  1.0000
  O   O88       1.0  0.26557000000000003  0.19883999999999996  0.34579  1.0000
  O   O89       1.0  0.6346999999999998  0.18543  0.26612  1.0000
  O   O90       1.0  0.65084  0.21210999999999997  0.14562  1.0000
  O   O91       1.0  0.8539599999999999  0.04598  0.25934  1.0000
  O   O92       1.0  0.88288  0.05905  0.13676999999999997  1.0000
  O   O93       1.0  0.62959  0.018449999999999994  0.36083  1.0000
  O   O94       1.0  0.4382400000000001  0.008070000000000006  0.4188399999999999  1.0000
  O   O95       1.0  0.5989199999999999  0.18435  0.41804  1.0000
  O   O96       1.0  0.40475  0.1884  0.47634999999999994  1.0000
  O   O97       1.0  0.8294100000000002  0.20387999999999995  0.34522999999999987  1.0000
  O   O98       1.0  0.9826699999999998  0.23129  0.40475  1.0000
  O   O99       1.0  0.83534  0.04671999999999999  0.42548999999999987  1.0000
  O   O100      1.0  0.93041  0.09690999999999997  0.5107  1.0000
  O   O101      1.0  0.73453  0.62002  0.65651  1.0000
  O   O102      1.0  0.46619000000000005  0.62793  0.6368099999999998  1.0000
  O   O103      1.0  0.69043  0.0979  0.84355  1.0000
  O   O104      1.0  0.013130000000000015  0.13881  0.84379  1.0000
