data_image0
_chemical_formula_structural       Al8H56C72O48
_chemical_formula_sum              "Al8 H56 C72 O48"
_cell_length_a       10.23931
_cell_length_b       16.01598
_cell_length_c       16.0318
_cell_angle_alpha    84.12173999999999
_cell_angle_beta     71.342
_cell_angle_gamma    71.34063000000002

_space_group_name_H-M_alt    "P 1"
_space_group_IT_number       1

loop_
  _space_group_symop_operation_xyz
  'x, y, z'

loop_
  _atom_site_type_symbol
  _atom_site_label
  _atom_site_symmetry_multiplicity
  _atom_site_fract_x
  _atom_site_fract_y
  _atom_site_fract_z
  _atom_site_occupancy
  Al  Al1       1.0  0.3361200000000001  0.9204999999999998  0.56006  1.0000
  Al  Al2       1.0  0.81636  0.07996  0.44001  1.0000
  Al  Al3       1.0  0.006270000000000102  0.06008  0.5798599999999998  1.0000
  Al  Al4       1.0  0.6461500000000002  0.94045  0.4202399999999999  1.0000
  Al  Al5       1.0  0.41340000000000016  0.5799699999999999  0.9397899999999998  1.0000
  Al  Al6       1.0  0.93421  0.42013  0.05968  1.0000
  Al  Al7       1.0  0.7439800000000002  0.44004  0.91998  1.0000
  Al  Al8       1.0  0.1032  0.56034  0.07976  1.0000
  H   H1        1.0  0.5176300000000001  0.36503  0.2846799999999999  1.0000
  H   H2        1.0  0.5287799999999999  0.37931  0.39113  1.0000
  H   H3        1.0  0.3805100000000001  0.4510499999999999  0.3560699999999999  1.0000
  H   H4        1.0  0.4333100000000001  0.03611  0.7228899999999998  1.0000
  H   H5        1.0  0.012190000000000114  0.22913  0.7689199999999998  1.0000
  H   H6        1.0  0.29893999999999993  0.24839  0.90712  1.0000
  H   H7        1.0  0.73252  0.53049  0.0274  1.0000
  H   H8        1.0  0.16698000000000016  0.6359499999999998  0.71498  1.0000
  H   H9        1.0  0.29933  0.62133  0.60878  1.0000
  H   H10       1.0  0.18811999999999995  0.54935  0.64396  1.0000
  H   H11       1.0  0.19361000000000014  0.9634299999999998  0.27795  1.0000
  H   H12       1.0  0.00844000000000001  0.77293  0.23025  1.0000
  H   H13       1.0  0.45403000000000016  0.7519699999999998  0.09255  1.0000
  H   H14       1.0  0.29038000000000025  0.46927  0.97311  1.0000
  H   H15       1.0  0.6319700000000001  0.78447  0.13556  1.0000
  H   H16       1.0  0.65847  0.89076  0.12071999999999997  1.0000
  H   H17       1.0  0.5819  0.85563  0.049229999999999996  1.0000
  H   H18       1.0  0.22075999999999996  0.22255999999999995  0.46329  1.0000
  H   H19       1.0  0.99031  0.2692499999999999  0.27173  1.0000
  H   H20       1.0  0.29602999999999996  0.40813  0.25202  1.0000
  H   H21       1.0  0.013540000000000009  0.52712  0.96884  1.0000
  H   H22       1.0  0.5525300000000002  0.21479999999999994  0.86422  1.0000
  H   H23       1.0  0.6704500000000001  0.10847  0.87868  1.0000
  H   H24       1.0  0.48705000000000004  0.14354  0.95047  1.0000
  H   H25       1.0  0.9070700000000003  0.7774599999999998  0.5364299999999999  1.0000
  H   H26       1.0  0.5311500000000006  0.73093  0.72787  1.0000
  H   H27       1.0  0.9557800000000001  0.59283  0.74846  1.0000
  H   H28       1.0  0.50915  0.47249  0.03008  1.0000
  H   H29       1.0  0.23315000000000002  0.13568  0.21465  1.0000
  H   H30       1.0  0.22186  0.12104  0.10852  1.0000
  H   H31       1.0  0.37008  0.049239999999999985  0.14368  1.0000
  H   H32       1.0  0.31526  0.46356999999999987  0.77738  1.0000
  H   H33       1.0  0.73752  0.2713799999999999  0.73081  1.0000
  H   H34       1.0  0.45106000000000007  0.25187  0.5924399999999997  1.0000
  H   H35       1.0  0.018830000000000117  0.96939  0.47271  1.0000
  H   H36       1.0  0.5819700000000002  0.8643999999999997  0.78499  1.0000
  H   H37       1.0  0.44950000000000023  0.8789499999999998  0.8911099999999997  1.0000
  H   H38       1.0  0.5609799999999999  0.95074  0.85604  1.0000
  H   H39       1.0  0.5563500000000002  0.5366  0.22244999999999998  1.0000
  H   H40       1.0  0.7403600000000001  0.7279499999999998  0.26975  1.0000
  H   H41       1.0  0.29511999999999994  0.7483  0.40759  1.0000
  H   H42       1.0  0.4601900000000001  0.030639999999999994  0.52736  1.0000
  H   H43       1.0  0.1177000000000001  0.7154099999999998  0.36434  1.0000
  H   H44       1.0  0.09132000000000004  0.6090799999999998  0.3792299999999999  1.0000
  H   H45       1.0  0.1678900000000001  0.6443099999999998  0.4508  1.0000
  H   H46       1.0  0.53112  0.27729  0.03583  1.0000
  H   H47       1.0  0.75981  0.23097  0.22824999999999998  1.0000
  H   H48       1.0  0.45314000000000004  0.09293999999999997  0.24798  1.0000
  H   H49       1.0  0.7372500000000001  0.9729499999999998  0.53042  1.0000
  H   H50       1.0  0.19731  0.28499  0.63527  1.0000
  H   H51       1.0  0.07913000000000014  0.39139  0.6210099999999997  1.0000
  H   H52       1.0  0.2624400000000003  0.3563699999999999  0.5490899999999997  1.0000
  H   H53       1.0  0.84246  0.72237  0.9634299999999999  1.0000
  H   H54       1.0  0.21760000000000004  0.76959  0.7717299999999998  1.0000
  H   H55       1.0  0.7922800000000002  0.90749  0.75201  1.0000
  H   H56       1.0  0.24038  0.02752  0.46956  1.0000
  C   C1        1.0  0.14696999999999996  0.24605  0.84164  1.0000
  C   C2        1.0  0.3538500000000001  0.09567999999999997  0.75558  1.0000
  C   C3        1.0  0.033470000000000145  0.32306  0.8925799999999998  1.0000
  C   C4        1.0  0.5584200000000001  0.14609999999999998  0.8831699999999998  1.0000
  C   C5        1.0  0.28076999999999996  0.21427  0.85878  1.0000
  C   C6        1.0  0.11613000000000015  0.20385999999999996  0.7814199999999998  1.0000
  C   C7        1.0  0.19097000000000006  0.07606  0.67849  1.0000
  C   C8        1.0  0.21984000000000006  0.127  0.7398  1.0000
  C   C9        1.0  0.38603999999999994  0.13999  0.81368  1.0000
  C   C10       1.0  0.23364  0.75467  0.15782  1.0000
  C   C11       1.0  0.20539000000000007  0.9044399999999998  0.24469  1.0000
  C   C12       1.0  0.24728999999999998  0.67771  0.1069  1.0000
  C   C13       1.0  0.58831  0.8532  0.11657  1.0000
  C   C14       1.0  0.35322000000000014  0.7860999999999998  0.14085  1.0000
  C   C15       1.0  0.10049000000000001  0.79728  0.21802  1.0000
  C   C16       1.0  0.9450500000000001  0.9247099999999998  0.3211499999999999  1.0000
  C   C17       1.0  0.08635000000000002  0.8737399999999999  0.25999  1.0000
  C   C18       1.0  0.33977  0.8600199999999999  0.18629  1.0000
  C   C19       1.0  0.14207  0.34212  0.25423  1.0000
  C   C20       1.0  0.19971  0.25561  0.4041599999999999  1.0000
  C   C21       1.0  0.10503999999999997  0.39293  0.17724  1.0000
  C   C22       1.0  0.45464000000000004  0.38369  0.35338  1.0000
  C   C23       1.0  0.24410000000000007  0.35947  0.2858799999999999  1.0000
  C   C24       1.0  0.06939  0.2817  0.29658  1.0000
  C   C25       1.0  0.016110000000000006  0.17888  0.42448  1.0000
  C   C26       1.0  0.09648000000000004  0.23993999999999993  0.3732899999999999  1.0000
  C   C27       1.0  0.27600000000000013  0.31388  0.35971  1.0000
  C   C28       1.0  0.73824  0.65817  0.7455999999999998  1.0000
  C   C29       1.0  0.85979  0.74465  0.59572  1.0000
  C   C30       1.0  0.6750900000000001  0.6072399999999998  0.82255  1.0000
  C   C31       1.0  0.19186000000000022  0.6167899999999997  0.6464099999999998  1.0000
  C   C32       1.0  0.8893299999999997  0.64111  0.71419  1.0000
  C   C33       1.0  0.6476100000000001  0.7184899999999999  0.70314  1.0000
  C   C34       1.0  0.6199100000000001  0.8217099999999998  0.57556  1.0000
  C   C35       1.0  0.7099400000000001  0.7604099999999998  0.62666  1.0000
  C   C36       1.0  0.9498300000000001  0.6863099999999998  0.64009  1.0000
  C   C37       1.0  0.60317  0.2543  0.65794  1.0000
  C   C38       1.0  0.3953700000000001  0.40422  0.7445799999999998  1.0000
  C   C39       1.0  0.71747  0.17738999999999994  0.6071  1.0000
  C   C40       1.0  0.19119999999999998  0.35375  0.61646  1.0000
  C   C41       1.0  0.46928000000000003  0.28596999999999995  0.64078  1.0000
  C   C42       1.0  0.6334900000000001  0.29644  0.71842  1.0000
  C   C43       1.0  0.5590800000000002  0.4239499999999999  0.8214699999999998  1.0000
  C   C44       1.0  0.52952  0.3730499999999999  0.76036  1.0000
  C   C45       1.0  0.36352000000000023  0.36002  0.68616  1.0000
  C   C46       1.0  0.51549  0.7456699999999999  0.34239  1.0000
  C   C47       1.0  0.5442100000000001  0.5957999999999998  0.25551  1.0000
  C   C48       1.0  0.50142  0.8225  0.3936999999999999  1.0000
  C   C49       1.0  0.16129999999999997  0.6467399999999998  0.3835  1.0000
  C   C50       1.0  0.39598000000000005  0.7141499999999997  0.35932  1.0000
  C   C51       1.0  0.64861  0.70331  0.28196  1.0000
  C   C52       1.0  0.8044200000000001  0.57603  0.17837  1.0000
  C   C53       1.0  0.66303  0.6268  0.23986  1.0000
  C   C54       1.0  0.40971  0.6401299999999998  0.31391  1.0000
  C   C55       1.0  0.60782  0.15837  0.24557999999999994  1.0000
  C   C56       1.0  0.5512  0.24453  0.09528  1.0000
  C   C57       1.0  0.6447  0.10740999999999998  0.32255  1.0000
  C   C58       1.0  0.2962500000000001  0.11664  0.14606  1.0000
  C   C59       1.0  0.50564  0.14128  0.21392  1.0000
  C   C60       1.0  0.68096  0.21853999999999996  0.20317999999999994  1.0000
  C   C61       1.0  0.7343900000000001  0.3212299999999999  0.07534  1.0000
  C   C62       1.0  0.6541200000000001  0.26018  0.1264  1.0000
  C   C63       1.0  0.47464000000000006  0.18643  0.13971  1.0000
  C   C64       1.0  0.010350000000000092  0.8422999999999998  0.75432  1.0000
  C   C65       1.0  0.8894100000000003  0.75536  0.9041699999999998  1.0000
  C   C66       1.0  0.07339000000000032  0.8934799999999998  0.6775499999999998  1.0000
  C   C67       1.0  0.55713  0.88332  0.8536199999999998  1.0000
  C   C68       1.0  0.8592799999999998  0.85917  0.7859299999999999  1.0000
  C   C69       1.0  0.10118000000000023  0.7819199999999997  0.79657  1.0000
  C   C70       1.0  0.12996000000000013  0.67858  0.9237499999999997  1.0000
  C   C71       1.0  0.039220000000000185  0.73985  0.8730399999999998  1.0000
  C   C72       1.0  0.7991100000000003  0.8136999999999998  0.8599299999999998  1.0000
  O   O1        1.0  0.04478000000000007  0.3375399999999999  0.96654  1.0000
  O   O2        1.0  0.28443  0.0007299999999999997  0.65485  1.0000
  O   O3        1.0  0.07820999999999999  0.11048  0.65397  1.0000
  O   O4        1.0  0.9331300000000001  0.36697  0.85967  1.0000
  O   O5        1.0  0.19160000000000005  0.99174  0.51323  1.0000
  O   O6        1.0  0.5218900000000001  0.10465999999999998  0.82172  1.0000
  O   O7        1.0  0.34687  0.66298  0.03284  1.0000
  O   O8        1.0  0.93933  2.0000000000000005e-05  0.34474  1.0000
  O   O9        1.0  0.8420300000000001  0.89044  0.34560999999999986  1.0000
  O   O10       1.0  0.15781  0.63389  0.13985  1.0000
  O   O11       1.0  0.69598  0.00879  0.48694  1.0000
  O   O12       1.0  0.44892  0.8948999999999999  0.17821999999999993  1.0000
  O   O13       1.0  0.13009000000000012  0.46711999999999987  0.16258999999999996  1.0000
  O   O14       1.0  0.03410000000000006  0.15517999999999996  0.4997  1.0000
  O   O15       1.0  0.9371100000000001  0.15465  0.39044  1.0000
  O   O16       1.0  0.049020000000000064  0.3597499999999999  0.13331  1.0000
  O   O17       1.0  0.9338700000000001  0.01315  0.5081  1.0000
  O   O18       1.0  0.37724000000000013  0.3217299999999999  0.39452  1.0000
  O   O19       1.0  0.7603300000000007  0.5333899999999998  0.83743  1.0000
  O   O20       1.0  0.6898800000000003  0.8456399999999997  0.50063  1.0000
  O   O21       1.0  0.4824400000000002  0.8457299999999998  0.60935  1.0000
  O   O22       1.0  0.5415600000000003  0.63997  0.86622  1.0000
  O   O23       1.0  0.45470000000000005  0.98706  0.49168  1.0000
  O   O24       1.0  0.09382000000000018  0.67823  0.6048899999999998  1.0000
  O   O25       1.0  0.7063900000000002  0.16232999999999995  0.5333399999999998  1.0000
  O   O26       1.0  0.46598  0.49931  0.84514  1.0000
  O   O27       1.0  0.6722700000000001  0.38969  0.84566  1.0000
  O   O28       1.0  0.81835  0.13398  0.63981  1.0000
  O   O29       1.0  0.5582299999999999  0.50828  0.9865999999999998  1.0000
  O   O30       1.0  0.22756000000000012  0.39517999999999986  0.67809  1.0000
  O   O31       1.0  0.4009900000000001  0.8373599999999998  0.4673299999999999  1.0000
  O   O32       1.0  0.81078  0.50056  0.15468  1.0000
  O   O33       1.0  0.90707  0.61065  0.15396999999999997  1.0000
  O   O34       1.0  0.5911999999999998  0.8662  0.3616  1.0000
  O   O35       1.0  0.053310000000000066  0.49186999999999986  0.01316  1.0000
  O   O36       1.0  0.30073  0.6051  0.32195  1.0000
  O   O37       1.0  0.61805  0.033629999999999986  0.33759  1.0000
  O   O38       1.0  0.7173200000000001  0.3444399999999999  0.99981  1.0000
  O   O39       1.0  0.81243  0.3459  0.1098  1.0000
  O   O40       1.0  0.70188  0.14007  0.36612  1.0000
  O   O41       1.0  0.8169300000000004  0.4868099999999999  0.9914799999999998  1.0000
  O   O42       1.0  0.37428  0.17813  0.10446  1.0000
  O   O43       1.0  0.9877100000000002  0.9671799999999998  0.6626899999999998  1.0000
  O   O44       1.0  0.0605500000000001  0.65532  0.9992999999999999  1.0000
  O   O45       1.0  0.2672700000000001  0.65395  0.8889899999999997  1.0000
  O   O46       1.0  0.20703000000000002  0.86127  0.63402  1.0000
  O   O47       1.0  0.29475  0.51354  0.00847  1.0000
  O   O48       1.0  0.6551100000000001  0.82169  0.89509  1.0000
