data_image0
_chemical_formula_structural       Cd8H48C64N44O8
_chemical_formula_sum              "Cd8 H48 C64 N44 O8"
_cell_length_a       11.49361
_cell_length_b       15.39765
_cell_length_c       22.52739
_cell_angle_alpha    90.08748999999999
_cell_angle_beta     90.02126000000001
_cell_angle_gamma    103.93762

_space_group_name_H-M_alt    "P 1"
_space_group_IT_number       1

loop_
  _space_group_symop_operation_xyz
  'x, y, z'

loop_
  _atom_site_type_symbol
  _atom_site_label
  _atom_site_symmetry_multiplicity
  _atom_site_fract_x
  _atom_site_fract_y
  _atom_site_fract_z
  _atom_site_occupancy
  Cd  Cd1       1.0  0.07208  0.80527  0.9961100000000002  1.0000
  Cd  Cd2       1.0  0.45932  0.04211999999999999  0.82561  1.0000
  Cd  Cd3       1.0  0.43215  0.7005899999999998  0.49729  1.0000
  Cd  Cd4       1.0  0.04476999999999998  0.45925999999999995  0.32471  1.0000
  Cd  Cd5       1.0  0.0033100000000000117  0.99329  0.9954900000000001  1.0000
  Cd  Cd6       1.0  0.5474399999999999  0.9582799999999999  0.1724  1.0000
  Cd  Cd7       1.0  0.50146  0.51386  0.49483000000000005  1.0000
  Cd  Cd8       1.0  0.9552199999999998  0.5414  0.67016  1.0000
  H   H1        1.0  0.37927999999999995  0.19334  0.23382000000000003  1.0000
  H   H2        1.0  0.47151999999999994  0.1231  0.21114  1.0000
  H   H3        1.0  0.09804000000000002  0.90003  0.67683  1.0000
  H   H4        1.0  0.20721999999999996  0.6195  0.7281099999999999  1.0000
  H   H5        1.0  0.31565999999999994  0.13107  0.7293600000000001  1.0000
  H   H6        1.0  0.2863299999999999  0.2341  0.7114199999999999  1.0000
  H   H7        1.0  0.43474  0.90554  0.04203  1.0000
  H   H8        1.0  0.3517  0.76537  0.7511300000000001  1.0000
  H   H9        1.0  0.06614  0.14633  0.10663  1.0000
  H   H10       1.0  0.26576999999999995  0.9742  0.9308000000000001  1.0000
  H   H11       1.0  0.9971199999999998  0.26686  0.83615  1.0000
  H   H12       1.0  0.9566100000000001  0.7485  0.6617  1.0000
  H   H13       1.0  0.12691  0.3089  0.7318000000000001  1.0000
  H   H14       1.0  0.03341999999999998  0.37752  0.7083  1.0000
  H   H15       1.0  0.4043399999999999  0.60042  0.17633  1.0000
  H   H16       1.0  0.29408  0.87994  0.22979  1.0000
  H   H17       1.0  0.19093999999999997  0.37152  0.22801  1.0000
  H   H18       1.0  0.21943999999999994  0.26735  0.21229  1.0000
  H   H19       1.0  0.06804  0.59416  0.53949  1.0000
  H   H20       1.0  0.14876999999999999  0.73361  0.25048  1.0000
  H   H21       1.0  0.44119999999999987  0.35772  0.6051  1.0000
  H   H22       1.0  0.24287999999999987  0.5369199999999997  0.427  1.0000
  H   H23       1.0  0.50817  0.23846  0.33851  1.0000
  H   H24       1.0  0.54538  0.75216  0.16242  1.0000
  H   H25       1.0  0.60936  0.79795  0.76583  1.0000
  H   H26       1.0  0.52467  0.87433  0.7875600000000001  1.0000
  H   H27       1.0  0.9088899999999998  0.09972  0.31406  1.0000
  H   H28       1.0  0.78419  0.37975  0.28046  1.0000
  H   H29       1.0  0.68912  0.87126  0.26515  1.0000
  H   H30       1.0  0.7257499999999999  0.77044  0.28298  1.0000
  H   H31       1.0  0.59015  0.10213  0.95174  1.0000
  H   H32       1.0  0.6399799999999999  0.23393  0.25721  1.0000
  H   H33       1.0  0.9237999999999997  0.83347  0.8906  1.0000
  H   H34       1.0  0.7378899999999999  0.03063  0.06395  1.0000
  H   H35       1.0  0.026330000000000003  0.75175  0.16143  1.0000
  H   H36       1.0  0.048329999999999984  0.25174  0.33  1.0000
  H   H37       1.0  0.89078  0.70024  0.26186  1.0000
  H   H38       1.0  0.97432  0.62293  0.28276  1.0000
  H   H39       1.0  0.60166  0.40068  0.81619  1.0000
  H   H40       1.0  0.7174999999999998  0.11892  0.7757899999999999  1.0000
  H   H41       1.0  0.8149499999999998  0.6286  0.76585  1.0000
  H   H42       1.0  0.77624  0.7279  0.78608  1.0000
  H   H43       1.0  0.9171199999999998  0.40384  0.45231  1.0000
  H   H44       1.0  0.8621999999999997  0.264  0.7516  1.0000
  H   H45       1.0  0.57946  0.66814  0.38793  1.0000
  H   H46       1.0  0.76628  0.47881  0.56022  1.0000
  H   H47       1.0  0.47441999999999995  0.74963  0.66698  1.0000
  H   H48       1.0  0.46036  0.24938  0.8320500000000001  1.0000
  C   C1        1.0  0.31634  0.93448  0.72946  1.0000
  C   C2        1.0  0.12341  0.83873  0.68888  1.0000
  C   C3        1.0  0.23534999999999998  0.84391  0.71493  1.0000
  C   C4        1.0  0.18555  0.68301  0.71816  1.0000
  C   C5        1.0  0.25175999999999993  0.02478  0.07199  1.0000
  C   C6        1.0  0.21335  0.11868  0.83737  1.0000
  C   C7        1.0  0.38515  0.95126  0.06017  1.0000
  C   C8        1.0  0.26628  0.76415  0.72998  1.0000
  C   C9        1.0  0.12115  0.11169  0.87982  1.0000
  C   C10       1.0  0.32209  0.11637  0.1587  1.0000
  C   C11       1.0  0.33701  0.05003  0.11766  1.0000
  C   C12       1.0  0.14509999999999995  0.11891  0.10862  1.0000
  C   C13       1.0  0.21598999999999993  0.17899999999999994  0.7898299999999999  1.0000
  C   C14       1.0  0.23094  0.02142  0.9045500000000001  1.0000
  C   C15       1.0  0.05629999999999998  0.22111999999999998  0.83684  1.0000
  C   C16       1.0  0.04597000000000002  0.75521  0.68001  1.0000
  C   C17       1.0  0.18407  0.56496  0.22600000000000003  1.0000
  C   C18       1.0  0.37826  0.66153  0.18831  1.0000
  C   C19       1.0  0.26546999999999993  0.6559799999999999  0.21349  1.0000
  C   C20       1.0  0.31573  0.81669  0.21897  1.0000
  C   C21       1.0  0.2529  0.47679  0.5699  1.0000
  C   C22       1.0  0.29366  0.38793  0.33642  1.0000
  C   C23       1.0  0.11824999999999998  0.54904  0.55782  1.0000
  C   C24       1.0  0.23445999999999995  0.73537  0.22945000000000002  1.0000
  C   C25       1.0  0.38512  0.39569  0.37936000000000003  1.0000
  C   C26       1.0  0.18348  0.38518  0.65641  1.0000
  C   C27       1.0  0.16753  0.45103  0.61536  1.0000
  C   C28       1.0  0.36144  0.38421  0.60687  1.0000
  C   C29       1.0  0.2904699999999999  0.3256999999999999  0.28986  1.0000
  C   C30       1.0  0.27696999999999994  0.4882299999999999  0.40178  1.0000
  C   C31       1.0  0.44915  0.28430999999999995  0.33837  1.0000
  C   C32       1.0  0.45581  0.74514  0.18044  1.0000
  C   C33       1.0  0.6831  0.06555  0.26961  1.0000
  C   C34       1.0  0.8796199999999998  0.16085  0.30616  1.0000
  C   C35       1.0  0.7638099999999999  0.15568  0.28484  1.0000
  C   C36       1.0  0.8091599999999998  0.31643  0.2864  1.0000
  C   C37       1.0  0.7568599999999999  0.97061  0.92264  1.0000
  C   C38       1.0  0.79871  0.89085  0.15871  1.0000
  C   C39       1.0  0.63377  0.05233  0.9342200000000002  1.0000
  C   C40       1.0  0.7285199999999998  0.23529  0.27472  1.0000
  C   C41       1.0  0.89195  0.90091  0.11675  1.0000
  C   C42       1.0  0.6739399999999999  0.87594  0.83908  1.0000
  C   C43       1.0  0.6676199999999999  0.94608  0.87873  1.0000
  C   C44       1.0  0.84988  0.86648  0.8876099999999999  1.0000
  C   C45       1.0  0.79736  0.82995  0.20586  1.0000
  C   C46       1.0  0.77547  0.98547  0.09069  1.0000
  C   C47       1.0  0.96332  0.79459  0.16039  1.0000
  C   C48       1.0  0.95646  0.24458  0.31518  1.0000
  C   C49       1.0  0.8225399999999998  0.43304999999999993  0.7668500000000001  1.0000
  C   C50       1.0  0.62861  0.33907  0.80656  1.0000
  C   C51       1.0  0.7422499999999997  0.34334  0.78283  1.0000
  C   C52       1.0  0.69432  0.18261  0.7830700000000002  1.0000
  C   C53       1.0  0.74879  0.53357  0.4217  1.0000
  C   C54       1.0  0.70509  0.61311  0.65925  1.0000
  C   C55       1.0  0.8727299999999999  0.45267  0.43407  1.0000
  C   C56       1.0  0.7752899999999999  0.26333  0.77085  1.0000
  C   C57       1.0  0.6119800000000001  0.60523  0.61728  1.0000
  C   C58       1.0  0.8282399999999999  0.6242599999999999  0.33608  1.0000
  C   C59       1.0  0.8363199999999998  0.55603  0.37686  1.0000
  C   C60       1.0  0.6539  0.6356  0.38538  1.0000
  C   C61       1.0  0.70563  0.6713999999999998  0.70798  1.0000
  C   C62       1.0  0.7289  0.52235  0.58859  1.0000
  C   C63       1.0  0.53858  0.70785  0.66423  1.0000
  C   C64       1.0  0.55105  0.25577  0.81572  1.0000
  N   N1        1.0  0.39918999999999993  0.14878  0.20279  1.0000
  N   N2        1.0  0.13286  0.04865  0.92121  1.0000
  N   N3        1.0  0.2835899999999999  0.06081  0.8544899999999999  1.0000
  N   N4        1.0  0.07643999999999998  0.67837  0.69423  1.0000
  N   N5        1.0  0.28332  0.96274  0.03562  1.0000
  N   N6        1.0  0.15271  0.05818  0.06678  1.0000
  N   N7        1.0  0.13721999999999998  0.23189  0.79222  1.0000
  N   N8        1.0  0.22289999999999988  0.15008  0.15252  1.0000
  N   N9        1.0  0.29495  0.18884  0.7436600000000001  1.0000
  N   N10       1.0  0.42357  0.00151  0.10955  1.0000
  N   N11       1.0  0.03941000000000001  0.16158  0.88088  1.0000
  N   N12       1.0  0.10631  0.35235  0.70025  1.0000
  N   N13       1.0  0.37389  0.46055  0.41958  1.0000
  N   N14       1.0  0.22447  0.44733  0.352  1.0000
  N   N15       1.0  0.4251699999999998  0.8217399999999998  0.19535000000000002  1.0000
  N   N16       1.0  0.22062999999999997  0.53833  0.53347  1.0000
  N   N17       1.0  0.35298  0.44452  0.56499  1.0000
  N   N18       1.0  0.3685799999999999  0.27235999999999994  0.2935  1.0000
  N   N19       1.0  0.28359  0.35249  0.65054  1.0000
  N   N20       1.0  0.21162  0.31438  0.24357  1.0000
  N   N21       1.0  0.08006  0.49878  0.60714  1.0000
  N   N22       1.0  0.46607999999999994  0.34523  0.38172  1.0000
  N   N23       1.0  0.5928999999999999  0.84442  0.7964900000000001  1.0000
  N   N24       1.0  0.8766899999999999  0.9619599999999999  0.07468  1.0000
  N   N25       1.0  0.7243899999999998  0.9453  0.14094  1.0000
  N   N26       1.0  0.92206  0.32127  0.30534  1.0000
  N   N27       1.0  0.7347399999999997  0.03753  0.95772  1.0000
  N   N28       1.0  0.8508499999999999  0.9313999999999998  0.9276400000000001  1.0000
  N   N29       1.0  0.88059  0.78052  0.20400000000000001  1.0000
  N   N30       1.0  0.76845  0.83683  0.8450800000000002  1.0000
  N   N31       1.0  0.7158999999999999  0.81583  0.2508  1.0000
  N   N32       1.0  0.5874799999999999  0.99994  0.88667  1.0000
  N   N33       1.0  0.9777099999999999  0.85435  0.11654  1.0000
  N   N34       1.0  0.9073799999999999  0.65388  0.29239  1.0000
  N   N35       1.0  0.62783  0.54674  0.57354  1.0000
  N   N36       1.0  0.77966  0.5596699999999999  0.63977  1.0000
  N   N37       1.0  0.58317  0.17864999999999998  0.8041299999999999  1.0000
  N   N38       1.0  0.77258  0.46849  0.45782  1.0000
  N   N39       1.0  0.6546799999999998  0.57267  0.42647  1.0000
  N   N40       1.0  0.6212699999999998  0.71991  0.70783  1.0000
  N   N41       1.0  0.7338499999999999  0.6635  0.34202  1.0000
  N   N42       1.0  0.78703  0.68414  0.75296  1.0000
  N   N43       1.0  0.9169699999999997  0.5027  0.38534  1.0000
  N   N44       1.0  0.52539  0.651  0.61861  1.0000
  O   O1        1.0  0.4112199999999999  0.93124  0.75992  1.0000
  O   O2        1.0  0.28601  0.00351  0.71409  1.0000
  O   O3        1.0  0.08842  0.56649  0.25634  1.0000
  O   O4        1.0  0.21556999999999996  0.49719999999999986  0.2089  1.0000
  O   O5        1.0  0.58966  0.06902  0.23802  1.0000
  O   O6        1.0  0.71281  0.99637  0.28536  1.0000
  O   O7        1.0  0.91447  0.42895  0.73443  1.0000
  O   O8        1.0  0.79408  0.50275  0.78252  1.0000
