data_image0
_chemical_formula_structural       Ni4H66C96N8O20
_chemical_formula_sum              "Ni4 H66 C96 N8 O20"
_cell_length_a       11.29408
_cell_length_b       12.82388
_cell_length_c       18.48255
_cell_angle_alpha    92.07909
_cell_angle_beta     100.11933
_cell_angle_gamma    104.50378999999998

_space_group_name_H-M_alt    "P 1"
_space_group_IT_number       1

loop_
  _space_group_symop_operation_xyz
  'x, y, z'

loop_
  _atom_site_type_symbol
  _atom_site_label
  _atom_site_symmetry_multiplicity
  _atom_site_fract_x
  _atom_site_fract_y
  _atom_site_fract_z
  _atom_site_occupancy
  Ni  Ni1       1.0  0.05634999999999996  0.60993  0.9290799999999999  1.0000
  Ni  Ni2       1.0  0.9419100000000001  0.38754  0.07047  1.0000
  Ni  Ni3       1.0  0.50246  0.49991  0.50103  1.0000
  Ni  Ni4       1.0  0.5082000000000001  0.008290000000000006  0.99882  1.0000
  H   H1        1.0  0.88441  0.25687  0.42841  1.0000
  H   H2        1.0  0.65272  0.05877  0.33255  1.0000
  H   H3        1.0  0.44637  0.92769  0.29199  1.0000
  H   H4        1.0  0.30441000000000007  0.07107999999999999  0.46070999999999995  1.0000
  H   H5        1.0  0.5149800000000001  0.20106  0.50419  1.0000
  H   H6        1.0  0.24717999999999998  0.98251  0.22096  1.0000
  H   H7        1.0  0.17026  0.85417  0.10618  1.0000
  H   H8        1.0  0.07672999999999996  0.58836  0.23860999999999993  1.0000
  H   H9        1.0  0.16710999999999995  0.7155299999999999  0.3543199999999999  1.0000
  H   H10       1.0  0.91151  0.70479  0.02523  1.0000
  H   H11       1.0  0.69447  0.6988099999999999  0.03066  1.0000
  H   H12       1.0  0.5869300000000001  0.50947  0.81948  1.0000
  H   H13       1.0  0.8098400000000001  0.51807  0.8262199999999998  1.0000
  H   H14       1.0  0.12340000000000002  0.95264  0.83104  1.0000
  H   H15       1.0  0.08517000000000002  0.07063  0.72844  1.0000
  H   H16       1.0  0.87819  0.7886299999999998  0.58513  1.0000
  H   H17       1.0  0.9215400000000002  0.6707299999999999  0.68742  1.0000
  H   H18       1.0  0.19911000000000006  0.002379999999999999  0.60807  1.0000
  H   H19       1.0  0.36550999999999984  0.16218999999999997  0.5875099999999998  1.0000
  H   H20       1.0  0.09136000000000002  0.33981  0.53072  1.0000
  H   H21       1.0  0.92535  0.18218  0.55786  1.0000
  H   H22       1.0  0.7001900000000001  0.64398  0.61973  1.0000
  H   H23       1.0  0.71522  0.7574099999999999  0.73276  1.0000
  H   H24       1.0  0.3118299999999999  0.6482299999999998  0.7013599999999998  1.0000
  H   H25       1.0  0.31620999999999994  0.5446299999999998  0.5876499999999998  1.0000
  H   H26       1.0  0.71612  0.82739  0.8357  1.0000
  H   H27       1.0  0.7090000000000001  0.94273  0.9428699999999999  1.0000
  H   H28       1.0  0.31998999999999994  0.8722699999999998  0.8898399999999999  1.0000
  H   H29       1.0  0.31300000000000006  0.7627299999999999  0.77825  1.0000
  H   H30       1.0  0.40041000000000004  0.4845799999999999  0.8304  1.0000
  H   H31       1.0  0.5270800000000001  0.7171099999999999  0.02174  1.0000
  H   H32       1.0  0.18486999999999987  0.49277999999999983  0.8367899999999998  1.0000
  H   H33       1.0  0.30676999999999993  0.7124799999999998  0.01992  1.0000
  H   H34       1.0  0.1147099999999999  0.73783  0.5721499999999998  1.0000
  H   H35       1.0  0.34604  0.93704  0.66768  1.0000
  H   H36       1.0  0.5521  0.06905  0.70725  1.0000
  H   H37       1.0  0.6934100000000001  0.92524  0.53863  1.0000
  H   H38       1.0  0.4826399999999999  0.79495  0.49535999999999997  1.0000
  H   H39       1.0  0.75044  0.013599999999999978  0.7772499999999998  1.0000
  H   H40       1.0  0.8252600000000001  0.14077999999999993  0.89224  1.0000
  H   H41       1.0  0.91902  0.40818  0.76105  1.0000
  H   H42       1.0  0.8299800000000002  0.28192999999999996  0.6449299999999998  1.0000
  H   H43       1.0  0.08384999999999998  0.2930799999999999  0.97155  1.0000
  H   H44       1.0  0.30058999999999997  0.30156  0.96391  1.0000
  H   H45       1.0  0.41033  0.4866  0.17673999999999998  1.0000
  H   H46       1.0  0.18743  0.47669  0.17176  1.0000
  H   H47       1.0  0.8768100000000001  0.04399  0.16906  1.0000
  H   H48       1.0  0.9172900000000002  0.927  0.2719899999999999  1.0000
  H   H49       1.0  0.12307  0.20996  0.41439999999999994  1.0000
  H   H50       1.0  0.07814000000000004  0.3271  0.31175  1.0000
  H   H51       1.0  0.8030500000000002  0.99761  0.39341  1.0000
  H   H52       1.0  0.63649  0.83772  0.41436  1.0000
  H   H53       1.0  0.9103300000000001  0.6603499999999999  0.47126  1.0000
  H   H54       1.0  0.07675999999999997  0.81743  0.44338999999999995  1.0000
  H   H55       1.0  0.30451000000000006  0.35363  0.38386  1.0000
  H   H56       1.0  0.29118  0.23955999999999994  0.27109  1.0000
  H   H57       1.0  0.69422  0.35208  0.3028  1.0000
  H   H58       1.0  0.68871  0.45527  0.41654999999999986  1.0000
  H   H59       1.0  0.2934899999999999  0.17993999999999996  0.16336  1.0000
  H   H60       1.0  0.30528  0.0734  0.05304  1.0000
  H   H61       1.0  0.69219  0.13262  0.11507  1.0000
  H   H62       1.0  0.69372  0.23182  0.23024  1.0000
  H   H63       1.0  0.5929  0.50567  0.16917  1.0000
  H   H64       1.0  0.47148999999999996  0.2898799999999999  0.9692899999999999  1.0000
  H   H65       1.0  0.80878  0.49655  0.16469  1.0000
  H   H66       1.0  0.6920500000000002  0.29122999999999993  0.9742999999999999  1.0000
  C   C1        1.0  0.72115  0.21176  0.45017  1.0000
  C   C2        1.0  0.59816  0.1367  0.42222999999999994  1.0000
  C   C3        1.0  0.57742  0.06088  0.36149  1.0000
  C   C4        1.0  0.46153  0.9877300000000001  0.33796  1.0000
  C   C5        1.0  0.36444000000000004  0.99232  0.37482  1.0000
  C   C6        1.0  0.38268999999999986  0.06929999999999999  0.4343199999999999  1.0000
  C   C7        1.0  0.49928  0.14032000000000003  0.45835  1.0000
  C   C8        1.0  0.21035  0.85444  0.29299  1.0000
  C   C9        1.0  0.21159  0.89608  0.22408  1.0000
  C   C10       1.0  0.16856000000000004  0.82488  0.16063  1.0000
  C   C11       1.0  0.12020999999999997  0.71393  0.16591  1.0000
  C   C12       1.0  0.11607999999999995  0.6744599999999997  0.23557999999999998  1.0000
  C   C13       1.0  0.16353  0.7442099999999999  0.29946999999999996  1.0000
  C   C14       1.0  0.07234000000000002  0.63718  0.09808  1.0000
  C   C15       1.0  0.8364100000000001  0.66012  0.9817299999999999  1.0000
  C   C16       1.0  0.71353  0.65727  0.98354  1.0000
  C   C17       1.0  0.61723  0.6014999999999999  0.9257799999999999  1.0000
  C   C18       1.0  0.65405  0.55111  0.8678  1.0000
  C   C19       1.0  0.77922  0.5560199999999997  0.87054  1.0000
  C   C20       1.0  0.050899999999999966  0.73527  0.8253599999999998  1.0000
  C   C21       1.0  0.027459999999999884  0.8048499999999996  0.7647399999999998  1.0000
  C   C22       1.0  0.07196999999999992  0.9176899999999999  0.7766099999999999  1.0000
  C   C23       1.0  0.05017999999999998  0.98321  0.72007  1.0000
  C   C24       1.0  0.98231  0.93502  0.6509699999999999  1.0000
  C   C25       1.0  0.93249  0.82309  0.639  1.0000
  C   C26       1.0  0.95672  0.7583199999999998  0.6957  1.0000
  C   C27       1.0  0.053759999999999995  0.08427  0.5838  1.0000
  C   C28       1.0  0.17704  0.07725  0.59266  1.0000
  C   C29       1.0  0.26903000000000005  0.16589999999999994  0.58041  1.0000
  C   C30       1.0  0.23859000000000005  0.26028  0.55661  1.0000
  C   C31       1.0  0.11418999999999992  0.26585999999999993  0.5483099999999997  1.0000
  C   C32       1.0  0.02157  0.17859  0.56262  1.0000
  C   C33       1.0  0.33695  0.34985  0.53695  1.0000
  C   C34       1.0  0.6167900000000001  0.6481  0.64006  1.0000
  C   C35       1.0  0.62359  0.71094  0.70406  1.0000
  C   C36       1.0  0.5137499999999999  0.7158499999999998  0.7292099999999999  1.0000
  C   C37       1.0  0.40130000000000005  0.65136  0.68621  1.0000
  C   C38       1.0  0.40216  0.59196  0.62233  1.0000
  C   C39       1.0  0.51492  0.7840399999999998  0.79421  1.0000
  C   C40       1.0  0.62647  0.8378199999999997  0.8436299999999998  1.0000
  C   C41       1.0  0.6237800000000001  0.90194  0.90449  1.0000
  C   C42       1.0  0.40640000000000004  0.86389  0.87466  1.0000
  C   C43       1.0  0.40352  0.8002599999999999  0.81245  1.0000
  C   C44       1.0  0.48632  0.59981  0.9263799999999999  1.0000
  C   C45       1.0  0.38573  0.5365599999999999  0.8739199999999999  1.0000
  C   C46       1.0  0.4558399999999999  0.6641999999999998  0.97979  1.0000
  C   C47       1.0  0.26461000000000007  0.54059  0.87648  1.0000
  C   C48       1.0  0.3327899999999999  0.6638  0.9790199999999999  1.0000
  C   C49       1.0  0.2765600000000001  0.7848899999999999  0.54966  1.0000
  C   C50       1.0  0.39993000000000006  0.85943  0.5775399999999998  1.0000
  C   C51       1.0  0.42099000000000003  0.9352199999999998  0.63836  1.0000
  C   C52       1.0  0.53673  0.008790000000000003  0.6613999999999999  1.0000
  C   C53       1.0  0.6334399999999999  0.0041400000000000005  0.62424  1.0000
  C   C54       1.0  0.6150599999999999  0.9268499999999997  0.56497  1.0000
  C   C55       1.0  0.4985  0.85575  0.54117  1.0000
  C   C56       1.0  0.7869600000000002  0.14218999999999998  0.7056199999999998  1.0000
  C   C57       1.0  0.7854200000000001  0.10013  0.77436  1.0000
  C   C58       1.0  0.8276700000000002  0.17080999999999996  0.8380499999999997  1.0000
  C   C59       1.0  0.8761500000000001  0.28191  0.8333299999999998  1.0000
  C   C60       1.0  0.88008  0.32194  0.76379  1.0000
  C   C61       1.0  0.83307  0.25265  0.6996  1.0000
  C   C62       1.0  0.92466  0.35805  0.90156  1.0000
  C   C63       1.0  0.15929000000000001  0.3375  0.014859999999999998  1.0000
  C   C64       1.0  0.28209  0.34178  0.0118  1.0000
  C   C65       1.0  0.3785500000000001  0.39618  0.06968  1.0000
  C   C66       1.0  0.34267  0.4452  0.1286  1.0000
  C   C67       1.0  0.21758  0.43955  0.12687  1.0000
  C   C68       1.0  0.9471100000000002  0.26165  0.17434999999999998  1.0000
  C   C69       1.0  0.97195  0.19245999999999996  0.23498  1.0000
  C   C70       1.0  0.92822  0.07950999999999998  0.22338999999999998  1.0000
  C   C71       1.0  0.95092  0.014539999999999983  0.2801099999999999  1.0000
  C   C72       1.0  0.018630000000000008  0.06339  0.34907  1.0000
  C   C73       1.0  0.06816999999999998  0.17535  0.36069  1.0000
  C   C74       1.0  0.04321999999999999  0.23953  0.30378  1.0000
  C   C75       1.0  0.94795  0.91503  0.4169899999999999  1.0000
  C   C76       1.0  0.82487  0.92253  0.4085699999999999  1.0000
  C   C77       1.0  0.7329700000000001  0.83407  0.42112  1.0000
  C   C78       1.0  0.7639600000000001  0.73993  0.44494  1.0000
  C   C79       1.0  0.8881100000000001  0.7342699999999999  0.45323  1.0000
  C   C80       1.0  0.9806000000000001  0.82112  0.43855999999999995  1.0000
  C   C81       1.0  0.66709  0.64995  0.46497  1.0000
  C   C82       1.0  0.38818999999999987  0.35004  0.3635199999999999  1.0000
  C   C83       1.0  0.38234  0.28718  0.29969  1.0000
  C   C84       1.0  0.49264  0.28384999999999994  0.27455999999999997  1.0000
  C   C85       1.0  0.60461  0.34838999999999987  0.31789  1.0000
  C   C86       1.0  0.6030899999999999  0.40761999999999987  0.38163  1.0000
  C   C87       1.0  0.49307  0.21753999999999998  0.20894999999999997  1.0000
  C   C88       1.0  0.38348  0.16903  0.15651  1.0000
  C   C89       1.0  0.3889599999999999  0.10982999999999998  0.09387999999999998  1.0000
  C   C90       1.0  0.60501  0.14138  0.12882  1.0000
  C   C91       1.0  0.60501  0.19966999999999996  0.19279  1.0000
  C   C92       1.0  0.50983  0.39816  0.06909  1.0000
  C   C93       1.0  0.60881  0.45693  0.12431  1.0000
  C   C94       1.0  0.54164  0.33831  0.01385  1.0000
  C   C95       1.0  0.73013  0.4523199999999999  0.1228  1.0000
  C   C96       1.0  0.6647100000000001  0.33731  0.01606  1.0000
  N   N1        1.0  0.50802  0.58951  0.598  1.0000
  N   N2        1.0  0.51535  0.91756  0.92103  1.0000
  N   N3        1.0  0.87026  0.60904  0.92693  1.0000
  N   N4        1.0  0.23756  0.60304  0.92838  1.0000
  N   N5        1.0  0.49666  0.4096  0.4053699999999999  1.0000
  N   N6        1.0  0.49813  0.09489999999999998  0.0784  1.0000
  N   N7        1.0  0.12613  0.3867  0.07085999999999999  1.0000
  N   N8        1.0  0.75837  0.39298  0.06981  1.0000
  O   O1        1.0  0.8037  0.21076  0.40353999999999995  1.0000
  O   O2        1.0  0.75142  0.26951  0.50829  1.0000
  O   O3        1.0  0.24788000000000002  0.9212099999999999  0.3582799999999999  1.0000
  O   O4        1.0  0.11342999999999995  0.6664799999999999  0.039939999999999996  1.0000
  O   O5        1.0  0.99249  0.5503  0.10452  1.0000
  O   O6        1.0  0.022969999999999994  0.6326399999999999  0.81054  1.0000
  O   O7        1.0  0.09538000000000002  0.77828  0.89138  1.0000
  O   O8        1.0  0.9584000000000003  0.99619  0.59264  1.0000
  O   O9        1.0  0.30422  0.42280999999999996  0.49811  1.0000
  O   O10       1.0  0.45189  0.3525499999999999  0.55701  1.0000
  O   O11       1.0  0.19528000000000004  0.7840799999999999  0.59713  1.0000
  O   O12       1.0  0.24432  0.72914  0.4907099999999999  1.0000
  O   O13       1.0  0.75007  0.07521999999999997  0.6403699999999998  1.0000
  O   O14       1.0  0.8829100000000001  0.32847  0.95961  1.0000
  O   O15       1.0  0.005950000000000044  0.4443  0.89599  1.0000
  O   O16       1.0  0.9763300000000001  0.36449  0.18895  1.0000
  O   O17       1.0  0.90012  0.21791  0.10870999999999997  1.0000
  O   O18       1.0  0.042999999999999976  0.0028099999999999926  0.40756999999999993  1.0000
  O   O19       1.0  0.70093  0.57827  0.50475  1.0000
  O   O20       1.0  0.5519499999999999  0.6455799999999999  0.44390999999999997  1.0000
