data_image0
_chemical_formula_structural       Ca4H72C40O40
_chemical_formula_sum              "Ca4 H72 C40 O40"
_cell_length_a       11.83292
_cell_length_b       11.91047
_cell_length_c       11.91057
_cell_angle_alpha    90.02892999999999
_cell_angle_beta     89.84585999999999
_cell_angle_gamma    90.15368999999998

_symmetry_space_group_name_H-M    'P 1'
_symmetry_Int_Tables_number       1

loop_
  _symmetry_equiv_pos_as_xyz
  'x,y,z'

loop_
  _atom_site_type_symbol
  _atom_site_label
  _atom_site_symmetry_multiplicity
  _atom_site_fract_x
  _atom_site_fract_y
  _atom_site_fract_z
  _atom_site_occupancy
  Ca  Ca1       1.0  0.99999  0.78112  0.7811199999999999  1.0000
  Ca  Ca2       1.0  0.5  0.21827999999999995  0.21828  1.0000
  Ca  Ca3       1.0  0.7499599999999998  0.71876  0.28162  1.0000
  Ca  Ca4       1.0  0.25003  0.28162  0.71876  1.0000
  H   H1        1.0  0.7984899999999999  0.96604  0.90922  1.0000
  H   H2        1.0  0.80978  0.85537  0.08111  1.0000
  H   H3        1.0  0.77433  0.64895  0.93209  1.0000
  H   H4        1.0  0.59591  0.62669  0.01973  1.0000
  H   H5        1.0  0.58765  0.7428299999999999  0.86048  1.0000
  H   H6        1.0  0.5  0.80951  0.96233  1.0000
  H   H7        1.0  0.79146  0.7512499999999998  0.7946  1.0000
  H   H8        1.0  0.9755100000000001  0.83492  0.04769  1.0000
  H   H9        1.0  0.89354  0.6330299999999999  0.09085  1.0000
  H   H10       1.0  0.29735  0.03452  0.09133999999999999  1.0000
  H   H11       1.0  0.30951  0.14454  0.91894  1.0000
  H   H12       1.0  0.27432  0.35135  0.06734  1.0000
  H   H13       1.0  0.09669000000000001  0.37366999999999995  0.9805  1.0000
  H   H14       1.0  0.08773  0.25716  0.13997  1.0000
  H   H15       1.0  0.99976  0.19067  0.03842  1.0000
  H   H16       1.0  0.29156  0.24958999999999998  0.20502000000000004  1.0000
  H   H17       1.0  0.47532  0.16475  0.9524  1.0000
  H   H18       1.0  0.39542000000000005  0.3651599999999999  0.90891  1.0000
  H   H19       1.0  0.54778  0.59088  0.4658  1.0000
  H   H20       1.0  0.56064  0.41944999999999993  0.3548299999999999  1.0000
  H   H21       1.0  0.5235  0.56892  0.14921  1.0000
  H   H22       1.0  0.34646  0.47867999999999994  0.12719  1.0000
  H   H23       1.0  0.33881  0.63888  0.244  1.0000
  H   H24       1.0  0.24986000000000003  0.53697  0.30927  1.0000
  H   H25       1.0  0.54107  0.70549  0.25177  1.0000
  H   H26       1.0  0.72601  0.45489  0.33392  1.0000
  H   H27       1.0  0.64542  0.4100899999999999  0.13446  1.0000
  H   H28       1.0  0.04916  0.40792  0.53424  1.0000
  H   H29       1.0  0.058929999999999996  0.5794999999999999  0.64455  1.0000
  H   H30       1.0  0.01892  0.43068  0.8505200000000002  1.0000
  H   H31       1.0  0.84199  0.52031  0.8706  1.0000
  H   H32       1.0  0.83724  0.35979  0.75667  1.0000
  H   H33       1.0  0.74877  0.4591499999999999  0.6877  1.0000
  H   H34       1.0  0.04222  0.29381  0.7488  1.0000
  H   H35       1.0  0.22393000000000002  0.54832  0.66972  1.0000
  H   H36       1.0  0.14112  0.5894  0.8668500000000001  1.0000
  H   H37       1.0  0.9508400000000001  0.53424  0.40792  1.0000
  H   H38       1.0  0.94107  0.64455  0.5795  1.0000
  H   H39       1.0  0.9810700000000001  0.85052  0.43068000000000006  1.0000
  H   H40       1.0  0.158  0.8705999999999999  0.52031  1.0000
  H   H41       1.0  0.16276  0.7566699999999997  0.35979000000000005  1.0000
  H   H42       1.0  0.25123  0.6877  0.45915  1.0000
  H   H43       1.0  0.95778  0.7488  0.29381  1.0000
  H   H44       1.0  0.77606  0.66972  0.54831  1.0000
  H   H45       1.0  0.8588700000000001  0.86685  0.5894  1.0000
  H   H46       1.0  0.45222  0.46579999999999994  0.59087  1.0000
  H   H47       1.0  0.43936000000000003  0.35483  0.41945  1.0000
  H   H48       1.0  0.47650000000000003  0.14921  0.56892  1.0000
  H   H49       1.0  0.65354  0.12719  0.47868  1.0000
  H   H50       1.0  0.66119  0.24399999999999997  0.63888  1.0000
  H   H51       1.0  0.75014  0.30927  0.53697  1.0000
  H   H52       1.0  0.45893000000000006  0.25177  0.70549  1.0000
  H   H53       1.0  0.27399  0.33392  0.45489  1.0000
  H   H54       1.0  0.35457  0.13446  0.41009000000000007  1.0000
  H   H55       1.0  0.2015  0.90922  0.96603  1.0000
  H   H56       1.0  0.19022  0.0811  0.8553700000000001  1.0000
  H   H57       1.0  0.22565999999999997  0.93209  0.64895  1.0000
  H   H58       1.0  0.40409000000000006  0.01973  0.62669  1.0000
  H   H59       1.0  0.41235  0.86048  0.74283  1.0000
  H   H60       1.0  0.49999  0.96233  0.8095099999999998  1.0000
  H   H61       1.0  0.20853  0.7946  0.75125  1.0000
  H   H62       1.0  0.02449  0.04769  0.83492  1.0000
  H   H63       1.0  0.10644999999999999  0.09085  0.63303  1.0000
  H   H64       1.0  0.70265  0.09134  0.03452  1.0000
  H   H65       1.0  0.6904900000000002  0.9189399999999999  0.14454  1.0000
  H   H66       1.0  0.72568  0.06734  0.35134999999999994  1.0000
  H   H67       1.0  0.9033000000000001  0.9805  0.37367  1.0000
  H   H68       1.0  0.91227  0.13997  0.25716  1.0000
  H   H69       1.0  0.00024000000000000006  0.03843  0.19067  1.0000
  H   H70       1.0  0.70844  0.20503  0.24958999999999998  1.0000
  H   H71       1.0  0.52468  0.9524  0.16475  1.0000
  H   H72       1.0  0.60458  0.90891  0.36516000000000004  1.0000
  C   C1        1.0  0.76463  0.8801  0.9078900000000001  1.0000
  C   C2        1.0  0.81869  0.8109  0.00133  1.0000
  C   C3        1.0  0.76285  0.6962999999999998  0.01046  1.0000
  C   C4        1.0  0.63538  0.7101899999999999  0.03432  1.0000
  C   C5        1.0  0.58733  0.78633  0.94214  1.0000
  C   C6        1.0  0.26365  0.12031  0.09232  1.0000
  C   C7        1.0  0.3184  0.18920999999999996  0.99865  1.0000
  C   C8        1.0  0.26311  0.30374  0.98908  1.0000
  C   C9        1.0  0.13537000000000005  0.29004  0.96567  1.0000
  C   C10       1.0  0.08715  0.21383999999999997  0.05821  1.0000
  C   C11       1.0  0.51403  0.59215  0.38010000000000005  1.0000
  C   C12       1.0  0.56884  0.4993  0.31018  1.0000
  C   C13       1.0  0.51307  0.48989999999999995  0.19587  1.0000
  C   C14       1.0  0.3858  0.4648099999999999  0.21063  1.0000
  C   C15       1.0  0.33753  0.55693  0.28688  1.0000
  C   C16       1.0  0.01458  0.40602  0.61985  1.0000
  C   C17       1.0  0.06719  0.50009  0.68972  1.0000
  C   C18       1.0  0.00962  0.50959  0.80356  1.0000
  C   C19       1.0  0.8827  0.5343299999999999  0.78759  1.0000
  C   C20       1.0  0.83613  0.44065999999999994  0.7117  1.0000
  C   C21       1.0  0.98541  0.61985  0.40602  1.0000
  C   C22       1.0  0.9328  0.6897299999999998  0.50009  1.0000
  C   C23       1.0  0.99037  0.80356  0.50959  1.0000
  C   C24       1.0  0.11729000000000002  0.7876  0.53433  1.0000
  C   C25       1.0  0.16386  0.7117  0.44066000000000005  1.0000
  C   C26       1.0  0.48597  0.38009999999999994  0.59214  1.0000
  C   C27       1.0  0.43116  0.31018  0.4993000000000001  1.0000
  C   C28       1.0  0.4869299999999999  0.19587  0.4899  1.0000
  C   C29       1.0  0.6142  0.21063  0.46481  1.0000
  C   C30       1.0  0.66246  0.28688  0.55693  1.0000
  C   C31       1.0  0.23537000000000002  0.90789  0.8801  1.0000
  C   C32       1.0  0.18131000000000003  0.00133  0.8109  1.0000
  C   C33       1.0  0.23715  0.01046  0.6963  1.0000
  C   C34       1.0  0.36461  0.03431  0.71019  1.0000
  C   C35       1.0  0.41266  0.94214  0.78633  1.0000
  C   C36       1.0  0.73635  0.09231999999999999  0.12031  1.0000
  C   C37       1.0  0.68161  0.99865  0.18921  1.0000
  C   C38       1.0  0.73688  0.9890899999999998  0.30374  1.0000
  C   C39       1.0  0.86463  0.9656699999999999  0.29004  1.0000
  C   C40       1.0  0.91285  0.05820999999999999  0.21384000000000003  1.0000
  O   O1        1.0  0.78851  0.8368799999999998  0.79912  1.0000
  O   O2        1.0  0.9399  0.79987  0.98262  1.0000
  O   O3        1.0  0.81181  0.63359  0.1022  1.0000
  O   O4        1.0  0.61624  0.74931  0.14343  1.0000
  O   O5        1.0  0.64708  0.89218  0.93123  1.0000
  O   O6        1.0  0.28626  0.16405  0.20097  1.0000
  O   O7        1.0  0.43975  0.20024999999999998  0.01722  1.0000
  O   O8        1.0  0.3137  0.3662899999999999  0.89759  1.0000
  O   O9        1.0  0.11467  0.25082  0.85686  1.0000
  O   O10       1.0  0.14642  0.10794  0.06847  1.0000
  O   O11       1.0  0.53679  0.7015599999999999  0.33731000000000005  1.0000
  O   O12       1.0  0.69006  0.51887  0.29762  1.0000
  O   O13       1.0  0.56364  0.39954999999999996  0.13176  1.0000
  O   O14       1.0  0.36611000000000005  0.35591  0.25077  1.0000
  O   O15       1.0  0.39677  0.56653  0.39306  1.0000
  O   O16       1.0  0.0392  0.29746  0.66307  1.0000
  O   O17       1.0  0.18825000000000003  0.48213  0.70287  1.0000
  O   O18       1.0  0.059300000000000005  0.6002  0.86804  1.0000
  O   O19       1.0  0.86371  0.64349  0.74829  1.0000
  O   O20       1.0  0.8970999999999999  0.42854  0.60634  1.0000
  O   O21       1.0  0.96079  0.66307  0.29746  1.0000
  O   O22       1.0  0.81174  0.70288  0.48213  1.0000
  O   O23       1.0  0.94069  0.86804  0.6002  1.0000
  O   O24       1.0  0.13628  0.7482899999999999  0.64349  1.0000
  O   O25       1.0  0.1029  0.60634  0.42854000000000003  1.0000
  O   O26       1.0  0.46321  0.33730999999999994  0.70156  1.0000
  O   O27       1.0  0.30994  0.29762  0.51887  1.0000
  O   O28       1.0  0.4363600000000001  0.13176  0.39955  1.0000
  O   O29       1.0  0.63389  0.25077  0.35590999999999995  1.0000
  O   O30       1.0  0.6032300000000002  0.39305999999999996  0.56653  1.0000
  O   O31       1.0  0.21148  0.79912  0.8368699999999999  1.0000
  O   O32       1.0  0.06009  0.98262  0.7998700000000001  1.0000
  O   O33       1.0  0.18819  0.1022  0.63359  1.0000
  O   O34       1.0  0.38376  0.14343  0.7493  1.0000
  O   O35       1.0  0.35291999999999996  0.93123  0.89218  1.0000
  O   O36       1.0  0.7137400000000002  0.20096999999999995  0.16405  1.0000
  O   O37       1.0  0.56025  0.01722  0.20025  1.0000
  O   O38       1.0  0.68629  0.8976  0.36629000000000006  1.0000
  O   O39       1.0  0.8853299999999998  0.8568699999999999  0.25082  1.0000
  O   O40       1.0  0.85358  0.06847  0.10794  1.0000
