data_image0
_chemical_formula_structural       Sr16H32C32N64O48
_chemical_formula_sum              "Sr16 H32 C32 N64 O48"
_cell_length_a       9.40107
_cell_length_b       17.38573
_cell_length_c       18.25221
_cell_angle_alpha    107.90477
_cell_angle_beta     90.01166
_cell_angle_gamma    90.02256000000001

_space_group_name_H-M_alt    "P 1"
_space_group_IT_number       1

loop_
  _space_group_symop_operation_xyz
  'x, y, z'

loop_
  _atom_site_type_symbol
  _atom_site_label
  _atom_site_symmetry_multiplicity
  _atom_site_fract_x
  _atom_site_fract_y
  _atom_site_fract_z
  _atom_site_occupancy
  Sr  Sr1       1.0  0.33913  0.8654  0.67651  1.0000
  Sr  Sr2       1.0  0.82883  0.62144  0.82329  1.0000
  Sr  Sr3       1.0  0.48901  0.5924399999999999  0.6734399999999999  1.0000
  Sr  Sr4       1.0  0.49983  0.07643  0.66176  1.0000
  Sr  Sr5       1.0  0.83916  0.13366  0.82296  1.0000
  Sr  Sr6       1.0  0.32889  0.3785199999999999  0.67686  1.0000
  Sr  Sr7       1.0  0.9885600000000002  0.4075299999999999  0.82707  1.0000
  Sr  Sr8       1.0  0.99917  0.92305  0.83815  1.0000
  Sr  Sr9       1.0  0.66087  0.13461  0.32349  1.0000
  Sr  Sr10      1.0  0.17117000000000004  0.37857  0.1767  1.0000
  Sr  Sr11      1.0  0.51099  0.40756  0.32655  1.0000
  Sr  Sr12      1.0  0.5001700000000001  0.9235699999999999  0.33824  1.0000
  Sr  Sr13      1.0  0.16084  0.8663499999999998  0.17704  1.0000
  Sr  Sr14      1.0  0.67111  0.62148  0.32314  1.0000
  Sr  Sr15      1.0  0.011430000000000003  0.59248  0.17293  1.0000
  Sr  Sr16      1.0  0.00083  0.07695  0.16184  1.0000
  H   H1        1.0  0.99374  0.9354  0.67938  1.0000
  H   H2        1.0  0.0605  0.85489  0.62551  1.0000
  H   H3        1.0  0.30863  0.95666  0.86198  1.0000
  H   H4        1.0  0.30793  0.86422  0.85164  1.0000
  H   H5        1.0  0.49556000000000006  0.66991  0.8611  1.0000
  H   H6        1.0  0.49654  0.5747599999999998  0.8392399999999999  1.0000
  H   H7        1.0  0.77029  0.5676599999999999  0.61857  1.0000
  H   H8        1.0  0.82807  0.65394  0.65976  1.0000
  H   H9        1.0  0.48749  0.06412  0.82067  1.0000
  H   H10       1.0  0.56003  0.14328999999999995  0.8739099999999999  1.0000
  H   H11       1.0  0.8091600000000002  0.04322999999999999  0.63826  1.0000
  H   H12       1.0  0.8084500000000001  0.13583  0.64853  1.0000
  H   H13       1.0  0.9958800000000001  0.3296699999999999  0.63901  1.0000
  H   H14       1.0  0.99603  0.42475  0.66083  1.0000
  H   H15       1.0  0.27086  0.43204  0.88126  1.0000
  H   H16       1.0  0.32713  0.34542  0.84012  1.0000
  H   H17       1.0  0.00626  0.06459999999999999  0.32061  1.0000
  H   H18       1.0  0.9394800000000001  0.14511  0.37449  1.0000
  H   H19       1.0  0.69137  0.04334  0.13802  1.0000
  H   H20       1.0  0.6920800000000001  0.13578  0.14835  1.0000
  H   H21       1.0  0.50444  0.3301  0.13889  1.0000
  H   H22       1.0  0.50346  0.4252499999999999  0.16076  1.0000
  H   H23       1.0  0.22971  0.43236  0.38144  1.0000
  H   H24       1.0  0.17193  0.34608  0.34024  1.0000
  H   H25       1.0  0.51251  0.93588  0.17932  1.0000
  H   H26       1.0  0.43998  0.85672  0.12609  1.0000
  H   H27       1.0  0.19084000000000004  0.9567699999999999  0.36173  1.0000
  H   H28       1.0  0.19154000000000004  0.86418  0.35146  1.0000
  H   H29       1.0  0.00412  0.67033  0.36099  1.0000
  H   H30       1.0  0.0039700000000000004  0.57525  0.33917  1.0000
  H   H31       1.0  0.72915  0.56797  0.11873999999999998  1.0000
  H   H32       1.0  0.67287  0.65458  0.15988  1.0000
  C   C1        1.0  0.6654800000000001  0.8600300000000001  0.76315  1.0000
  C   C2        1.0  0.6783  0.93625  0.7432099999999999  1.0000
  C   C3        1.0  0.16187  0.64782  0.76067  1.0000
  C   C4        1.0  0.17617000000000005  0.56699  0.77104  1.0000
  C   C5        1.0  0.5897000000000001  0.64466  0.51039  1.0000
  C   C6        1.0  0.6376  0.55901  0.48825  1.0000
  C   C7        1.0  0.22198  0.84943  0.48858  1.0000
  C   C8        1.0  0.31959  0.92114  0.5108  1.0000
  C   C9        1.0  0.16589  0.13928  0.73629  1.0000
  C   C10       1.0  0.17845  0.06264999999999994  0.75554  1.0000
  C   C11       1.0  0.66176  0.35156  0.73922  1.0000
  C   C12       1.0  0.67641  0.43253  0.72904  1.0000
  C   C13       1.0  0.09045  0.35431999999999997  0.9890800000000001  1.0000
  C   C14       1.0  0.13785  0.44014  0.01156  1.0000
  C   C15       1.0  0.7221  0.15093  0.01114  1.0000
  C   C16       1.0  0.81978  0.07918  0.98912  1.0000
  C   C17       1.0  0.33453  0.13998  0.23685  1.0000
  C   C18       1.0  0.32172000000000006  0.06376  0.25679  1.0000
  C   C19       1.0  0.83813  0.35218  0.23933  1.0000
  C   C20       1.0  0.82379  0.43302  0.22897  1.0000
  C   C21       1.0  0.41029  0.3553399999999999  0.48961  1.0000
  C   C22       1.0  0.3624  0.44099999999999995  0.5117399999999999  1.0000
  C   C23       1.0  0.7780200000000003  0.15058  0.51142  1.0000
  C   C24       1.0  0.68041  0.07885999999999999  0.4892099999999999  1.0000
  C   C25       1.0  0.83412  0.8607299999999998  0.26371  1.0000
  C   C26       1.0  0.82153  0.93736  0.24446000000000004  1.0000
  C   C27       1.0  0.33824000000000004  0.64844  0.26078  1.0000
  C   C28       1.0  0.32363  0.56748  0.27097  1.0000
  C   C29       1.0  0.9095500000000001  0.64568  0.01092  1.0000
  C   C30       1.0  0.86215  0.55986  0.9884200000000001  1.0000
  C   C31       1.0  0.27790000000000004  0.84907  0.9888600000000001  1.0000
  C   C32       1.0  0.18022  0.92083  0.01084  1.0000
  N   N1        1.0  0.55754  0.8077199999999998  0.73954  1.0000
  N   N2        1.0  0.59149  0.7440400000000001  0.76201  1.0000
  N   N3        1.0  0.71599  0.7579  0.79952  1.0000
  N   N4        1.0  0.76435  0.83101  0.8011199999999999  1.0000
  N   N5        1.0  0.25465  0.67847  0.721  1.0000
  N   N6        1.0  0.20305000000000004  0.75133  0.72515  1.0000
  N   N7        1.0  0.08281000000000001  0.76423  0.76612  1.0000
  N   N8        1.0  0.05438  0.69934  0.78862  1.0000
  N   N9        1.0  0.52665  0.6832999999999998  0.57751  1.0000
  N   N10       1.0  0.4923600000000001  0.7566  0.57146  1.0000
  N   N11       1.0  0.53441  0.76225  0.50381  1.0000
  N   N12       1.0  0.59583  0.6919600000000001  0.46421  1.0000
  N   N13       1.0  0.16976  0.81272  0.53842  1.0000
  N   N14       1.0  0.092  0.74963  0.49563999999999997  1.0000
  N   N15       1.0  0.09671  0.7491499999999999  0.42276  1.0000
  N   N16       1.0  0.17762000000000006  0.81113  0.41653  1.0000
  N   N17       1.0  0.05782  0.19143999999999994  0.76009  1.0000
  N   N18       1.0  0.09186  0.25551  0.73824  1.0000
  N   N19       1.0  0.21649  0.24201999999999999  0.70085  1.0000
  N   N20       1.0  0.26487  0.16879  0.69876  1.0000
  N   N21       1.0  0.75404  0.32118  0.77937  1.0000
  N   N22       1.0  0.7022300000000002  0.24837999999999996  0.77541  1.0000
  N   N23       1.0  0.58238  0.23524  0.73406  1.0000
  N   N24       1.0  0.5543600000000002  0.29992  0.71114  1.0000
  N   N25       1.0  0.027550000000000005  0.31556  0.9219  1.0000
  N   N26       1.0  0.99431  0.242  0.92773  1.0000
  N   N27       1.0  0.03683  0.23636  0.99532  1.0000
  N   N28       1.0  0.0975  0.30686  0.0351  1.0000
  N   N29       1.0  0.6684400000000003  0.18703000000000006  0.96112  1.0000
  N   N30       1.0  0.5905500000000001  0.25005  0.00389  1.0000
  N   N31       1.0  0.59643  0.251  0.07689  1.0000
  N   N32       1.0  0.6783800000000001  0.18947  0.08323  1.0000
  N   N33       1.0  0.44247  0.19228  0.26046  1.0000
  N   N34       1.0  0.40851  0.25596999999999986  0.23799  1.0000
  N   N35       1.0  0.28401  0.24210999999999996  0.20048  1.0000
  N   N36       1.0  0.23565000000000003  0.16898999999999995  0.19888  1.0000
  N   N37       1.0  0.74535  0.32153  0.279  1.0000
  N   N38       1.0  0.7969600000000002  0.24866999999999997  0.27485  1.0000
  N   N39       1.0  0.9172  0.23576999999999998  0.23387  1.0000
  N   N40       1.0  0.94562  0.30065999999999987  0.21138  1.0000
  N   N41       1.0  0.47335000000000005  0.3167  0.42248  1.0000
  N   N42       1.0  0.50764  0.24341  0.42854  1.0000
  N   N43       1.0  0.46559000000000006  0.23776  0.49618  1.0000
  N   N44       1.0  0.40417  0.30804  0.53578  1.0000
  N   N45       1.0  0.8302500000000002  0.18728  0.46158000000000005  1.0000
  N   N46       1.0  0.9080100000000001  0.25037  0.50436  1.0000
  N   N47       1.0  0.90329  0.25085  0.57724  1.0000
  N   N48       1.0  0.82237  0.18886999999999998  0.58346  1.0000
  N   N49       1.0  0.94218  0.8085699999999999  0.23990999999999998  1.0000
  N   N50       1.0  0.90815  0.74449  0.26175  1.0000
  N   N51       1.0  0.78352  0.75798  0.29915  1.0000
  N   N52       1.0  0.73513  0.83122  0.30124  1.0000
  N   N53       1.0  0.24596000000000004  0.6788199999999998  0.22062999999999997  1.0000
  N   N54       1.0  0.29777  0.75162  0.22459  1.0000
  N   N55       1.0  0.41762000000000005  0.76476  0.26594  1.0000
  N   N56       1.0  0.44564000000000004  0.7000799999999998  0.28886  1.0000
  N   N57       1.0  0.97245  0.6844399999999998  0.07809  1.0000
  N   N58       1.0  0.0056900000000000015  0.758  0.07227  1.0000
  N   N59       1.0  0.96317  0.7636399999999998  0.00467  1.0000
  N   N60       1.0  0.9025000000000001  0.69314  0.9649  1.0000
  N   N61       1.0  0.33156  0.8129699999999999  0.03888  1.0000
  N   N62       1.0  0.4094500000000001  0.74995  0.99611  1.0000
  N   N63       1.0  0.40357  0.7490099999999998  0.92311  1.0000
  N   N64       1.0  0.3216200000000001  0.81054  0.9167599999999999  1.0000
  O   O1        1.0  0.57335  0.95442  0.70722  1.0000
  O   O2        1.0  0.79258  0.9763300000000001  0.76225  1.0000
  O   O3        1.0  0.29213  0.52953  0.74829  1.0000
  O   O4        1.0  0.07116  0.54112  0.80071  1.0000
  O   O5        1.0  0.65041  0.5264  0.54142  1.0000
  O   O6        1.0  0.6586  0.52466  0.41631  1.0000
  O   O7        1.0  0.35608  0.94741  0.58162  1.0000
  O   O8        1.0  0.35789  0.9511299999999999  0.4591399999999999  1.0000
  O   O9        1.0  0.04268000000000001  0.8863599999999997  0.68018  1.0000
  O   O10       1.0  0.29302  0.90506  0.82272  1.0000
  O   O11       1.0  0.54899  0.61915  0.82993  1.0000
  O   O12       1.0  0.79904  0.60449  0.67  1.0000
  O   O13       1.0  0.07253  0.04315999999999996  0.78984  1.0000
  O   O14       1.0  0.29358  0.023110000000000033  0.73743  1.0000
  O   O15       1.0  0.7923500000000001  0.46997999999999995  0.75187  1.0000
  O   O16       1.0  0.57132  0.45865  0.69957  1.0000
  O   O17       1.0  0.15011  0.47336999999999996  0.95881  1.0000
  O   O18       1.0  0.15925  0.47397999999999996  0.08355  1.0000
  O   O19       1.0  0.85631  0.0526799999999999  0.91831  1.0000
  O   O20       1.0  0.85782  0.04918  0.04082  1.0000
  O   O21       1.0  0.54263  0.11101999999999998  0.81937  1.0000
  O   O22       1.0  0.79308  0.09486999999999998  0.67736  1.0000
  O   O23       1.0  0.04902  0.38055  0.67018  1.0000
  O   O24       1.0  0.29895000000000005  0.39499  0.82987  1.0000
  O   O25       1.0  0.42665  0.04557999999999999  0.29277  1.0000
  O   O26       1.0  0.20740000000000006  0.023669999999999993  0.23775  1.0000
  O   O27       1.0  0.70789  0.47047  0.2517  1.0000
  O   O28       1.0  0.9288600000000001  0.45889  0.19928  1.0000
  O   O29       1.0  0.34959000000000007  0.4736  0.45858  1.0000
  O   O30       1.0  0.3414  0.47533999999999993  0.58369  1.0000
  O   O31       1.0  0.64392  0.05258999999999997  0.41837  1.0000
  O   O32       1.0  0.64211  0.04887999999999999  0.54085  1.0000
  O   O33       1.0  0.9573200000000001  0.11363999999999998  0.31981999999999994  1.0000
  O   O34       1.0  0.7069800000000002  0.09494  0.17728  1.0000
  O   O35       1.0  0.45101  0.38085  0.17006  1.0000
  O   O36       1.0  0.20096  0.39553  0.33  1.0000
  O   O37       1.0  0.9274800000000001  0.95684  0.21014  1.0000
  O   O38       1.0  0.7064300000000002  0.9768899999999999  0.26256  1.0000
  O   O39       1.0  0.20763  0.53001  0.24813  1.0000
  O   O40       1.0  0.42866000000000004  0.54136  0.30042  1.0000
  O   O41       1.0  0.8498900000000001  0.52662  0.0412  1.0000
  O   O42       1.0  0.84077  0.52603  0.91645  1.0000
  O   O43       1.0  0.14369000000000004  0.94733  0.0817  1.0000
  O   O44       1.0  0.14219000000000004  0.95081  0.9591899999999999  1.0000
  O   O45       1.0  0.45737  0.88899  0.18062999999999999  1.0000
  O   O46       1.0  0.20692  0.9051299999999999  0.32264  1.0000
  O   O47       1.0  0.9509800000000002  0.6194499999999998  0.32982  1.0000
  O   O48       1.0  0.70106  0.60501  0.17012  1.0000
