data_image0
_chemical_formula_structural       La4Cu2H52C64N8O26
_chemical_formula_sum              "La4 Cu2 H52 C64 N8 O26"
_cell_length_a       12.46451
_cell_length_b       14.07813
_cell_length_c       15.085480000000002
_cell_angle_alpha    117.67311999999998
_cell_angle_beta     95.88103
_cell_angle_gamma    91.38137

_symmetry_space_group_name_H-M    'P 1'
_symmetry_Int_Tables_number       1

loop_
  _symmetry_equiv_pos_as_xyz
  'x,y,z'

loop_
  _atom_site_type_symbol
  _atom_site_label
  _atom_site_symmetry_multiplicity
  _atom_site_fract_x
  _atom_site_fract_y
  _atom_site_fract_z
  _atom_site_occupancy
  La  La1       1.0  0.07342999999999998  0.6538499999999998  0.72457  1.0000
  La  La2       1.0  0.07531  0.62815  0.45684  1.0000
  La  La3       1.0  0.92658  0.34615  0.27543  1.0000
  La  La4       1.0  0.92469  0.37184999999999996  0.54316  1.0000
  Cu  Cu1       1.0  0.45754999999999996  0.18444  0.78037  1.0000
  Cu  Cu2       1.0  0.54245  0.81556  0.21963  1.0000
  H   H1        1.0  0.37381999999999993  0.7121799999999998  0.56664  1.0000
  H   H2        1.0  0.52413  0.80906  0.53493  1.0000
  H   H3        1.0  0.65615  0.8956999999999997  0.53717  1.0000
  H   H4        1.0  0.7952399999999998  0.013190000000000006  0.51648  1.0000
  H   H5        1.0  0.29293  0.051930000000000025  0.88089  1.0000
  H   H6        1.0  0.1805  0.005250000000000025  0.78695  1.0000
  H   H7        1.0  0.26593999999999995  0.12109999999999989  0.8089399999999999  1.0000
  H   H8        1.0  0.62739  0.35467999999999994  0.66816  1.0000
  H   H9        1.0  0.69667  0.36429  0.77964  1.0000
  H   H10       1.0  0.5518  0.33438  0.75456  1.0000
  H   H11       1.0  0.57628  0.47018999999999994  0.21452  1.0000
  H   H12       1.0  0.41041  0.48915  0.11685  1.0000
  H   H13       1.0  0.27963  0.4988199999999999  0.024  1.0000
  H   H14       1.0  0.14061999999999997  0.5090499999999999  0.8976899999999999  1.0000
  H   H15       1.0  0.62063  0.09813999999999995  0.9218799999999999  1.0000
  H   H16       1.0  0.74311  0.18298999999999999  0.96149  1.0000
  H   H17       1.0  0.65917  0.15576999999999996  0.84646  1.0000
  H   H18       1.0  0.28543  0.27054  0.58727  1.0000
  H   H19       1.0  0.21778  0.16705999999999993  0.59952  1.0000
  H   H20       1.0  0.36241  0.18855999999999998  0.62941  1.0000
  H   H21       1.0  0.8964299999999998  0.9260299999999998  0.65026  1.0000
  H   H22       1.0  0.80201  0.9058699999999998  0.7229799999999998  1.0000
  H   H23       1.0  0.80117  0.8128999999999997  0.5908  1.0000
  H   H24       1.0  0.30331  0.3848099999999999  0.21249  1.0000
  H   H25       1.0  0.23962999999999998  0.2864099999999999  0.23646  1.0000
  H   H26       1.0  0.36149999999999993  0.36615  0.31539  1.0000
  H   H27       1.0  0.62618  0.28782  0.43336  1.0000
  H   H28       1.0  0.47587  0.19094999999999995  0.46507  1.0000
  H   H29       1.0  0.34385  0.10430000000000002  0.46283  1.0000
  H   H30       1.0  0.20476  0.9868099999999999  0.48352  1.0000
  H   H31       1.0  0.70707  0.9480799999999998  0.11911  1.0000
  H   H32       1.0  0.8195  0.9947599999999998  0.21305  1.0000
  H   H33       1.0  0.7340599999999999  0.8788999999999999  0.19106  1.0000
  H   H34       1.0  0.37260999999999994  0.64532  0.33184  1.0000
  H   H35       1.0  0.30333  0.6357099999999998  0.22036  1.0000
  H   H36       1.0  0.4482  0.6656199999999998  0.24544  1.0000
  H   H37       1.0  0.42372  0.52981  0.78548  1.0000
  H   H38       1.0  0.58959  0.5108499999999999  0.88315  1.0000
  H   H39       1.0  0.72037  0.50118  0.976  1.0000
  H   H40       1.0  0.85939  0.49095  0.10231  1.0000
  H   H41       1.0  0.37937000000000004  0.90186  0.07812  1.0000
  H   H42       1.0  0.25689  0.8170099999999998  0.03851  1.0000
  H   H43       1.0  0.34083  0.84423  0.15354  1.0000
  H   H44       1.0  0.71457  0.7294599999999998  0.41273  1.0000
  H   H45       1.0  0.78222  0.8329399999999998  0.40049  1.0000
  H   H46       1.0  0.63759  0.8114499999999998  0.37059  1.0000
  H   H47       1.0  0.10356999999999998  0.07397  0.34975  1.0000
  H   H48       1.0  0.19799999999999998  0.09412999999999996  0.27702  1.0000
  H   H49       1.0  0.19882999999999998  0.1871  0.4092  1.0000
  H   H50       1.0  0.6966899999999999  0.6151899999999998  0.78751  1.0000
  H   H51       1.0  0.7603699999999999  0.71359  0.76354  1.0000
  H   H52       1.0  0.6385  0.63385  0.68461  1.0000
  C   C1        1.0  0.33471  0.9716099999999998  0.73032  1.0000
  C   C2        1.0  0.31929  0.85823  0.67867  1.0000
  C   C3        1.0  0.3880899999999999  0.7995799999999997  0.60781  1.0000
  C   C4        1.0  0.47105  0.85364  0.59048  1.0000
  C   C5        1.0  0.48399  0.9660899999999998  0.64437  1.0000
  C   C6        1.0  0.57003  0.029629999999999976  0.63069  1.0000
  C   C7        1.0  0.65262  0.9821399999999998  0.57271  1.0000
  C   C8        1.0  0.73027  0.04701000000000001  0.5621  1.0000
  C   C9        1.0  0.72582  0.15864999999999996  0.61049  1.0000
  C   C10       1.0  0.64137  0.2029399999999999  0.6691  1.0000
  C   C11       1.0  0.26375000000000004  0.04148999999999997  0.80532  1.0000
  C   C12       1.0  0.23135  0.7952599999999997  0.69409  1.0000
  C   C13       1.0  0.62771  0.3212399999999999  0.72117  1.0000
  C   C14       1.0  0.81069  0.2259  0.59548  1.0000
  C   C15       1.0  0.59793  0.26525  0.9818  1.0000
  C   C16       1.0  0.6264  0.33803  0.08512  1.0000
  C   C17       1.0  0.5556  0.41657000000000005  0.13406  1.0000
  C   C18       1.0  0.46368  0.42644999999999994  0.07982  1.0000
  C   C19       1.0  0.4429  0.35670999999999986  0.97615  1.0000
  C   C20       1.0  0.35358  0.36713999999999997  0.9099  1.0000
  C   C21       1.0  0.27739  0.44345999999999997  0.94409  1.0000
  C   C22       1.0  0.19967999999999997  0.44913999999999993  0.87404  1.0000
  C   C23       1.0  0.19860999999999998  0.37911999999999996  0.77082  1.0000
  C   C24       1.0  0.27731  0.30391  0.74051  1.0000
  C   C25       1.0  0.66003  0.1704599999999999  0.92454  1.0000
  C   C26       1.0  0.73008  0.34046  0.14782  1.0000
  C   C27       1.0  0.28696999999999984  0.2278999999999999  0.6325999999999999  1.0000
  C   C28       1.0  0.11415999999999998  0.3854099999999999  0.6957299999999998  1.0000
  C   C29       1.0  0.8516899999999997  0.8656099999999998  0.66222  1.0000
  C   C30       1.0  0.93025  0.7989  0.68664  1.0000
  C   C31       1.0  0.21702  0.45157999999999987  0.33974  1.0000
  C   C32       1.0  0.28472  0.36582999999999993  0.27262  1.0000
  C   C33       1.0  0.6653  0.02839000000000001  0.26968  1.0000
  C   C34       1.0  0.68071  0.14176999999999995  0.32132999999999995  1.0000
  C   C35       1.0  0.61191  0.20041999999999993  0.39219  1.0000
  C   C36       1.0  0.5289499999999999  0.14635999999999988  0.4095199999999999  1.0000
  C   C37       1.0  0.51602  0.03391  0.35563  1.0000
  C   C38       1.0  0.42997  0.9703699999999997  0.36930999999999997  1.0000
  C   C39       1.0  0.34739  0.017859999999999977  0.42728999999999995  1.0000
  C   C40       1.0  0.26974  0.9529899999999999  0.4379  1.0000
  C   C41       1.0  0.27419  0.8413499999999999  0.38951  1.0000
  C   C42       1.0  0.35863999999999996  0.7970599999999998  0.3309  1.0000
  C   C43       1.0  0.7362499999999998  0.9585100000000001  0.19468  1.0000
  C   C44       1.0  0.76865  0.20473999999999995  0.30591  1.0000
  C   C45       1.0  0.3723  0.6787599999999998  0.27883  1.0000
  C   C46       1.0  0.18931  0.7741099999999995  0.4045199999999999  1.0000
  C   C47       1.0  0.40207999999999994  0.7347499999999998  0.0182  1.0000
  C   C48       1.0  0.37360999999999994  0.66197  0.9148799999999999  1.0000
  C   C49       1.0  0.4444000000000003  0.58343  0.86594  1.0000
  C   C50       1.0  0.53632  0.57355  0.92018  1.0000
  C   C51       1.0  0.5571  0.6432899999999999  0.02385  1.0000
  C   C52       1.0  0.64642  0.63287  0.0901  1.0000
  C   C53       1.0  0.72261  0.5565499999999999  0.05591  1.0000
  C   C54       1.0  0.80032  0.55086  0.12596  1.0000
  C   C55       1.0  0.80139  0.6208799999999998  0.22918  1.0000
  C   C56       1.0  0.7227  0.6960899999999998  0.25949  1.0000
  C   C57       1.0  0.33997  0.82954  0.07546  1.0000
  C   C58       1.0  0.26992  0.6595399999999998  0.85218  1.0000
  C   C59       1.0  0.71304  0.7721099999999999  0.3674  1.0000
  C   C60       1.0  0.88584  0.61459  0.30428  1.0000
  C   C61       1.0  0.14830999999999997  0.13438999999999998  0.33777999999999997  1.0000
  C   C62       1.0  0.06976  0.20109999999999992  0.31335999999999997  1.0000
  C   C63       1.0  0.78298  0.5484199999999998  0.66026  1.0000
  C   C64       1.0  0.71529  0.6341699999999998  0.72738  1.0000
  N   N1        1.0  0.41648  0.02348  0.71244  1.0000
  N   N2        1.0  0.56582  0.13844  0.67894  1.0000
  N   N3        1.0  0.5078100000000002  0.27619999999999995  0.92945  1.0000
  N   N4        1.0  0.3516  0.2982499999999999  0.80968  1.0000
  N   N5        1.0  0.58352  0.97653  0.28756  1.0000
  N   N6        1.0  0.43418  0.86156  0.32106  1.0000
  N   N7        1.0  0.4922  0.7237999999999998  0.07055  1.0000
  N   N8        1.0  0.6483999999999999  0.7017499999999999  0.19032  1.0000
  O   O1        1.0  0.19123999999999997  0.8318599999999998  0.77613  1.0000
  O   O2        1.0  0.2015  0.7001099999999998  0.62059  1.0000
  O   O3        1.0  0.8463999999999999  0.18491  0.51002  1.0000
  O   O4        1.0  0.84159  0.3199399999999999  0.66636  1.0000
  O   O5        1.0  0.8147999999999999  0.3035799999999999  0.10611999999999999  1.0000
  O   O6        1.0  0.7295499999999999  0.3851699999999999  0.24299  1.0000
  O   O7        1.0  0.09029  0.30499  0.60945  1.0000
  O   O8        1.0  0.06638999999999999  0.4727999999999998  0.72306  1.0000
  O   O9        1.0  0.050489999999999986  0.5078799999999998  0.53542  1.0000
  O   O10       1.0  0.9841299999999998  0.7358399999999998  0.61597  1.0000
  O   O11       1.0  0.94197  0.8034399999999998  0.7729799999999999  1.0000
  O   O12       1.0  0.2602  0.53715  0.41411  1.0000
  O   O13       1.0  0.11242  0.4368299999999999  0.3166  1.0000
  O   O14       1.0  0.80877  0.16813999999999996  0.22387  1.0000
  O   O15       1.0  0.79851  0.29989999999999994  0.3794199999999999  1.0000
  O   O16       1.0  0.1536  0.8150899999999998  0.48998  1.0000
  O   O17       1.0  0.15841  0.68006  0.33364  1.0000
  O   O18       1.0  0.18519999999999998  0.69642  0.89388  1.0000
  O   O19       1.0  0.27045  0.61483  0.75701  1.0000
  O   O20       1.0  0.9097099999999999  0.6950099999999998  0.39055  1.0000
  O   O21       1.0  0.93362  0.5272099999999997  0.27694  1.0000
  O   O22       1.0  0.9495099999999999  0.49213  0.46458999999999995  1.0000
  O   O23       1.0  0.015869999999999995  0.2641599999999999  0.38403  1.0000
  O   O24       1.0  0.05802999999999999  0.19655999999999996  0.22702  1.0000
  O   O25       1.0  0.73981  0.46284999999999993  0.58589  1.0000
  O   O26       1.0  0.88758  0.56317  0.68341  1.0000
