data_image0
_chemical_formula_structural       Cu4H52C80N12O24
_chemical_formula_sum              "Cu4 H52 C80 N12 O24"
_cell_length_a       8.60122
_cell_length_b       13.36351
_cell_length_c       22.03736
_cell_angle_alpha    102.20046
_cell_angle_beta     89.78252
_cell_angle_gamma    108.74805000000002

_space_group_name_H-M_alt    "P 1"
_space_group_IT_number       1

loop_
  _space_group_symop_operation_xyz
  'x, y, z'

loop_
  _atom_site_type_symbol
  _atom_site_label
  _atom_site_symmetry_multiplicity
  _atom_site_fract_x
  _atom_site_fract_y
  _atom_site_fract_z
  _atom_site_occupancy
  Cu  Cu1       1.0  0.6291799999999997  0.3992499999999999  0.52785  1.0000
  Cu  Cu2       1.0  0.7665499999999998  0.39844  0.02692  1.0000
  Cu  Cu3       1.0  0.23345999999999997  0.60156  0.97308  1.0000
  Cu  Cu4       1.0  0.37082999999999994  0.6007499999999999  0.47214999999999996  1.0000
  H   H1        1.0  0.3319  0.29573  0.58698  1.0000
  H   H2        1.0  0.14685  0.10842  0.58543  1.0000
  H   H3        1.0  0.4082100000000001  0.9941899999999999  0.43249  1.0000
  H   H4        1.0  0.5809399999999999  0.18886999999999998  0.44027  1.0000
  H   H5        1.0  0.2018899999999999  0.86336  0.4682099999999999  1.0000
  H   H6        1.0  0.04089000000000002  0.93662  0.58742  1.0000
  H   H7        1.0  0.8750599999999997  0.7927799999999998  0.63403  1.0000
  H   H8        1.0  0.72433  0.59659  0.62567  1.0000
  H   H9        1.0  0.8986899999999998  0.51305  0.4533  1.0000
  H   H10       1.0  0.06485  0.70221  0.45554  1.0000
  H   H11       1.0  0.65123  0.25854000000000005  0.83308  1.0000
  H   H12       1.0  0.60717  0.21215  0.7169  1.0000
  H   H13       1.0  0.0014900000000000473  0.5673600000000001  0.82539  1.0000
  H   H14       1.0  0.62014  0.25910999999999995  0.33343  1.0000
  H   H15       1.0  0.61451  0.2116  0.21713999999999997  1.0000
  H   H16       1.0  0.56128  0.56323  0.32609999999999995  1.0000
  H   H17       1.0  0.9617999999999999  0.29569  0.08636  1.0000
  H   H18       1.0  0.9601499999999998  0.10860999999999998  0.08519999999999998  1.0000
  H   H19       1.0  0.58844  0.9936599999999999  0.93209  1.0000
  H   H20       1.0  0.6089699999999999  0.18791999999999986  0.9394599999999999  1.0000
  H   H21       1.0  0.66084  0.86302  0.96853  1.0000
  H   H22       1.0  0.8961599999999998  0.9360899999999998  0.08683  1.0000
  H   H23       1.0  0.9133299999999998  0.7914999999999998  0.13383999999999996  1.0000
  H   H24       1.0  0.8655599999999999  0.59506  0.12562  1.0000
  H   H25       1.0  0.6148  0.5129499999999998  0.95261  1.0000
  H   H26       1.0  0.6390799999999998  0.7024899999999997  0.95487  1.0000
  H   H27       1.0  0.37987  0.74089  0.6665699999999999  1.0000
  H   H28       1.0  0.38549  0.7884  0.7828599999999999  1.0000
  H   H29       1.0  0.43872999999999995  0.4367699999999999  0.6739  1.0000
  H   H30       1.0  0.038210000000000036  0.70431  0.91364  1.0000
  H   H31       1.0  0.039849999999999934  0.8913899999999999  0.9147999999999997  1.0000
  H   H32       1.0  0.41157  0.006339999999999997  0.06791  1.0000
  H   H33       1.0  0.3910299999999999  0.8120799999999999  0.06053999999999998  1.0000
  H   H34       1.0  0.33916999999999997  0.13698  0.03147  1.0000
  H   H35       1.0  0.10383999999999997  0.06390999999999993  0.91317  1.0000
  H   H36       1.0  0.08667000000000001  0.20850000000000002  0.86616  1.0000
  H   H37       1.0  0.13444  0.40494  0.87438  1.0000
  H   H38       1.0  0.38519999999999993  0.48704999999999987  0.04739  1.0000
  H   H39       1.0  0.3609299999999999  0.29750999999999994  0.04513  1.0000
  H   H40       1.0  0.6681  0.7042699999999997  0.41302  1.0000
  H   H41       1.0  0.8531499999999999  0.8915899999999999  0.41457  1.0000
  H   H42       1.0  0.59179  0.005810000000000006  0.56751  1.0000
  H   H43       1.0  0.41907  0.81113  0.5597299999999998  1.0000
  H   H44       1.0  0.79812  0.13663999999999998  0.53179  1.0000
  H   H45       1.0  0.9591199999999995  0.06337999999999998  0.41257999999999995  1.0000
  H   H46       1.0  0.12495  0.20722  0.36597  1.0000
  H   H47       1.0  0.27567  0.40340999999999994  0.37431999999999993  1.0000
  H   H48       1.0  0.10130999999999991  0.48694999999999994  0.5467  1.0000
  H   H49       1.0  0.9351499999999999  0.29779  0.54446  1.0000
  H   H50       1.0  0.34877  0.74146  0.16691999999999999  1.0000
  H   H51       1.0  0.3928299999999999  0.7878499999999999  0.28309  1.0000
  H   H52       1.0  0.9985099999999998  0.4326399999999999  0.17461  1.0000
  C   C1        1.0  0.34469  0.22577  0.55443  1.0000
  C   C2        1.0  0.24294  0.12097999999999996  0.5529099999999999  1.0000
  C   C3        1.0  0.2654  0.03339000000000003  0.50969  1.0000
  C   C4        1.0  0.3878  0.05888999999999997  0.46746  1.0000
  C   C5        1.0  0.48460999999999993  0.166  0.47167  1.0000
  C   C6        1.0  0.17405000000000004  0.9199  0.5066799999999999  1.0000
  C   C7        1.0  0.06692999999999985  0.8808899999999997  0.54808  1.0000
  C   C8        1.0  0.98155  0.7662699999999999  0.54476  1.0000
  C   C9        1.0  0.8844  0.73359  0.59311  1.0000
  C   C10       1.0  0.79883  0.62454  0.58884  1.0000
  C   C11       1.0  0.8980699999999998  0.57727  0.4927599999999999  1.0000
  C   C12       1.0  0.99013  0.68391  0.49430999999999997  1.0000
  C   C13       1.0  0.85455  0.4443399999999999  0.90667  1.0000
  C   C14       1.0  0.82891  0.41537  0.83682  1.0000
  C   C15       1.0  0.7184899999999999  0.31511  0.80565  1.0000
  C   C16       1.0  0.69341  0.28964  0.74109  1.0000
  C   C17       1.0  0.77456  0.3640599999999999  0.7056499999999999  1.0000
  C   C18       1.0  0.88353  0.46442  0.73776  1.0000
  C   C19       1.0  0.9126699999999998  0.4903299999999998  0.8022599999999999  1.0000
  C   C20       1.0  0.7317  0.33442999999999995  0.63631  1.0000
  C   C21       1.0  0.59348  0.44395  0.40718  1.0000
  C   C22       1.0  0.5908  0.41376  0.33731  1.0000
  C   C23       1.0  0.60474  0.3144  0.30601999999999996  1.0000
  C   C24       1.0  0.60227  0.28828  0.24128999999999998  1.0000
  C   C25       1.0  0.58998  0.36128999999999994  0.20575  1.0000
  C   C26       1.0  0.5778  0.46071  0.23813999999999996  1.0000
  C   C27       1.0  0.57655  0.48721  0.30269  1.0000
  C   C28       1.0  0.60192  0.33187  0.13611  1.0000
  C   C29       1.0  0.87964  0.22564  0.05393  1.0000
  C   C30       1.0  0.87723  0.12096  0.05258  1.0000
  C   C31       1.0  0.7681999999999998  0.03318  0.00944  1.0000
  C   C32       1.0  0.67236  0.05852999999999999  0.96705  1.0000
  C   C33       1.0  0.68194  0.16549999999999995  0.97108  1.0000
  C   C34       1.0  0.74566  0.91967  0.00664  1.0000
  C   C35       1.0  0.81381  0.88059  0.04776999999999999  1.0000
  C   C36       1.0  0.7836199999999999  0.7658199999999998  0.04438  1.0000
  C   C37       1.0  0.8457399999999999  0.7325799999999999  0.09283  1.0000
  C   C38       1.0  0.82117  0.62338  0.08859999999999998  1.0000
  C   C39       1.0  0.6785  0.57706  0.99214  1.0000
  C   C40       1.0  0.69386  0.68386  0.99374  1.0000
  C   C41       1.0  0.40652  0.55606  0.5928099999999998  1.0000
  C   C42       1.0  0.40919999999999995  0.58624  0.66269  1.0000
  C   C43       1.0  0.3952699999999999  0.6855999999999998  0.6939799999999999  1.0000
  C   C44       1.0  0.3977299999999999  0.7117199999999999  0.75871  1.0000
  C   C45       1.0  0.41002  0.63871  0.79424  1.0000
  C   C46       1.0  0.4222000000000001  0.53929  0.76186  1.0000
  C   C47       1.0  0.42344999999999994  0.5127899999999999  0.69731  1.0000
  C   C48       1.0  0.3980899999999999  0.66813  0.8638899999999998  1.0000
  C   C49       1.0  0.12037  0.77436  0.94607  1.0000
  C   C50       1.0  0.12277000000000006  0.87904  0.9474199999999999  1.0000
  C   C51       1.0  0.23180999999999996  0.9668199999999999  0.99056  1.0000
  C   C52       1.0  0.3276499999999999  0.94147  0.03295  1.0000
  C   C53       1.0  0.3180599999999999  0.8345099999999998  0.028919999999999998  1.0000
  C   C54       1.0  0.25434  0.08032999999999994  0.99336  1.0000
  C   C55       1.0  0.18619  0.11941000000000002  0.9522299999999999  1.0000
  C   C56       1.0  0.21637999999999996  0.23417999999999997  0.95562  1.0000
  C   C57       1.0  0.15426999999999996  0.26741999999999994  0.9071699999999999  1.0000
  C   C58       1.0  0.17883  0.37662  0.9114  1.0000
  C   C59       1.0  0.3215  0.42294  0.00786  1.0000
  C   C60       1.0  0.30615  0.31614  0.00626  1.0000
  C   C61       1.0  0.6553099999999998  0.7742299999999999  0.44556999999999997  1.0000
  C   C62       1.0  0.7570599999999997  0.8790199999999998  0.4470799999999999  1.0000
  C   C63       1.0  0.73461  0.96661  0.49030999999999997  1.0000
  C   C64       1.0  0.6122  0.9411099999999999  0.53254  1.0000
  C   C65       1.0  0.5153999999999999  0.8339999999999999  0.5283299999999999  1.0000
  C   C66       1.0  0.82595  0.08009999999999999  0.49332  1.0000
  C   C67       1.0  0.93307  0.11911  0.45192  1.0000
  C   C68       1.0  0.018449999999999973  0.2337299999999999  0.45523999999999987  1.0000
  C   C69       1.0  0.11561  0.26641  0.40689  1.0000
  C   C70       1.0  0.20117  0.37546  0.41115999999999997  1.0000
  C   C71       1.0  0.10192999999999998  0.42273  0.50724  1.0000
  C   C72       1.0  0.009870000000000014  0.31609000000000004  0.50569  1.0000
  C   C73       1.0  0.14545000000000005  0.5556600000000002  0.09333  1.0000
  C   C74       1.0  0.17109000000000005  0.58463  0.16318  1.0000
  C   C75       1.0  0.28152  0.68489  0.19435  1.0000
  C   C76       1.0  0.30658999999999986  0.7103599999999998  0.2589099999999999  1.0000
  C   C77       1.0  0.22544  0.63594  0.29435  1.0000
  C   C78       1.0  0.11647  0.53558  0.26224  1.0000
  C   C79       1.0  0.08732999999999999  0.50967  0.19774  1.0000
  C   C80       1.0  0.2682999999999999  0.6655699999999999  0.36368999999999996  1.0000
  N   N1        1.0  0.46554999999999996  0.24814999999999998  0.51513  1.0000
  N   N2        1.0  0.80149  0.54734  0.53877  1.0000
  N   N3        1.0  0.9744499999999999  0.5460099999999999  0.70336  1.0000
  N   N4        1.0  0.56435  0.54136  0.20402  1.0000
  N   N5        1.0  0.78165  0.24782999999999997  0.01458  1.0000
  N   N6        1.0  0.74286  0.54663  0.03827  1.0000
  N   N7        1.0  0.43565  0.45864  0.79598  1.0000
  N   N8        1.0  0.21835  0.75218  0.98542  1.0000
  N   N9        1.0  0.2571399999999999  0.4533699999999999  0.9617299999999999  1.0000
  N   N10       1.0  0.53445  0.7518599999999998  0.48487  1.0000
  N   N11       1.0  0.19851000000000002  0.45266  0.46123  1.0000
  N   N12       1.0  0.025550000000000003  0.454  0.29664  1.0000
  O   O1        1.0  0.9608700000000001  0.53179  0.9330899999999999  1.0000
  O   O2        1.0  0.7578400000000001  0.37452000000000013  0.93446  1.0000
  O   O3        1.0  0.6801700000000002  0.40373  0.61701  1.0000
  O   O4        1.0  0.74216  0.24710999999999997  0.60582  1.0000
  O   O5        1.0  0.99767  0.64294  0.72786  1.0000
  O   O6        1.0  0.02376999999999996  0.51368  0.6523  1.0000
  O   O7        1.0  0.57585  0.5324099999999998  0.43296  1.0000
  O   O8        1.0  0.6176599999999998  0.3744699999999999  0.4357499999999999  1.0000
  O   O9        1.0  0.7174399999999997  0.40350999999999987  0.11580999999999997  1.0000
  O   O10       1.0  0.50808  0.24293  0.10617  1.0000
  O   O11       1.0  0.64065  0.6383399999999999  0.22733  1.0000
  O   O12       1.0  0.47708  0.50801  0.15443999999999997  1.0000
  O   O13       1.0  0.42416  0.46759  0.56704  1.0000
  O   O14       1.0  0.38234  0.62553  0.56425  1.0000
  O   O15       1.0  0.28256  0.59649  0.88419  1.0000
  O   O16       1.0  0.49192999999999987  0.7570699999999999  0.8938299999999999  1.0000
  O   O17       1.0  0.3593599999999999  0.3616599999999998  0.7726699999999999  1.0000
  O   O18       1.0  0.52292  0.4919899999999998  0.8455599999999998  1.0000
  O   O19       1.0  0.039129999999999956  0.4682099999999999  0.0669  1.0000
  O   O20       1.0  0.24216  0.62548  0.06554  1.0000
  O   O21       1.0  0.31983  0.59627  0.38298999999999994  1.0000
  O   O22       1.0  0.25784  0.75289  0.3941799999999999  1.0000
  O   O23       1.0  0.002330000000000006  0.35706  0.27214  1.0000
  O   O24       1.0  0.9762300000000002  0.48632  0.34769999999999995  1.0000
