data_image0
_chemical_formula_structural       K6Sm6H36C84S12O60
_chemical_formula_sum              "K6 Sm6 H36 C84 S12 O60"
_cell_length_a       8.58903
_cell_length_b       28.4561
_cell_length_c       28.453660000000003
_cell_angle_alpha    119.01989
_cell_angle_beta     95.75117999999999
_cell_angle_gamma    95.76642999999999

_symmetry_space_group_name_H-M    'P 1'
_symmetry_Int_Tables_number       1

loop_
  _symmetry_equiv_pos_as_xyz
  'x,y,z'

loop_
  _atom_site_type_symbol
  _atom_site_label
  _atom_site_symmetry_multiplicity
  _atom_site_fract_x
  _atom_site_fract_y
  _atom_site_fract_z
  _atom_site_occupancy
  K   K1        1.0  0.6505  0.9139099999999999  0.32539  1.0000
  K   K2        1.0  0.3242499999999999  0.6737099999999999  0.58736  1.0000
  K   K3        1.0  0.73894  0.41133999999999993  0.08539  1.0000
  K   K4        1.0  0.8242599999999999  0.58731  0.6737099999999999  1.0000
  K   K5        1.0  0.23913  0.08530000000000003  0.41165  1.0000
  K   K6        1.0  0.15084999999999996  0.3250799999999998  0.9140899999999998  1.0000
  Sm  Sm1       1.0  0.028269999999999993  0.98303  0.47333  1.0000
  Sm  Sm2       1.0  0.55914  0.52561  0.50906  1.0000
  Sm  Sm3       1.0  0.047809999999999964  0.48997  0.01613  1.0000
  Sm  Sm4       1.0  0.059129999999999995  0.5090399999999999  0.52564  1.0000
  Sm  Sm5       1.0  0.5482999999999999  0.01635999999999996  0.4907999999999999  1.0000
  Sm  Sm6       1.0  0.52821  0.47315999999999997  0.98305  1.0000
  H   H1        1.0  0.9214199999999999  0.8279899999999998  0.24957999999999997  1.0000
  H   H2        1.0  0.27308  0.74076  0.27543  1.0000
  H   H3        1.0  0.41472999999999993  0.82686  0.35489999999999994  1.0000
  H   H4        1.0  0.84921  0.76177  0.17337  1.0000
  H   H5        1.0  0.70272  0.67442  0.09724  1.0000
  H   H6        1.0  0.10613000000000004  0.67254  0.23253  1.0000
  H   H7        1.0  0.67147  0.75017  0.57876  1.0000
  H   H8        1.0  0.9967700000000002  0.72445  0.46549  1.0000
  H   H9        1.0  0.060619999999999986  0.64533  0.47248  1.0000
  H   H10       1.0  0.6763499999999999  0.8264099999999999  0.58892  1.0000
  H   H11       1.0  0.6062  0.9027799999999998  0.57805  1.0000
  H   H12       1.0  0.86976  0.76673  0.43955  1.0000
  H   H13       1.0  0.09354999999999997  0.42143999999999987  0.17195  1.0000
  H   H14       1.0  0.53207  0.53479  0.25904  1.0000
  H   H15       1.0  0.58761  0.52787  0.17275  1.0000
  H   H16       1.0  0.08818999999999998  0.41143999999999986  0.23768  1.0000
  H   H17       1.0  0.030539999999999994  0.42203  0.32503  1.0000
  H   H18       1.0  0.43209999999999993  0.56045  0.32727  1.0000
  H   H19       1.0  0.17157000000000008  0.57878  0.75026  1.0000
  H   H20       1.0  0.49689  0.4655399999999999  0.72449  1.0000
  H   H21       1.0  0.56062  0.4725  0.64535  1.0000
  H   H22       1.0  0.17645999999999992  0.5888599999999998  0.8266  1.0000
  H   H23       1.0  0.10638  0.57774  0.90288  1.0000
  H   H24       1.0  0.37000999999999995  0.4394699999999999  0.76657  1.0000
  H   H25       1.0  0.5932399999999999  0.17154999999999995  0.42125  1.0000
  H   H26       1.0  0.031839999999999986  0.25901  0.53458  1.0000
  H   H27       1.0  0.08790999999999999  0.17281  0.52779  1.0000
  H   H28       1.0  0.58794  0.23756999999999995  0.41138  1.0000
  H   H29       1.0  0.5305  0.32494  0.42197  1.0000
  H   H30       1.0  0.93188  0.32713  0.56039  1.0000
  H   H31       1.0  0.42073999999999995  0.24941999999999992  0.82788  1.0000
  H   H32       1.0  0.77262  0.27529  0.7407  1.0000
  H   H33       1.0  0.9142099999999999  0.3547899999999999  0.8268199999999999  1.0000
  H   H34       1.0  0.34876999999999997  0.17332999999999998  0.76181  1.0000
  H   H35       1.0  0.20219999999999988  0.09715999999999998  0.67448  1.0000
  H   H36       1.0  0.60582  0.23236000000000007  0.67254  1.0000
  C   C1        1.0  0.24724999999999997  0.8755999999999998  0.34828  1.0000
  C   C2        1.0  0.10828000000000002  0.8750399999999998  0.31707  1.0000
  C   C3        1.0  0.027209999999999852  0.8262499999999997  0.27258  1.0000
  C   C4        1.0  0.08078999999999986  0.7764699999999998  0.25699  1.0000
  C   C5        1.0  0.22329000000000004  0.77779  0.28716  1.0000
  C   C6        1.0  0.30461999999999995  0.8263399999999997  0.33185000000000003  1.0000
  C   C7        1.0  0.3397  0.9251099999999999  0.39729  1.0000
  C   C8        1.0  0.99156  0.7250299999999997  0.20981  1.0000
  C   C9        1.0  0.8753499999999999  0.7239599999999998  0.17054  1.0000
  C   C10       1.0  0.79395  0.67465  0.12681  1.0000
  C   C11       1.0  0.8288599999999998  0.6241999999999998  0.11851999999999999  1.0000
  C   C12       1.0  0.94672  0.6251399999999998  0.15757  1.0000
  C   C13       1.0  0.022019999999999932  0.6745799999999997  0.20266999999999996  1.0000
  C   C14       1.0  0.74084  0.57437  0.06769  1.0000
  C   C15       1.0  0.89942  0.65177  0.52779  1.0000
  C   C16       1.0  0.79105  0.68279  0.55834  1.0000
  C   C17       1.0  0.75466  0.7273299999999999  0.55409  1.0000
  C   C18       1.0  0.8235799999999999  0.7429199999999999  0.51984  1.0000
  C   C19       1.0  0.93595  0.7128  0.49096  1.0000
  C   C20       1.0  0.9733  0.66828  0.49501  1.0000
  C   C21       1.0  0.94303  0.60265  0.52798  1.0000
  C   C22       1.0  0.781  0.7899599999999998  0.51542  1.0000
  C   C23       1.0  0.7048999999999999  0.8293099999999998  0.55393  1.0000
  C   C24       1.0  0.6672  0.8730799999999999  0.5485  1.0000
  C   C25       1.0  0.71021  0.88136  0.5063  1.0000
  C   C26       1.0  0.7873899999999999  0.8420899999999998  0.46764  1.0000
  C   C27       1.0  0.81706  0.79685  0.4718  1.0000
  C   C28       1.0  0.67267  0.93221  0.50766  1.0000
  C   C29       1.0  0.37172  0.47224  0.12413  1.0000
  C   C30       1.0  0.23340999999999998  0.4415899999999998  0.12469999999999998  1.0000
  C   C31       1.0  0.20112  0.44609  0.17355999999999996  1.0000
  C   C32       1.0  0.30441999999999997  0.4804699999999999  0.22329  1.0000
  C   C33       1.0  0.44549999999999995  0.5093599999999999  0.22198  1.0000
  C   C34       1.0  0.4782499999999999  0.5052899999999999  0.17334999999999998  1.0000
  C   C35       1.0  0.41501  0.4714799999999999  0.07459  1.0000
  C   C36       1.0  0.26668  0.48483  0.27473  1.0000
  C   C37       1.0  0.15221000000000004  0.44631000000000004  0.27556  1.0000
  C   C38       1.0  0.12082000000000001  0.45155  0.32478  1.0000
  C   C39       1.0  0.20650999999999997  0.49362999999999996  0.37519  1.0000
  C   C40       1.0  0.3218099999999999  0.5323299999999997  0.37454  1.0000
  C   C41       1.0  0.34691  0.52831  0.32519  1.0000
  C   C42       1.0  0.16867999999999994  0.49215999999999993  0.42469  1.0000
  C   C43       1.0  0.39943  0.5278299999999999  0.6518  1.0000
  C   C44       1.0  0.29108999999999996  0.5583799999999999  0.68284  1.0000
  C   C45       1.0  0.25469999999999987  0.5541099999999999  0.72739  1.0000
  C   C46       1.0  0.32365999999999995  0.5198699999999999  0.7429599999999998  1.0000
  C   C47       1.0  0.4360799999999999  0.4910099999999999  0.71283  1.0000
  C   C48       1.0  0.4733399999999999  0.49505  0.6682999999999999  1.0000
  C   C49       1.0  0.44300999999999996  0.528  0.60267  1.0000
  C   C50       1.0  0.28115999999999997  0.5153699999999999  0.78997  1.0000
  C   C51       1.0  0.20509999999999998  0.55383  0.82942  1.0000
  C   C52       1.0  0.1674  0.54825  0.87312  1.0000
  C   C53       1.0  0.21027  0.50592  0.8812  1.0000
  C   C54       1.0  0.28758999999999996  0.46739999999999987  0.8419  1.0000
  C   C55       1.0  0.31727999999999995  0.4716799999999999  0.79673  1.0000
  C   C56       1.0  0.17209  0.5068  0.9318  1.0000
  C   C57       1.0  0.8715999999999999  0.12422999999999994  0.47255  1.0000
  C   C58       1.0  0.73303  0.12456000000000002  0.44184  1.0000
  C   C59       1.0  0.70073  0.17330999999999988  0.44603  1.0000
  C   C60       1.0  0.80404  0.22311  0.48033  1.0000
  C   C61       1.0  0.94527  0.22193999999999997  0.50924  1.0000
  C   C62       1.0  0.9783199999999999  0.17341999999999996  0.50533  1.0000
  C   C63       1.0  0.91505  0.07484999999999997  0.4720599999999999  1.0000
  C   C64       1.0  0.76647  0.2745799999999999  0.48471  1.0000
  C   C65       1.0  0.65213  0.27546999999999994  0.44619999999999993  1.0000
  C   C66       1.0  0.62083  0.32468999999999987  0.45148  1.0000
  C   C67       1.0  0.70654  0.3750999999999999  0.49357  1.0000
  C   C68       1.0  0.82186  0.37441  0.53224  1.0000
  C   C69       1.0  0.8468199999999999  0.3250399999999999  0.52821  1.0000
  C   C70       1.0  0.66871  0.42464999999999986  0.49217999999999995  1.0000
  C   C71       1.0  0.7465099999999998  0.34813  0.87546  1.0000
  C   C72       1.0  0.60757  0.31695  0.87493  1.0000
  C   C73       1.0  0.52649  0.27246  0.82615  1.0000
  C   C74       1.0  0.58025  0.2568799999999999  0.77641  1.0000
  C   C75       1.0  0.72272  0.28705  0.7777  1.0000
  C   C76       1.0  0.804  0.3317399999999998  0.8262399999999999  1.0000
  C   C77       1.0  0.8392799999999999  0.3969699999999998  0.9249999999999999  1.0000
  C   C78       1.0  0.49111  0.20969  0.72501  1.0000
  C   C79       1.0  0.37489  0.17044  0.72397  1.0000
  C   C80       1.0  0.29338  0.12673  0.67467  1.0000
  C   C81       1.0  0.32832  0.11846000000000001  0.62423  1.0000
  C   C82       1.0  0.44609999999999994  0.15752999999999995  0.62515  1.0000
  C   C83       1.0  0.52151  0.2025599999999999  0.67458  1.0000
  C   C84       1.0  0.24060999999999996  0.06760999999999995  0.57444  1.0000
  S   S1        1.0  0.03467999999999993  0.9359799999999998  0.32882999999999996  1.0000
  S   S2        1.0  0.016309999999999998  0.56589  0.15367  1.0000
  S   S3        1.0  0.70323  0.6706399999999999  0.60705  1.0000
  S   S4        1.0  0.85939  0.84577  0.41189999999999993  1.0000
  S   S5        1.0  0.09913000000000001  0.39236  0.06375  1.0000
  S   S6        1.0  0.44949  0.58786  0.4338699999999999  1.0000
  S   S7        1.0  0.20326  0.60708  0.6707  1.0000
  S   S8        1.0  0.3594099999999999  0.41171999999999986  0.84568  1.0000
  S   S9        1.0  0.59937  0.06329  0.39275  1.0000
  S   S10       1.0  0.9493899999999998  0.4337899999999999  0.58782  1.0000
  S   S11       1.0  0.53452  0.32875  0.93595  1.0000
  S   S12       1.0  0.51621  0.1538  0.56605  1.0000
  O   O1        1.0  0.2731899999999999  0.9613299999999997  0.43302999999999997  1.0000
  O   O2        1.0  0.49096999999999996  0.9304299999999999  0.40433  1.0000
  O   O3        1.0  0.9561799999999999  0.9527399999999999  0.37881999999999993  1.0000
  O   O4        1.0  0.9127799999999999  0.9193299999999998  0.28104  1.0000
  O   O5        1.0  0.17189999999999997  0.97634  0.3381  1.0000
  O   O6        1.0  0.59385  0.5715399999999998  0.05262  1.0000
  O   O7        1.0  0.81279  0.53549  0.03798  1.0000
  O   O8        1.0  0.87662  0.5236199999999998  0.13791  1.0000
  O   O9        1.0  0.11660999999999999  0.55121  0.10871  1.0000
  O   O10       1.0  0.11681999999999998  0.58361  0.20571  1.0000
  O   O11       1.0  0.84155  0.56682  0.52853  1.0000
  O   O12       1.0  0.08695  0.59548  0.5259  1.0000
  O   O13       1.0  0.57766  0.61996  0.57332  1.0000
  O   O14       1.0  0.6258  0.71792  0.63714  1.0000
  O   O15       1.0  0.82966  0.6622099999999997  0.63934  1.0000
  O   O16       1.0  0.5418299999999999  0.9475699999999998  0.52094  1.0000
  O   O17       1.0  0.77278  0.96168  0.49757999999999997  1.0000
  O   O18       1.0  0.7357499999999998  0.8620699999999996  0.38587  1.0000
  O   O19       1.0  0.0052299999999999205  0.8904399999999999  0.4420799999999999  1.0000
  O   O20       1.0  0.9060599999999999  0.7934399999999998  0.37711  1.0000
  O   O21       1.0  0.31265  0.4711299999999999  0.03832  1.0000
  O   O22       1.0  0.56079  0.4728699999999999  0.06919  1.0000
  O   O23       1.0  0.006510000000000005  0.42567  0.04642  1.0000
  O   O24       1.0  0.99246  0.3619899999999999  0.08089  1.0000
  O   O25       1.0  0.19512999999999997  0.36043999999999987  0.02346  1.0000
  O   O26       1.0  0.024669999999999928  0.47853999999999985  0.42666999999999994  1.0000
  O   O27       1.0  0.27905  0.50252  0.46423  1.0000
  O   O28       1.0  0.35213  0.61417  0.4762  1.0000
  O   O29       1.0  0.56423  0.5573799999999999  0.44820999999999994  1.0000
  O   O30       1.0  0.53138  0.6224799999999998  0.41627  1.0000
  O   O31       1.0  0.3415499999999999  0.5285599999999998  0.56685  1.0000
  O   O32       1.0  0.58691  0.5258899999999999  0.59548  1.0000
  O   O33       1.0  0.07765000000000001  0.57336  0.62004  1.0000
  O   O34       1.0  0.12583999999999992  0.6371699999999998  0.7180199999999999  1.0000
  O   O35       1.0  0.3296300000000001  0.6393500000000001  0.6622600000000001  1.0000
  O   O36       1.0  0.03972999999999991  0.5188799999999998  0.9464399999999998  1.0000
  O   O37       1.0  0.27304  0.49757  0.96176  1.0000
  O   O38       1.0  0.23552999999999996  0.38581  0.86203  1.0000
  O   O39       1.0  0.5050699999999999  0.4419299999999999  0.89044  1.0000
  O   O40       1.0  0.4060599999999999  0.37685  0.79337  1.0000
  O   O41       1.0  0.81285  0.038889999999999994  0.47224  1.0000
  O   O42       1.0  0.06063999999999999  0.06921  0.47305  1.0000
  O   O43       1.0  0.5070400000000002  0.04567000000000002  0.42593  1.0000
  O   O44       1.0  0.49197  0.07996  0.36216  1.0000
  O   O45       1.0  0.69646  0.02329999999999999  0.36113  1.0000
  O   O46       1.0  0.52471  0.4266599999999998  0.47861999999999993  1.0000
  O   O47       1.0  0.77913  0.46417999999999987  0.50253  1.0000
  O   O48       1.0  0.85209  0.47613999999999995  0.61412  1.0000
  O   O49       1.0  0.06411999999999997  0.44814999999999994  0.55734  1.0000
  O   O50       1.0  0.03141000000000001  0.41622  0.62245  1.0000
  O   O51       1.0  0.7732399999999999  0.4328499999999999  0.96127  1.0000
  O   O52       1.0  0.9905699999999996  0.40369  0.93034  1.0000
  O   O53       1.0  0.456  0.3787199999999999  0.95274  1.0000
  O   O54       1.0  0.4127499999999999  0.2809799999999999  0.9194  1.0000
  O   O55       1.0  0.6719699999999998  0.33809999999999985  0.9762799999999999  1.0000
  O   O56       1.0  0.09373  0.052429999999999984  0.57156  1.0000
  O   O57       1.0  0.31279  0.038019999999999984  0.53557  1.0000
  O   O58       1.0  0.37686  0.13785  0.52361  1.0000
  O   O59       1.0  0.61675  0.10898  0.55166  1.0000
  O   O60       1.0  0.61665  0.20588  0.58378  1.0000
