data_image0
_chemical_formula_structural       Fe3H84C66S6N30
_chemical_formula_sum              "Fe3 H84 C66 S6 N30"
_cell_length_a       11.05206
_cell_length_b       14.96065
_cell_length_c       14.95796
_cell_angle_alpha    114.15267
_cell_angle_beta     104.24112
_cell_angle_gamma    104.26238999999998

_symmetry_space_group_name_H-M    'P 1'
_symmetry_Int_Tables_number       1

loop_
  _symmetry_equiv_pos_as_xyz
  'x,y,z'

loop_
  _atom_site_type_symbol
  _atom_site_label
  _atom_site_symmetry_multiplicity
  _atom_site_fract_x
  _atom_site_fract_y
  _atom_site_fract_z
  _atom_site_occupancy
  Fe  Fe1       1.0  0.9997899999999997  0.9997899999999998  0.50005  1.0000
  Fe  Fe2       1.0  0.0004199999999999985  0.50028  0.00024  1.0000
  Fe  Fe3       1.0  0.50002  0.4999500000000001  0.50016  1.0000
  H   H1        1.0  0.7813899999999999  0.88642  0.5532  1.0000
  H   H2        1.0  0.7665  0.94255  0.25706  1.0000
  H   H3        1.0  0.6920899999999999  0.030609999999999967  0.31595  1.0000
  H   H4        1.0  0.58639  0.90121  0.20456  1.0000
  H   H5        1.0  0.52223  0.80739  0.55091  1.0000
  H   H6        1.0  0.52891  0.68941  0.46018  1.0000
  H   H7        1.0  0.39579999999999993  0.72836  0.41899  1.0000
  H   H8        1.0  0.26375000000000004  0.97091  0.26863  1.0000
  H   H9        1.0  0.42027  0.9894300000000001  0.25329  1.0000
  H   H10       1.0  0.41153999999999996  0.99717  0.3728  1.0000
  H   H11       1.0  0.27375  0.5102  0.13413  1.0000
  H   H12       1.0  0.39575  0.58832  0.26771  1.0000
  H   H13       1.0  0.44284000000000007  0.5878300000000002  0.16317  1.0000
  H   H14       1.0  0.11591000000000008  0.7738300000000002  0.13931  1.0000
  H   H15       1.0  0.21872000000000008  0.11374  0.44692  1.0000
  H   H16       1.0  0.23347999999999994  0.057150000000000034  0.7428  1.0000
  H   H17       1.0  0.30791999999999997  0.9691800000000002  0.68378  1.0000
  H   H18       1.0  0.41353999999999996  0.09832999999999995  0.7953499999999999  1.0000
  H   H19       1.0  0.47889  0.19251000000000004  0.44934999999999997  1.0000
  H   H20       1.0  0.47042000000000006  0.31009000000000003  0.53917  1.0000
  H   H21       1.0  0.60439  0.27242  0.58156  1.0000
  H   H22       1.0  0.7362299999999999  0.029110000000000007  0.7315  1.0000
  H   H23       1.0  0.57957  0.010770000000000016  0.74669  1.0000
  H   H24       1.0  0.5885599999999999  0.0028100000000000104  0.62715  1.0000
  H   H25       1.0  0.72613  0.48982  0.86602  1.0000
  H   H26       1.0  0.60398  0.41186  0.73253  1.0000
  H   H27       1.0  0.5571400000000001  0.41219  0.83708  1.0000
  H   H28       1.0  0.88401  0.22594999999999998  0.86035  1.0000
  H   H29       1.0  0.89488  0.66649  0.11311  1.0000
  H   H30       1.0  0.8235999999999997  0.31428000000000006  0.05696999999999999  1.0000
  H   H31       1.0  0.66093  0.2851500000000001  0.96941  1.0000
  H   H32       1.0  0.6853299999999998  0.30333  0.09881999999999999  1.0000
  H   H33       1.0  0.71549  0.74399  0.19291  1.0000
  H   H34       1.0  0.84037  0.7708599999999999  0.31048  1.0000
  H   H35       1.0  0.6682999999999999  0.6913400000000002  0.27218  1.0000
  H   H36       1.0  0.29317  0.2973800000000001  0.02912  1.0000
  H   H37       1.0  0.4316899999999999  0.26411  0.01083  1.0000
  H   H38       1.0  0.41441  0.37543000000000004  0.00271  1.0000
  H   H39       1.0  0.7636200000000001  0.6248900000000002  0.48991  1.0000
  H   H40       1.0  0.80927  0.67887  0.41115  1.0000
  H   H41       1.0  0.8548199999999999  0.57439  0.41283  1.0000
  H   H42       1.0  0.3420399999999999  0.36589  0.22611999999999996  1.0000
  H   H43       1.0  0.10503000000000001  0.3333  0.88662  1.0000
  H   H44       1.0  0.1765599999999999  0.68568  0.9429299999999998  1.0000
  H   H45       1.0  0.33923  0.71488  0.030669999999999996  1.0000
  H   H46       1.0  0.31493  0.69654  0.90117  1.0000
  H   H47       1.0  0.28497  0.25611  0.8071  1.0000
  H   H48       1.0  0.15973999999999994  0.2290300000000001  0.6897  1.0000
  H   H49       1.0  0.33162999999999987  0.30864999999999987  0.7276699999999998  1.0000
  H   H50       1.0  0.70728  0.70252  0.97065  1.0000
  H   H51       1.0  0.569  0.73602  0.98909  1.0000
  H   H52       1.0  0.58611  0.62465  0.99724  1.0000
  H   H53       1.0  0.23598  0.37523  0.51002  1.0000
  H   H54       1.0  0.19089  0.32161  0.58915  1.0000
  H   H55       1.0  0.1450599999999999  0.42587  0.58723  1.0000
  H   H56       1.0  0.6580400000000001  0.6344500000000002  0.77386  1.0000
  H   H57       1.0  0.22787999999999994  0.44678999999999996  0.33292  1.0000
  H   H58       1.0  0.50918  0.74208  0.68562  1.0000
  H   H59       1.0  0.3753  0.6841800000000002  0.71478  1.0000
  H   H60       1.0  0.38251999999999997  0.7956  0.69665  1.0000
  H   H61       1.0  0.9712999999999999  0.44911999999999996  0.25602  1.0000
  H   H62       1.0  0.06919999999999998  0.53998  0.22926  1.0000
  H   H63       1.0  0.9764599999999999  0.58086  0.30882  1.0000
  H   H64       1.0  0.99546  0.73147  0.70261  1.0000
  H   H65       1.0  0.16716000000000011  0.7465400000000002  0.73573  1.0000
  H   H66       1.0  0.038370000000000036  0.6270000000000001  0.62441  1.0000
  H   H67       1.0  0.13789  0.86434  0.3742699999999999  1.0000
  H   H68       1.0  0.13200000000000006  0.7323800000000001  0.32172  1.0000
  H   H69       1.0  0.28083  0.84002  0.42622999999999994  1.0000
  H   H70       1.0  0.9765799999999999  0.86049  0.63456  1.0000
  H   H71       1.0  0.7719799999999999  0.55335  0.6669099999999999  1.0000
  H   H72       1.0  0.4909499999999999  0.25831  0.31463  1.0000
  H   H73       1.0  0.62461  0.31613  0.28525  1.0000
  H   H74       1.0  0.6174299999999999  0.20465  0.30325  1.0000
  H   H75       1.0  0.02940999999999992  0.5506699999999999  0.7435699999999998  1.0000
  H   H76       1.0  0.93119  0.46066000000000007  0.77105  1.0000
  H   H77       1.0  0.022839999999999933  0.41856  0.6907999999999997  1.0000
  H   H78       1.0  0.003990000000000006  0.26866  0.29722  1.0000
  H   H79       1.0  0.83229  0.2537  0.26402  1.0000
  H   H80       1.0  0.9609499999999997  0.37292  0.37576999999999994  1.0000
  H   H81       1.0  0.86012  0.13400000000000006  0.624  1.0000
  H   H82       1.0  0.8707399999999997  0.2672799999999999  0.6791199999999997  1.0000
  H   H83       1.0  0.71959  0.16217000000000004  0.57483  1.0000
  H   H84       1.0  0.023280000000000012  0.13938  0.36545  1.0000
  C   C1        1.0  0.01549  0.08810999999999995  0.73928  1.0000
  C   C2        1.0  0.6662799999999999  0.90321  0.35045  1.0000
  C   C3        1.0  0.5450699999999999  0.8349  0.3436499999999999  1.0000
  C   C4        1.0  0.58517  0.81872  0.43026  1.0000
  C   C5        1.0  0.67886  0.9465000000000002  0.27784  1.0000
  C   C6        1.0  0.50393  0.75786  0.46704999999999997  1.0000
  C   C7        1.0  0.32430000000000003  0.83908  0.24156  1.0000
  C   C8        1.0  0.40579999999999994  0.7867600000000001  0.26442  1.0000
  C   C9        1.0  0.3205  0.67638  0.20123  1.0000
  C   C10       1.0  0.35581999999999997  0.9550000000000002  0.28599  1.0000
  C   C11       1.0  0.3597600000000001  0.5856300000000002  0.19113  1.0000
  C   C12       1.0  0.9845299999999999  0.91204  0.26076  1.0000
  C   C13       1.0  0.33378  0.09678000000000007  0.64958  1.0000
  C   C14       1.0  0.45500999999999997  0.16499  0.65629  1.0000
  C   C15       1.0  0.4149300000000001  0.18119000000000005  0.5697  1.0000
  C   C16       1.0  0.32114999999999994  0.053279999999999945  0.7220399999999999  1.0000
  C   C17       1.0  0.4962599999999999  0.24214000000000002  0.53298  1.0000
  C   C18       1.0  0.6756899999999999  0.16091  0.75839  1.0000
  C   C19       1.0  0.59424  0.21322000000000005  0.73553  1.0000
  C   C20       1.0  0.67952  0.3236300000000001  0.79879  1.0000
  C   C21       1.0  0.64417  0.04502000000000006  0.7139799999999998  1.0000
  C   C22       1.0  0.6401399999999998  0.41437999999999997  0.8090099999999999  1.0000
  C   C23       1.0  0.92731  0.65107  0.9114899999999999  1.0000
  C   C24       1.0  0.7630699999999999  0.4471600000000001  0.09668999999999998  1.0000
  C   C25       1.0  0.71027  0.50886  0.16498999999999997  1.0000
  C   C26       1.0  0.76647  0.61161  0.18106  1.0000
  C   C27       1.0  0.7321999999999999  0.33124000000000003  0.05338  1.0000
  C   C28       1.0  0.7466099999999998  0.7094800000000002  0.24223999999999998  1.0000
  C   C29       1.0  0.48547  0.4027100000000001  0.16102  1.0000
  C   C30       1.0  0.6192599999999999  0.4779  0.21327  1.0000
  C   C31       1.0  0.64434  0.52502  0.32368  1.0000
  C   C32       1.0  0.4011599999999999  0.33099  0.0451  1.0000
  C   C33       1.0  0.7745899999999999  0.6054  0.41442  1.0000
  C   C34       1.0  0.07255  0.3488100000000001  0.08825  1.0000
  C   C35       1.0  0.23710999999999996  0.55283  0.90338  1.0000
  C   C36       1.0  0.28992000000000007  0.49121000000000004  0.83504  1.0000
  C   C37       1.0  0.23375  0.38845  0.819  1.0000
  C   C38       1.0  0.26800999999999997  0.6687600000000002  0.94668  1.0000
  C   C39       1.0  0.25353  0.2905600000000001  0.75779  1.0000
  C   C40       1.0  0.5147799999999999  0.5972900000000002  0.83893  1.0000
  C   C41       1.0  0.38089  0.52223  0.78671  1.0000
  C   C42       1.0  0.35569999999999996  0.47525000000000006  0.67627  1.0000
  C   C43       1.0  0.59931  0.66903  0.9548  1.0000
  C   C44       1.0  0.22533999999999998  0.39493  0.58563  1.0000
  C   C45       1.0  0.27649  0.26059  0.3491  1.0000
  C   C46       1.0  0.31574  0.64943  0.55275  1.0000
  C   C47       1.0  0.20142000000000002  0.6562800000000002  0.49122999999999994  1.0000
  C   C48       1.0  0.15454000000000007  0.5695800000000002  0.38845  1.0000
  C   C49       1.0  0.40087  0.7219700000000002  0.6686999999999999  1.0000
  C   C50       1.0  0.036850000000000015  0.533  0.29063  1.0000
  C   C51       1.0  0.08256000000000005  0.7581800000000002  0.59725  1.0000
  C   C52       1.0  0.1413699999999999  0.73548  0.52216  1.0000
  C   C53       1.0  0.1195600000000001  0.7989100000000005  0.47517  1.0000
  C   C54       1.0  0.06975999999999996  0.71386  0.66886  1.0000
  C   C55       1.0  0.1695  0.80929  0.39476  1.0000
  C   C56       1.0  0.72385  0.73957  0.6511  1.0000
  C   C57       1.0  0.68421  0.35067  0.44724999999999987  1.0000
  C   C58       1.0  0.7984799999999997  0.34377000000000013  0.50876  1.0000
  C   C59       1.0  0.8453300000000001  0.43045999999999995  0.61158  1.0000
  C   C60       1.0  0.5991499999999998  0.27829  0.33131  1.0000
  C   C61       1.0  0.96319  0.4670100000000001  0.7093  1.0000
  C   C62       1.0  0.9169699999999997  0.24162  0.40248  1.0000
  C   C63       1.0  0.8583199999999999  0.26443  0.47769  1.0000
  C   C64       1.0  0.8803299999999998  0.20105999999999996  0.52472  1.0000
  C   C65       1.0  0.9295899999999998  0.28608  0.33093  1.0000
  C   C66       1.0  0.8307199999999998  0.19071  0.60524  1.0000
  S   S1        1.0  0.040900000000000006  0.14384000000000002  0.86473  1.0000
  S   S2        1.0  0.9591899999999999  0.8562500000000001  0.13527  1.0000
  S   S3        1.0  0.8970999999999997  0.7209599999999999  0.8559399999999999  1.0000
  S   S4        1.0  0.10286999999999998  0.27899  0.14387  1.0000
  S   S5        1.0  0.17628000000000002  0.13520000000000004  0.27902  1.0000
  S   S6        1.0  0.82396  0.865  0.72101  1.0000
  N   N1        1.0  0.9970699999999999  0.04557000000000002  0.64718  1.0000
  N   N2        1.0  0.7737799999999999  0.92568  0.4346899999999999  1.0000
  N   N3        1.0  0.7214099999999999  0.87287  0.48099  1.0000
  N   N4        1.0  0.19422000000000006  0.6615300000000002  0.14451  1.0000
  N   N5        1.0  0.20054000000000002  0.7617800000000001  0.16976  1.0000
  N   N6        1.0  0.0028299999999999974  0.95455  0.35279999999999995  1.0000
  N   N7        1.0  0.22622999999999993  0.07443000000000001  0.56545  1.0000
  N   N8        1.0  0.27861  0.12725  0.51913  1.0000
  N   N9        1.0  0.8057299999999997  0.33846  0.85565  1.0000
  N   N10       1.0  0.7993799999999996  0.23818  0.83029  1.0000
  N   N11       1.0  0.9514099999999998  0.60147  0.95399  1.0000
  N   N12       1.0  0.8481  0.50886  0.07416  1.0000
  N   N13       1.0  0.8485899999999998  0.60801  0.12689  1.0000
  N   N14       1.0  0.5329399999999999  0.48308999999999996  0.33858999999999995  1.0000
  N   N15       1.0  0.43901  0.4080600000000002  0.23832  1.0000
  N   N16       1.0  0.048510000000000005  0.39849  0.045849999999999995  1.0000
  N   N17       1.0  0.1521599999999999  0.4911400000000001  0.9259799999999998  1.0000
  N   N18       1.0  0.15158999999999995  0.3919600000000001  0.87314  1.0000
  N   N19       1.0  0.4671300000000001  0.5171200000000002  0.66135  1.0000
  N   N20       1.0  0.5612099999999999  0.5919300000000002  0.7616299999999999  1.0000
  N   N21       1.0  0.35034  0.3526400000000001  0.39893  1.0000
  N   N22       1.0  0.33876  0.5650700000000002  0.49088  1.0000
  N   N23       1.0  0.23996000000000003  0.5187800000000001  0.39181999999999995  1.0000
  N   N24       1.0  0.05015999999999995  0.8557499999999999  0.51726  1.0000
  N   N25       1.0  0.03093999999999998  0.83023  0.59206  1.0000
  N   N26       1.0  0.6500600000000001  0.64748  0.60143  1.0000
  N   N27       1.0  0.6610799999999999  0.4349300000000001  0.50916  1.0000
  N   N28       1.0  0.75969  0.48111  0.60828  1.0000
  N   N29       1.0  0.9499  0.14437  0.48276  1.0000
  N   N30       1.0  0.96887  0.16971999999999998  0.40782  1.0000
