data_image0
_chemical_formula_structural       Cd4H64C48N48
_chemical_formula_sum              "Cd4 H64 C48 N48"
_cell_length_a       7.9141
_cell_length_b       16.64481
_cell_length_c       14.03381
_cell_angle_alpha    89.99742
_cell_angle_beta     90.31941
_cell_angle_gamma    89.97429

_symmetry_space_group_name_H-M    'P 1'
_symmetry_Int_Tables_number       1

loop_
  _symmetry_equiv_pos_as_xyz
  'x,y,z'

loop_
  _atom_site_type_symbol
  _atom_site_label
  _atom_site_symmetry_multiplicity
  _atom_site_fract_x
  _atom_site_fract_y
  _atom_site_fract_z
  _atom_site_occupancy
  Cd  Cd1       1.0  0.75835  0.74848  0.75054  1.0000
  Cd  Cd2       1.0  0.74167  0.24860000000000002  0.24945  1.0000
  Cd  Cd3       1.0  0.24163999999999994  0.25151  0.24946  1.0000
  Cd  Cd4       1.0  0.2583199999999999  0.75139  0.75055  1.0000
  H   H1        1.0  0.9129399999999998  0.10919  0.80245  1.0000
  H   H2        1.0  0.23517999999999994  0.11228  0.8181700000000001  1.0000
  H   H3        1.0  0.1389  0.24413  0.59964  1.0000
  H   H4        1.0  0.7405199999999997  0.6421  0.52858  1.0000
  H   H5        1.0  0.2778  0.6267  0.55189  1.0000
  H   H6        1.0  0.12445999999999997  0.52738  0.42321  1.0000
  H   H7        1.0  0.90205  0.53421  0.41317  1.0000
  H   H8        1.0  0.5873399999999998  0.60927  0.19756000000000004  1.0000
  H   H9        1.0  0.2651  0.61257  0.18185  1.0000
  H   H10       1.0  0.36117  0.74437  0.40039  1.0000
  H   H11       1.0  0.75965  0.14198  0.47132  1.0000
  H   H12       1.0  0.22231999999999993  0.12684999999999996  0.44804  1.0000
  H   H13       1.0  0.37547999999999987  0.02751  0.57671  1.0000
  H   H14       1.0  0.59787  0.03418  0.58685  1.0000
  H   H15       1.0  0.06732999999999997  0.89405  0.32238999999999995  1.0000
  H   H16       1.0  0.7482999999999997  0.8878699999999999  0.30707  1.0000
  H   H17       1.0  0.8652199999999998  0.75397  0.098  1.0000
  H   H18       1.0  0.25621  0.35630999999999996  0.02724  1.0000
  H   H19       1.0  0.7197899999999998  0.37424  0.05193  1.0000
  H   H20       1.0  0.8721999999999998  0.47404  0.92354  1.0000
  H   H21       1.0  0.09390999999999997  0.4656  0.9125099999999999  1.0000
  H   H22       1.0  0.43236999999999987  0.39398  0.6776000000000001  1.0000
  H   H23       1.0  0.7514099999999998  0.38759  0.69292  1.0000
  H   H24       1.0  0.6346599999999998  0.2536999999999999  0.90196  1.0000
  H   H25       1.0  0.24370999999999995  0.8564  0.97273  1.0000
  H   H26       1.0  0.7801199999999998  0.87414  0.9479  1.0000
  H   H27       1.0  0.62806  0.97393  0.07627999999999999  1.0000
  H   H28       1.0  0.4064  0.9655799999999999  0.08758  1.0000
  H   H29       1.0  0.08704999999999997  0.8907999999999998  0.19756000000000004  1.0000
  H   H30       1.0  0.7648199999999998  0.88772  0.18182  1.0000
  H   H31       1.0  0.86109  0.75586  0.40036  1.0000
  H   H32       1.0  0.25947  0.3579  0.47142000000000006  1.0000
  H   H33       1.0  0.72219  0.3733  0.44811  1.0000
  H   H34       1.0  0.8755399999999998  0.47261  0.57678  1.0000
  H   H35       1.0  0.09794  0.46578  0.58683  1.0000
  H   H36       1.0  0.4126499999999999  0.39072  0.80244  1.0000
  H   H37       1.0  0.73489  0.38742  0.81815  1.0000
  H   H38       1.0  0.63883  0.25563  0.59961  1.0000
  H   H39       1.0  0.24033999999999994  0.85801  0.52868  1.0000
  H   H40       1.0  0.77767  0.87315  0.55196  1.0000
  H   H41       1.0  0.62452  0.97249  0.42329  1.0000
  H   H42       1.0  0.40212  0.9658099999999998  0.41315  1.0000
  H   H43       1.0  0.93266  0.10594  0.67761  1.0000
  H   H44       1.0  0.25169  0.11212  0.69293  1.0000
  H   H45       1.0  0.13476999999999995  0.24603  0.902  1.0000
  H   H46       1.0  0.7437799999999998  0.64369  0.97276  1.0000
  H   H47       1.0  0.2802  0.62575  0.94807  1.0000
  H   H48       1.0  0.12778999999999993  0.52596  0.07646  1.0000
  H   H49       1.0  0.90608  0.53439  0.08749  1.0000
  H   H50       1.0  0.56763  0.60601  0.3224  1.0000
  H   H51       1.0  0.24858999999999995  0.6124  0.30708  1.0000
  H   H52       1.0  0.3653299999999999  0.74629  0.09804  1.0000
  H   H53       1.0  0.7562799999999997  0.14359  0.02727  1.0000
  H   H54       1.0  0.21987  0.12586  0.0521  1.0000
  H   H55       1.0  0.37194  0.02607  0.92372  1.0000
  H   H56       1.0  0.5935999999999998  0.03442  0.91242  1.0000
  H   H57       1.0  0.73575  0.9694599999999999  0.75203  1.0000
  H   H58       1.0  0.27597  0.9688399999999999  0.74783  1.0000
  H   H59       1.0  0.76425  0.46936  0.24789999999999998  1.0000
  H   H60       1.0  0.22404  0.46921  0.25222  1.0000
  H   H61       1.0  0.26424  0.030539999999999998  0.24796  1.0000
  H   H62       1.0  0.72402  0.03116  0.25218  1.0000
  H   H63       1.0  0.23573999999999995  0.53063  0.7521  1.0000
  H   H64       1.0  0.77596  0.53078  0.74778  1.0000
  C   C1        1.0  0.12896  0.26481  0.6727  1.0000
  C   C2        1.0  0.8674499999999998  0.6448  0.55761  1.0000
  C   C3        1.0  0.14660999999999996  0.63868  0.56758  1.0000
  C   C4        1.0  0.0075  0.53505  0.46447  1.0000
  C   C5        1.0  0.37106  0.76506  0.32734  1.0000
  C   C6        1.0  0.63269  0.14473  0.44232  1.0000
  C   C7        1.0  0.35352  0.13879  0.43238  1.0000
  C   C8        1.0  0.4924999999999999  0.03507  0.5355  1.0000
  C   C9        1.0  0.87322  0.7342  0.17155  1.0000
  C   C10       1.0  0.13002999999999995  0.35447  0.05658  1.0000
  C   C11       1.0  0.8512599999999998  0.3620699999999999  0.06745  1.0000
  C   C12       1.0  0.9901699999999998  0.46519  0.96425  1.0000
  C   C13       1.0  0.62672  0.23393999999999995  0.82841  1.0000
  C   C14       1.0  0.36986999999999987  0.85453  0.94335  1.0000
  C   C15       1.0  0.6486399999999998  0.86199  0.93243  1.0000
  C   C16       1.0  0.50993  0.9651600000000001  0.03570999999999999  1.0000
  C   C17       1.0  0.8710399999999998  0.73518  0.3273  1.0000
  C   C18       1.0  0.13253999999999994  0.3552  0.44239  1.0000
  C   C19       1.0  0.85338  0.36131  0.43242  1.0000
  C   C20       1.0  0.9924999999999998  0.46495  0.53552  1.0000
  C   C21       1.0  0.62893  0.23493  0.6726599999999999  1.0000
  C   C22       1.0  0.3672999999999999  0.85526  0.55768  1.0000
  C   C23       1.0  0.64647  0.8611999999999997  0.56761  1.0000
  C   C24       1.0  0.5074899999999998  0.96493  0.4645  1.0000
  C   C25       1.0  0.12676999999999994  0.2658  0.82845  1.0000
  C   C26       1.0  0.8699599999999997  0.64553  0.94342  1.0000
  C   C27       1.0  0.14872999999999995  0.63793  0.93255  1.0000
  C   C28       1.0  0.00982  0.5348  0.03575  1.0000
  C   C29       1.0  0.37328  0.76605  0.17159  1.0000
  C   C30       1.0  0.6301199999999998  0.14547  0.05665  1.0000
  C   C31       1.0  0.3513499999999999  0.13801  0.06756  1.0000
  C   C32       1.0  0.4900599999999999  0.03483  0.96429  1.0000
  C   C33       1.0  0.86551  0.9494  0.75028  1.0000
  C   C34       1.0  0.14547999999999994  0.94993  0.74792  1.0000
  C   C35       1.0  0.99527  0.08776  0.74471  1.0000
  C   C36       1.0  0.16854999999999995  0.1286  0.75218  1.0000
  C   C37       1.0  0.63446  0.44943  0.24968  1.0000
  C   C38       1.0  0.3544799999999999  0.45018  0.25207  1.0000
  C   C39       1.0  0.5049699999999998  0.5879  0.2553  1.0000
  C   C40       1.0  0.33173999999999987  0.62886  0.24785  1.0000
  C   C41       1.0  0.13449  0.0506  0.24972  1.0000
  C   C42       1.0  0.8545099999999998  0.05007  0.25208  1.0000
  C   C43       1.0  0.00472  0.91223  0.2553  1.0000
  C   C44       1.0  0.8314399999999997  0.87139  0.24782  1.0000
  C   C45       1.0  0.3655299999999999  0.55057  0.75032  1.0000
  C   C46       1.0  0.6455099999999998  0.54981  0.74792  1.0000
  C   C47       1.0  0.4950199999999999  0.4121  0.7447  1.0000
  C   C48       1.0  0.66825  0.37114  0.75215  1.0000
  N   N1        1.0  0.10106999999999997  0.33991  0.70028  1.0000
  N   N2        1.0  0.9204499999999998  0.69607  0.6257900000000001  1.0000
  N   N3        1.0  0.09124  0.69167  0.63184  1.0000
  N   N4        1.0  0.00973  0.61076  0.51298  1.0000
  N   N5        1.0  0.39864999999999984  0.8401799999999998  0.29975  1.0000
  N   N6        1.0  0.5796999999999998  0.19605  0.37415  1.0000
  N   N7        1.0  0.4089  0.19175  0.36813  1.0000
  N   N8        1.0  0.4903899999999999  0.11078  0.48696  1.0000
  N   N9        1.0  0.9000999999999998  0.6594399999999999  0.20092  1.0000
  N   N10       1.0  0.07780999999999998  0.30353  0.12503  1.0000
  N   N11       1.0  0.90742  0.30881  0.13167  1.0000
  N   N12       1.0  0.9871299999999997  0.38909  0.01199  1.0000
  N   N13       1.0  0.60015  0.15917  0.7990499999999999  1.0000
  N   N14       1.0  0.4220699999999999  0.80356  0.87491  1.0000
  N   N15       1.0  0.59245  0.80876  0.86824  1.0000
  N   N16       1.0  0.51283  0.88907  0.98792  1.0000
  N   N17       1.0  0.89893  0.66008  0.29972  1.0000
  N   N18       1.0  0.07953999999999997  0.30392  0.37421  1.0000
  N   N19       1.0  0.90875  0.30832  0.36816  1.0000
  N   N20       1.0  0.9902599999999998  0.38923  0.48702  1.0000
  N   N21       1.0  0.6013499999999998  0.15981  0.70025  1.0000
  N   N22       1.0  0.4202999999999999  0.80394  0.62584  1.0000
  N   N23       1.0  0.59109  0.80824  0.63187  1.0000
  N   N24       1.0  0.5096  0.88922  0.51304  1.0000
  N   N25       1.0  0.09988999999999998  0.34055  0.79908  1.0000
  N   N26       1.0  0.9221899999999997  0.69646  0.87497  1.0000
  N   N27       1.0  0.09256999999999999  0.69118  0.86833  1.0000
  N   N28       1.0  0.012859999999999996  0.61091  0.98801  1.0000
  N   N29       1.0  0.3998399999999999  0.84082  0.20095  1.0000
  N   N30       1.0  0.5779199999999998  0.19644  0.12509  1.0000
  N   N31       1.0  0.40754  0.19123  0.13176  1.0000
  N   N32       1.0  0.48715999999999987  0.11092  0.01208  1.0000
  N   N33       1.0  0.92051  0.87329  0.75073  1.0000
  N   N34       1.0  0.09240999999999998  0.87389  0.7492599999999999  1.0000
  N   N35       1.0  0.0053799999999999985  0.00069  0.74948  1.0000
  N   N36       1.0  0.14795999999999995  0.21559  0.75118  1.0000
  N   N37       1.0  0.5793099999999999  0.37335  0.24921  1.0000
  N   N38       1.0  0.4074099999999999  0.3741  0.25069  1.0000
  N   N39       1.0  0.4946799999999999  0.50083  0.2505  1.0000
  N   N40       1.0  0.3523  0.71584  0.24885  1.0000
  N   N41       1.0  0.07948999999999998  0.12671  0.24927  1.0000
  N   N42       1.0  0.9075899999999998  0.1261  0.25073  1.0000
  N   N43       1.0  0.9946099999999998  0.99931  0.25052  1.0000
  N   N44       1.0  0.85204  0.7844  0.24882  1.0000
  N   N45       1.0  0.4206799999999999  0.62664  0.75079  1.0000
  N   N46       1.0  0.59258  0.62589  0.74931  1.0000
  N   N47       1.0  0.50531  0.49916999999999995  0.74949  1.0000
  N   N48       1.0  0.6476899999999998  0.28416  0.75114  1.0000
