data_image0
_chemical_formula_structural       Cd6H60C108O36
_chemical_formula_sum              "Cd6 H60 C108 O36"
_cell_length_a       10.61894
_cell_length_b       15.94707
_cell_length_c       19.1718
_cell_angle_alpha    97.67424999999999
_cell_angle_beta     89.99635999999998
_cell_angle_gamma    90.02008

_symmetry_space_group_name_H-M    'P 1'
_symmetry_Int_Tables_number       1

loop_
  _symmetry_equiv_pos_as_xyz
  'x,y,z'

loop_
  _atom_site_type_symbol
  _atom_site_label
  _atom_site_symmetry_multiplicity
  _atom_site_fract_x
  _atom_site_fract_y
  _atom_site_fract_z
  _atom_site_occupancy
  Cd  Cd1       1.0  0.56634  0.95333  0.57536  1.0000
  Cd  Cd2       1.0  0.43367  0.04667  0.42465  1.0000
  Cd  Cd3       1.0  0.56631  0.04725999999999998  0.92456  1.0000
  Cd  Cd4       1.0  0.47892  0.99988  0.75  1.0000
  Cd  Cd5       1.0  0.52108  0.00011999999999999928  0.25001  1.0000
  Cd  Cd6       1.0  0.43369  0.95274  0.07545000000000002  1.0000
  H   H1        1.0  0.35138  0.3488  0.76783  1.0000
  H   H2        1.0  0.15175  0.81968  0.7254  1.0000
  H   H3        1.0  0.88131  0.6703000000000002  0.9811300000000001  1.0000
  H   H4        1.0  0.81848  0.33225  0.06235  1.0000
  H   H5        1.0  0.1187  0.3297  0.01887  1.0000
  H   H6        1.0  0.70458  0.19809  0.02534  1.0000
  H   H7        1.0  0.29552  0.19826000000000005  0.52534  1.0000
  H   H8        1.0  0.18152  0.66774  0.93766  1.0000
  H   H9        1.0  0.64862  0.65119  0.23217  1.0000
  H   H10       1.0  0.7796200000000001  0.78583  0.8848400000000002  1.0000
  H   H11       1.0  0.15156  0.18041000000000001  0.7741900000000002  1.0000
  H   H12       1.0  0.99167  0.2965400000000001  0.8044100000000001  1.0000
  H   H13       1.0  0.70449  0.80173  0.47466  1.0000
  H   H14       1.0  0.7767  0.51571  0.58643  1.0000
  H   H15       1.0  0.99122  0.34086  0.6935400000000003  1.0000
  H   H16       1.0  0.68728  0.31867  0.86555  1.0000
  H   H17       1.0  0.22331000000000004  0.48429  0.41357  1.0000
  H   H18       1.0  0.18135  0.3322400000000001  0.56244  1.0000
  H   H19       1.0  0.11869000000000002  0.67009  0.48093  1.0000
  H   H20       1.0  0.72448  0.57879  0.71967  1.0000
  H   H21       1.0  0.22353  0.51663  0.08725  1.0000
  H   H22       1.0  0.22038  0.21416  0.11516000000000001  1.0000
  H   H23       1.0  0.53801  0.21167  0.23164  1.0000
  H   H24       1.0  0.72465  0.78843  0.011020000000000004  1.0000
  H   H25       1.0  0.27553  0.4212  0.28033  1.0000
  H   H26       1.0  0.008510000000000002  0.34139  0.19398  1.0000
  H   H27       1.0  0.74074  0.88898  0.79873  1.0000
  H   H28       1.0  0.17447  0.5574  0.62594  1.0000
  H   H29       1.0  0.7248  0.21164000000000008  0.48944  1.0000
  H   H30       1.0  0.53778  0.7882  0.2683900000000001  1.0000
  H   H31       1.0  0.72474  0.42101  0.77839  1.0000
  H   H32       1.0  0.27535  0.21156  0.98899  1.0000
  H   H33       1.0  0.22081000000000003  0.78765  0.3855900000000001  1.0000
  H   H34       1.0  0.77919  0.21235000000000004  0.6144200000000001  1.0000
  H   H35       1.0  0.8186500000000001  0.66776  0.43757  1.0000
  H   H36       1.0  0.84826  0.18031  0.2746  1.0000
  H   H37       1.0  0.00804  0.29667  0.30453  1.0000
  H   H38       1.0  0.25958  0.88937  0.29829  1.0000
  H   H39       1.0  0.31296  0.31783  0.36639  1.0000
  H   H40       1.0  0.46199000000000007  0.78833  0.76836  1.0000
  H   H41       1.0  0.8255300000000001  0.4426  0.3740600000000001  1.0000
  H   H42       1.0  0.68705  0.68217  0.63362  1.0000
  H   H43       1.0  0.00833  0.70345  0.19559  1.0000
  H   H44       1.0  0.29542  0.8019100000000003  0.9746600000000001  1.0000
  H   H45       1.0  0.25926  0.11102000000000001  0.20127  1.0000
  H   H46       1.0  0.008780000000000001  0.65913  0.30647  1.0000
  H   H47       1.0  0.17471  0.44275  0.87448  1.0000
  H   H48       1.0  0.8813200000000001  0.32991  0.5190700000000003  1.0000
  H   H49       1.0  0.35145  0.65116  0.73226  1.0000
  H   H50       1.0  0.7764800000000001  0.48336  0.9127500000000001  1.0000
  H   H51       1.0  0.31272  0.68132  0.13445  1.0000
  H   H52       1.0  0.8253000000000001  0.55725  0.12553  1.0000
  H   H53       1.0  0.9914900000000001  0.65861  0.8060300000000001  1.0000
  H   H54       1.0  0.74043  0.11062000000000002  0.70171  1.0000
  H   H55       1.0  0.27526  0.57899  0.22161000000000003  1.0000
  H   H56       1.0  0.99197  0.70333  0.69548  1.0000
  H   H57       1.0  0.84844  0.81959  0.22581000000000004  1.0000
  H   H58       1.0  0.64856  0.34883  0.26774  1.0000
  H   H59       1.0  0.46222  0.2118  0.73162  1.0000
  H   H60       1.0  0.27521  0.78836  0.51057  1.0000
  C   C1        1.0  0.04871  0.68096  0.58695  1.0000
  C   C2        1.0  0.12734  0.42417  0.14112  1.0000
  C   C3        1.0  0.87443  0.29579  0.46625  1.0000
  C   C4        1.0  0.71037  0.7915100000000002  0.7114000000000003  1.0000
  C   C5        1.0  0.048580000000000005  0.31883  0.9128700000000001  1.0000
  C   C6        1.0  0.025920000000000002  0.45521  0.39679  1.0000
  C   C7        1.0  0.67631  0.85239  0.6622100000000001  1.0000
  C   C8        1.0  0.31988  0.12199000000000004  0.8635800000000001  1.0000
  C   C9        1.0  0.54758  0.88549  0.39347  1.0000
  C   C10       1.0  0.12558  0.7042099999999999  0.53376  1.0000
  C   C11       1.0  0.8654500000000002  0.49652  0.60754  1.0000
  C   C12       1.0  0.7573600000000001  0.6945  0.40077  1.0000
  C   C13       1.0  0.77805  0.18904  0.38048  1.0000
  C   C14       1.0  0.72786  0.64663  0.7364200000000001  1.0000
  C   C15       1.0  0.21193  0.23029  0.94929  1.0000
  C   C16       1.0  0.24271  0.69453  0.90084  1.0000
  C   C17       1.0  0.3853  0.19499000000000005  0.6265900000000002  1.0000
  C   C18       1.0  0.29244  0.70365  0.18943000000000004  1.0000
  C   C19       1.0  0.5475  0.11434000000000001  0.10653  1.0000
  C   C20       1.0  0.25993  0.34772  0.6675400000000002  1.0000
  C   C21       1.0  0.9857  0.39761  0.6681100000000001  1.0000
  C   C22       1.0  0.87267  0.57583  0.8588800000000001  1.0000
  C   C23       1.0  0.71025  0.20877000000000004  0.7881700000000001  1.0000
  C   C24       1.0  0.33987  0.31469  0.71526  1.0000
  C   C25       1.0  0.70749  0.70398  0.6886800000000001  1.0000
  C   C26       1.0  0.32393  0.85159  0.16229  1.0000
  C   C27       1.0  0.66011  0.31465  0.21519  1.0000
  C   C28       1.0  0.22196  0.81096  0.61953  1.0000
  C   C29       1.0  0.74007  0.65227  0.33246  1.0000
  C   C30       1.0  0.12558  0.29565  0.96603  1.0000
  C   C31       1.0  0.05514000000000001  0.72247  0.6558700000000002  1.0000
  C   C32       1.0  0.45243  0.1145  0.60654  1.0000
  C   C33       1.0  0.95143  0.68117  0.08713000000000001  1.0000
  C   C34       1.0  0.75188  0.32172  0.6919700000000002  1.0000
  C   C35       1.0  0.73996  0.34774  0.16746  1.0000
  C   C36       1.0  0.27215000000000006  0.35336  0.26359  1.0000
  C   C37       1.0  0.32369  0.14761  0.33779  1.0000
  C   C38       1.0  0.24098  0.76504  0.33067  1.0000
  C   C39       1.0  0.97408  0.54478  0.60321  1.0000
  C   C40       1.0  0.24812000000000003  0.67828  0.30803  1.0000
  C   C41       1.0  0.95129  0.31904  0.41305  1.0000
  C   C42       1.0  0.31997  0.87794  0.63625  1.0000
  C   C43       1.0  0.86523  0.5029  0.8918500000000001  1.0000
  C   C44       1.0  0.8572100000000001  0.21283  0.32793  1.0000
  C   C45       1.0  0.7379300000000001  0.17856  0.71778  1.0000
  C   C46       1.0  0.014300000000000002  0.60239  0.3319  1.0000
  C   C47       1.0  0.9070899999999998  0.44706  0.16151000000000001  1.0000
  C   C48       1.0  0.26194  0.17884  0.21806  1.0000
  C   C49       1.0  0.59871  0.76145  0.30515  1.0000
  C   C50       1.0  0.98586  0.60199  0.83162  1.0000
  C   C51       1.0  0.26207  0.82143  0.28223  1.0000
  C   C52       1.0  0.61475  0.19483  0.12656  1.0000
  C   C53       1.0  0.28975  0.79123  0.21183  1.0000
  C   C54       1.0  0.75194  0.67747  0.80696  1.0000
  C   C55       1.0  0.7075700000000001  0.29635  0.81057  1.0000
  C   C56       1.0  0.054990000000000004  0.27739  0.84393  1.0000
  C   C57       1.0  0.26005  0.6522600000000002  0.83254  1.0000
  C   C58       1.0  0.22193  0.18904  0.88012  1.0000
  C   C59       1.0  0.24807  0.32253  0.19304  1.0000
  C   C60       1.0  0.72801  0.35304  0.7624000000000002  1.0000
  C   C61       1.0  0.8727  0.4237000000000001  0.6406200000000002  1.0000
  C   C62       1.0  0.9072800000000001  0.55315  0.33852000000000004  1.0000
  C   C63       1.0  0.08962  0.47938000000000003  0.8702900000000002  1.0000
  C   C64       1.0  0.68003  0.12205  0.36375  1.0000
  C   C65       1.0  0.68012  0.878  0.13642  1.0000
  C   C66       1.0  0.974  0.45492  0.89655  1.0000
  C   C67       1.0  0.6147  0.80501  0.37341  1.0000
  C   C68       1.0  0.21192000000000003  0.76967  0.55035  1.0000
  C   C69       1.0  0.75903  0.23495000000000002  0.6693300000000002  1.0000
  C   C70       1.0  0.5988  0.23843  0.19482  1.0000
  C   C71       1.0  0.28964  0.20849000000000004  0.2886  1.0000
  C   C72       1.0  0.87443  0.70435  0.03398  1.0000
  C   C73       1.0  0.66014  0.6853  0.28474  1.0000
  C   C74       1.0  0.9105  0.4795  0.37021  1.0000
  C   C75       1.0  0.67607  0.1484  0.83771  1.0000
  C   C76       1.0  0.85731  0.7871999999999999  0.17244  1.0000
  C   C77       1.0  0.1427  0.21279  0.82757  1.0000
  C   C78       1.0  0.40129  0.23855  0.69486  1.0000
  C   C79       1.0  0.78807  0.76971  0.05071000000000001  1.0000
  C   C80       1.0  0.33989  0.6853400000000001  0.7848100000000001  1.0000
  C   C81       1.0  0.13477  0.49709  0.10815  1.0000
  C   C82       1.0  0.08951  0.5205000000000002  0.62979  1.0000
  C   C83       1.0  0.69363  0.77022  0.42109  1.0000
  C   C84       1.0  0.7780800000000001  0.81096  0.11989000000000001  1.0000
  C   C85       1.0  0.014150000000000001  0.39801  0.16839000000000004  1.0000
  C   C86       1.0  0.29252  0.29602  0.3113300000000001  1.0000
  C   C87       1.0  0.30634  0.77035  0.9211200000000002  1.0000
  C   C88       1.0  0.1428  0.78717  0.67208  1.0000
  C   C89       1.0  0.13455  0.50348  0.3924700000000001  1.0000
  C   C90       1.0  0.272  0.64695  0.2376  1.0000
  C   C91       1.0  0.78809  0.23033000000000003  0.44965000000000005  1.0000
  C   C92       1.0  0.24088000000000004  0.23585  0.17016  1.0000
  C   C93       1.0  0.7572900000000001  0.30546  0.09917  1.0000
  C   C94       1.0  0.7591200000000001  0.76415  0.8298400000000001  1.0000
  C   C95       1.0  0.12731  0.57629  0.35938000000000003  1.0000
  C   C96       1.0  0.38526  0.80517  0.8734400000000001  1.0000
  C   C97       1.0  0.69367  0.22964  0.07888  1.0000
  C   C98       1.0  0.40120000000000006  0.76156  0.80518  1.0000
  C   C99       1.0  0.24265  0.3055  0.59923  1.0000
  C   C100      1.0  0.91039  0.52062  0.12971000000000002  1.0000
  C   C101      1.0  0.73806  0.82116  0.78194  1.0000
  C   C102      1.0  0.026  0.54508  0.10345000000000001  1.0000
  C   C103      1.0  0.4525  0.88565  0.8934800000000002  1.0000
  C   C104      1.0  0.30637  0.22978  0.57891  1.0000
  C   C105      1.0  0.94487  0.27752  0.34414  1.0000
  C   C106      1.0  0.09292  0.5529300000000003  0.83849  1.0000
  C   C107      1.0  0.9450200000000001  0.72261  0.15607  1.0000
  C   C108      1.0  0.09272  0.44684999999999997  0.66148  1.0000
  O   O1        1.0  0.34289000000000003  0.90287  0.70124  1.0000
  O   O2        1.0  0.20645  0.57463  0.8091  1.0000
  O   O3        1.0  0.54412  0.07778  0.04259  1.0000
  O   O4        1.0  0.7617600000000001  0.3782  0.64243  1.0000
  O   O5        1.0  0.4558900000000001  0.92221  0.95741  1.0000
  O   O6        1.0  0.62662  0.09633000000000004  0.41645000000000004  1.0000
  O   O7        1.0  0.65052  0.07069  0.81271  1.0000
  O   O8        1.0  0.03825  0.61602  0.06942000000000001  1.0000
  O   O9        1.0  0.6505  0.92979  0.68765  1.0000
  O   O10       1.0  0.6269  0.90363  0.08364  1.0000
  O   O11       1.0  0.34292  0.09685  0.79865  1.0000
  O   O12       1.0  0.66874  0.1734  0.9033600000000002  1.0000
  O   O13       1.0  0.7618800000000001  0.62148  0.8569700000000001  1.0000
  O   O14       1.0  0.34948  0.9293  0.1873  1.0000
  O   O15       1.0  0.96175  0.38398  0.93059  1.0000
  O   O16       1.0  0.48703  0.07931  0.15314000000000005  1.0000
  O   O17       1.0  0.9617900000000001  0.61582  0.5693400000000001  1.0000
  O   O18       1.0  0.51284  0.07938000000000005  0.6531100000000002  1.0000
  O   O19       1.0  0.7935500000000001  0.42536  0.1909  1.0000
  O   O20       1.0  0.37311  0.09637  0.91636  1.0000
  O   O21       1.0  0.54424  0.92189  0.45742  1.0000
  O   O22       1.0  0.79376  0.57471  0.30904000000000004  1.0000
  O   O23       1.0  0.34951  0.07021  0.31236  1.0000
  O   O24       1.0  0.33076  0.1716  0.40363  1.0000
  O   O25       1.0  0.6692400000000001  0.8284  0.59637  1.0000
  O   O26       1.0  0.20624  0.42529  0.69096  1.0000
  O   O27       1.0  0.48716  0.92061  0.34689000000000003  1.0000
  O   O28       1.0  0.65711  0.09713000000000002  0.29876  1.0000
  O   O29       1.0  0.33126  0.82659  0.09664000000000002  1.0000
  O   O30       1.0  0.45577  0.07811  0.54258  1.0000
  O   O31       1.0  0.65708  0.90315  0.20136000000000007  1.0000
  O   O32       1.0  0.37338  0.9036700000000001  0.5835500000000001  1.0000
  O   O33       1.0  0.23825000000000002  0.6218  0.35757  1.0000
  O   O34       1.0  0.51298  0.9206800000000002  0.8468700000000001  1.0000
  O   O35       1.0  0.03822  0.38417  0.43066000000000004  1.0000
  O   O36       1.0  0.23812  0.37851  0.14303  1.0000
