data_image0
_chemical_formula_structural       Cd12H56C80N24O16
_chemical_formula_sum              "Cd12 H56 C80 N24 O16"
_cell_length_a       11.77217
_cell_length_b       16.31062
_cell_length_c       25.84137
_cell_angle_alpha    89.80854
_cell_angle_beta     89.87069
_cell_angle_gamma    110.84520000000002

_symmetry_space_group_name_H-M    'P 1'
_symmetry_Int_Tables_number       1

loop_
  _symmetry_equiv_pos_as_xyz
  'x,y,z'

loop_
  _atom_site_type_symbol
  _atom_site_label
  _atom_site_symmetry_multiplicity
  _atom_site_fract_x
  _atom_site_fract_y
  _atom_site_fract_z
  _atom_site_occupancy
  Cd  Cd1       1.0  0.54803  0.06421  0.12293  1.0000
  Cd  Cd2       1.0  0.8646399999999997  0.03870000000000001  0.12908  1.0000
  Cd  Cd3       1.0  0.32613999999999993  0.94292  0.1282  1.0000
  Cd  Cd4       1.0  0.9528099999999999  0.93788  0.6231  1.0000
  Cd  Cd5       1.0  0.63543  0.96216  0.62906  1.0000
  Cd  Cd6       1.0  0.17587  0.05912000000000001  0.62834  1.0000
  Cd  Cd7       1.0  0.45196  0.9358000000000002  0.87706  1.0000
  Cd  Cd8       1.0  0.1353600000000001  0.9613000000000003  0.8709200000000001  1.0000
  Cd  Cd9       1.0  0.67386  0.05709  0.8718  1.0000
  Cd  Cd10      1.0  0.047189999999999996  0.062119999999999995  0.37690000000000007  1.0000
  Cd  Cd11      1.0  0.36457  0.03784  0.37094000000000005  1.0000
  Cd  Cd12      1.0  0.8241299999999998  0.94088  0.37166  1.0000
  H   H1        1.0  0.9342699999999998  0.15947  0.23174  1.0000
  H   H2        1.0  0.11681999999999997  0.27441  0.26716  1.0000
  H   H3        1.0  0.02129  0.47200000000000003  0.18576000000000004  1.0000
  H   H4        1.0  0.83559  0.35622  0.15227  1.0000
  H   H5        1.0  0.24872000000000002  0.4235400000000001  0.27374  1.0000
  H   H6        1.0  0.15131999999999998  0.56178  0.2301  1.0000
  H   H7        1.0  0.28287  0.70981  0.23395000000000005  1.0000
  H   H8        1.0  0.4569200000000001  0.8276800000000002  0.27361  1.0000
  H   H9        1.0  0.3692799999999999  0.51763  0.32494  1.0000
  H   H10       1.0  0.54908  0.6368000000000003  0.36126  1.0000
  H   H11       1.0  0.92914  0.04882  0.99165  1.0000
  H   H12       1.0  0.5913499999999999  0.07968  0.988  1.0000
  H   H13       1.0  0.23039000000000007  0.9291800000000002  0.27038  1.0000
  H   H14       1.0  0.60859  0.028240000000000008  0.29796  1.0000
  H   H15       1.0  0.56469  0.8405700000000002  0.73201  1.0000
  H   H16       1.0  0.38197  0.72468  0.7676500000000003  1.0000
  H   H17       1.0  0.4793  0.52881  0.6858600000000002  1.0000
  H   H18       1.0  0.6653699999999999  0.64555  0.65238  1.0000
  H   H19       1.0  0.2505  0.57535  0.77419  1.0000
  H   H20       1.0  0.3479899999999999  0.43797000000000014  0.72975  1.0000
  H   H21       1.0  0.21712  0.28972  0.7340100000000002  1.0000
  H   H22       1.0  0.04211  0.17129  0.7736900000000001  1.0000
  H   H23       1.0  0.12918  0.48041  0.8251  1.0000
  H   H24       1.0  0.9488500000000001  0.36105  0.86136  1.0000
  H   H25       1.0  0.5696900000000001  0.9496600000000002  0.49146000000000006  1.0000
  H   H26       1.0  0.9080300000000001  0.9196900000000002  0.48792000000000013  1.0000
  H   H27       1.0  0.2695  0.07187000000000002  0.77  1.0000
  H   H28       1.0  0.8911999999999998  0.96983  0.79843  1.0000
  H   H29       1.0  0.06573000000000011  0.8405400000000002  0.76826  1.0000
  H   H30       1.0  0.8831799999999999  0.72559  0.73284  1.0000
  H   H31       1.0  0.9787099999999999  0.5280000000000002  0.81424  1.0000
  H   H32       1.0  0.16440999999999997  0.64378  0.84773  1.0000
  H   H33       1.0  0.75128  0.57646  0.72625  1.0000
  H   H34       1.0  0.8486699999999998  0.43822  0.7699  1.0000
  H   H35       1.0  0.7171299999999999  0.2901900000000001  0.7660500000000002  1.0000
  H   H36       1.0  0.54308  0.17232  0.72639  1.0000
  H   H37       1.0  0.63072  0.48237000000000013  0.67506  1.0000
  H   H38       1.0  0.4509099999999999  0.3632000000000001  0.63874  1.0000
  H   H39       1.0  0.07086000000000009  0.9511800000000002  0.00834  1.0000
  H   H40       1.0  0.40864999999999996  0.92033  0.012000000000000004  1.0000
  H   H41       1.0  0.7696099999999999  0.07083  0.72962  1.0000
  H   H42       1.0  0.3914099999999999  0.9717700000000002  0.70204  1.0000
  H   H43       1.0  0.4353099999999999  0.15943000000000004  0.26798  1.0000
  H   H44       1.0  0.6180299999999999  0.27532  0.23235000000000006  1.0000
  H   H45       1.0  0.5207  0.47119  0.31413  1.0000
  H   H46       1.0  0.33463  0.3544500000000001  0.34762  1.0000
  H   H47       1.0  0.7495  0.42466  0.22580000000000006  1.0000
  H   H48       1.0  0.65201  0.56203  0.27024  1.0000
  H   H49       1.0  0.7828800000000001  0.7102800000000002  0.26598  1.0000
  H   H50       1.0  0.9578799999999998  0.8287100000000002  0.22631000000000004  1.0000
  H   H51       1.0  0.8708199999999999  0.51959  0.1749  1.0000
  H   H52       1.0  0.05115  0.63895  0.13863  1.0000
  H   H53       1.0  0.4303099999999999  0.05034000000000002  0.50854  1.0000
  H   H54       1.0  0.09196999999999998  0.08031  0.51208  1.0000
  H   H55       1.0  0.7305  0.9281300000000002  0.22999  1.0000
  H   H56       1.0  0.10879999999999997  0.03018  0.20157000000000003  1.0000
  C   C1        1.0  0.7597799999999999  0.18362000000000006  0.16975000000000007  1.0000
  C   C2        1.0  0.8724  0.25062  0.18987  1.0000
  C   C3        1.0  0.95391  0.22798  0.22147  1.0000
  C   C4        1.0  0.05687999999999999  0.2928  0.24123  1.0000
  C   C5        1.0  0.08236000000000006  0.38240000000000013  0.22972000000000006  1.0000
  C   C6        1.0  0.001840000000000009  0.40382000000000007  0.19640000000000005  1.0000
  C   C7        1.0  0.89828  0.33959  0.17745  1.0000
  C   C8        1.0  0.18754  0.44892  0.25302  1.0000
  C   C9        1.0  0.21221  0.53678  0.25137  1.0000
  C   C10       1.0  0.31462999999999997  0.60437  0.27563  1.0000
  C   C11       1.0  0.33988999999999997  0.69316  0.26225  1.0000
  C   C12       1.0  0.43760000000000004  0.75961  0.28427  1.0000
  C   C13       1.0  0.39034  0.58515  0.31242  1.0000
  C   C14       1.0  0.6203  0.8101300000000002  0.34286000000000005  1.0000
  C   C15       1.0  0.5138599999999999  0.73941  0.31978  1.0000
  C   C16       1.0  0.4894699999999999  0.65124  0.33341  1.0000
  C   C17       1.0  0.8441599999999999  0.05571  0.0027800000000000004  1.0000
  C   C18       1.0  0.67408  0.07202  0.0016700000000000005  1.0000
  C   C19       1.0  0.32802  0.94854  0.26542  1.0000
  C   C20       1.0  0.52155  0.0010800000000000002  0.27887  1.0000
  C   C21       1.0  0.73966  0.81704  0.6696000000000001  1.0000
  C   C22       1.0  0.62698  0.75  0.69  1.0000
  C   C23       1.0  0.54518  0.7721800000000002  0.72173  1.0000
  C   C24       1.0  0.44218  0.70688  0.7415600000000002  1.0000
  C   C25       1.0  0.41717  0.61751  0.72993  1.0000
  C   C26       1.0  0.4982  0.59673  0.69653  1.0000
  C   C27       1.0  0.60183  0.66134  0.67756  1.0000
  C   C28       1.0  0.31187999999999994  0.55048  0.75325  1.0000
  C   C29       1.0  0.28708  0.46261000000000013  0.7512900000000002  1.0000
  C   C30       1.0  0.18445  0.39456  0.77561  1.0000
  C   C31       1.0  0.1595  0.30597  0.7622500000000001  1.0000
  C   C32       1.0  0.061479999999999986  0.23923  0.7843500000000002  1.0000
  C   C33       1.0  0.10815000000000005  0.4131100000000001  0.8124700000000001  1.0000
  C   C34       1.0  0.8780999999999999  0.18722000000000005  0.84282  1.0000
  C   C35       1.0  0.9846999999999999  0.2587  0.81995  1.0000
  C   C36       1.0  0.00871  0.34673  0.83354  1.0000
  C   C37       1.0  0.6548899999999999  0.94335  0.50267  1.0000
  C   C38       1.0  0.82531  0.92752  0.50161  1.0000
  C   C39       1.0  0.1718  0.05175  0.7652600000000003  1.0000
  C   C40       1.0  0.97821  0.99769  0.7790800000000002  1.0000
  C   C41       1.0  0.24022000000000002  0.81638  0.83025  1.0000
  C   C42       1.0  0.1276  0.74938  0.81012  1.0000
  C   C43       1.0  0.04609000000000002  0.77203  0.7785200000000002  1.0000
  C   C44       1.0  0.9431199999999997  0.7072  0.75877  1.0000
  C   C45       1.0  0.91764  0.6176000000000001  0.7702700000000001  1.0000
  C   C46       1.0  0.9981599999999998  0.59618  0.8036  1.0000
  C   C47       1.0  0.10172  0.66042  0.8225500000000002  1.0000
  C   C48       1.0  0.81246  0.5510900000000001  0.74697  1.0000
  C   C49       1.0  0.7877899999999999  0.46322000000000013  0.7486200000000001  1.0000
  C   C50       1.0  0.68537  0.3956400000000001  0.7243700000000001  1.0000
  C   C51       1.0  0.6601  0.30684  0.73775  1.0000
  C   C52       1.0  0.5623999999999999  0.24040000000000006  0.7157200000000002  1.0000
  C   C53       1.0  0.6096499999999999  0.41486000000000006  0.68758  1.0000
  C   C54       1.0  0.3796999999999999  0.18987  0.6571400000000002  1.0000
  C   C55       1.0  0.48614  0.26059  0.68021  1.0000
  C   C56       1.0  0.51053  0.34877  0.66658  1.0000
  C   C57       1.0  0.1558400000000001  0.9442900000000002  0.9972200000000002  1.0000
  C   C58       1.0  0.32592  0.92798  0.99832  1.0000
  C   C59       1.0  0.6719799999999999  0.05146  0.7345800000000001  1.0000
  C   C60       1.0  0.47844999999999993  0.9989200000000001  0.72113  1.0000
  C   C61       1.0  0.26034  0.18296  0.3304000000000001  1.0000
  C   C62       1.0  0.37301999999999996  0.25001000000000007  0.31  1.0000
  C   C63       1.0  0.45482000000000006  0.22783  0.27826  1.0000
  C   C64       1.0  0.5578199999999999  0.29313  0.25844  1.0000
  C   C65       1.0  0.58283  0.38249  0.27007  1.0000
  C   C66       1.0  0.5017999999999999  0.40327  0.30347  1.0000
  C   C67       1.0  0.3981699999999999  0.33866  0.32244000000000006  1.0000
  C   C68       1.0  0.68812  0.44953  0.24675  1.0000
  C   C69       1.0  0.71292  0.5373900000000003  0.24870000000000003  1.0000
  C   C70       1.0  0.81555  0.60544  0.22439  1.0000
  C   C71       1.0  0.8404999999999999  0.69403  0.23775000000000004  1.0000
  C   C72       1.0  0.93851  0.76077  0.21565000000000006  1.0000
  C   C73       1.0  0.8918499999999999  0.5868900000000002  0.18753000000000003  1.0000
  C   C74       1.0  0.12189999999999997  0.81278  0.15718  1.0000
  C   C75       1.0  0.01529999999999995  0.7413  0.18005  1.0000
  C   C76       1.0  0.99129  0.65328  0.16646000000000005  1.0000
  C   C77       1.0  0.34510999999999986  0.056660000000000016  0.49733  1.0000
  C   C78       1.0  0.17468999999999998  0.07248000000000003  0.4983800000000001  1.0000
  C   C79       1.0  0.8281999999999999  0.9482500000000003  0.23474  1.0000
  C   C80       1.0  0.02179  0.00231  0.22091000000000005  1.0000
  N   N1        1.0  0.6984799999999998  0.06854000000000003  0.05178000000000001  1.0000
  N   N2        1.0  0.8097  0.05776000000000001  0.0526  1.0000
  N   N3        1.0  0.76163  0.06454  0.96971  1.0000
  N   N4        1.0  0.38236  0.9419000000000002  0.2216  1.0000
  N   N5        1.0  0.50691  0.9762  0.22987  1.0000
  N   N6        1.0  0.41210000000000013  0.9848700000000002  0.30338  1.0000
  N   N7        1.0  0.8013199999999999  0.9322800000000002  0.55168  1.0000
  N   N8        1.0  0.6898500000000001  0.9427500000000002  0.55248  1.0000
  N   N9        1.0  0.73735  0.93391  0.46965  1.0000
  N   N10       1.0  0.11739999999999998  0.0583  0.7215300000000001  1.0000
  N   N11       1.0  0.9928299999999998  0.023010000000000003  0.7300200000000002  1.0000
  N   N12       1.0  0.08768999999999999  0.014510000000000002  0.80339  1.0000
  N   N13       1.0  0.30152  0.93147  0.94822  1.0000
  N   N14       1.0  0.1903  0.94225  0.9474  1.0000
  N   N15       1.0  0.23836999999999997  0.93546  0.03029  1.0000
  N   N16       1.0  0.61764  0.0581  0.7784000000000002  1.0000
  N   N17       1.0  0.49307999999999996  0.02381  0.7701300000000001  1.0000
  N   N18       1.0  0.5879  0.01513  0.6966200000000002  1.0000
  N   N19       1.0  0.19868  0.06772  0.44831  1.0000
  N   N20       1.0  0.31015  0.05725000000000001  0.44752000000000003  1.0000
  N   N21       1.0  0.26265  0.06609  0.53035  1.0000
  N   N22       1.0  0.8826000000000002  0.9417100000000003  0.27847  1.0000
  N   N23       1.0  0.0071599999999999685  0.97699  0.26998  1.0000
  N   N24       1.0  0.9123099999999998  0.9854900000000002  0.19661  1.0000
  O   O1        1.0  0.70604  0.7897100000000001  0.36259  1.0000
  O   O2        1.0  0.62323  0.8896  0.34106  1.0000
  O   O3        1.0  0.7497299999999999  0.10142  0.1695  1.0000
  O   O4        1.0  0.6737599999999999  0.20623000000000002  0.15355  1.0000
  O   O5        1.0  0.7918199999999999  0.20718  0.8625600000000001  1.0000
  O   O6        1.0  0.8749999999999999  0.10771  0.84094  1.0000
  O   O7        1.0  0.7495499999999999  0.89922  0.6693800000000002  1.0000
  O   O8        1.0  0.8259  0.79471  0.65332  1.0000
  O   O9        1.0  0.29396  0.21029000000000006  0.6374  1.0000
  O   O10       1.0  0.37676999999999994  0.11040000000000003  0.6589400000000001  1.0000
  O   O11       1.0  0.25027000000000005  0.8985900000000002  0.8305  1.0000
  O   O12       1.0  0.32623  0.79378  0.8464500000000001  1.0000
  O   O13       1.0  0.2081800000000001  0.7928200000000002  0.13743  1.0000
  O   O14       1.0  0.12500000000000006  0.8922900000000002  0.15906  1.0000
  O   O15       1.0  0.25045  0.10078  0.33061  1.0000
  O   O16       1.0  0.17409999999999998  0.20530000000000007  0.34667  1.0000
