data_image0
_chemical_formula_structural       Mg2Cd4Mo24P16H38C4N4Cl4O100
_chemical_formula_sum              "Mg2 Cd4 Mo24 P16 H38 C4 N4 Cl4 O100"
_cell_length_a       11.96402
_cell_length_b       14.5893
_cell_length_c       21.37867
_cell_angle_alpha    82.79189999999998
_cell_angle_beta     83.17423
_cell_angle_gamma    77.60752

_space_group_name_H-M_alt    "P 1"
_space_group_IT_number       1

loop_
  _space_group_symop_operation_xyz
  'x, y, z'

loop_
  _atom_site_type_symbol
  _atom_site_label
  _atom_site_symmetry_multiplicity
  _atom_site_fract_x
  _atom_site_fract_y
  _atom_site_fract_z
  _atom_site_occupancy
  Mg  Mg1       1.0  0.26107  0.08802000000000001  0.33725  1.0000
  Mg  Mg2       1.0  0.74182  0.9125899999999998  0.66252  1.0000
  Cd  Cd1       1.0  0.032760000000000025  0.38308  0.15997  1.0000
  Cd  Cd2       1.0  0.97934  0.6152100000000001  0.83514  1.0000
  Cd  Cd3       1.0  0.9948900000000002  0.005139999999999986  0.9999100000000001  1.0000
  Cd  Cd4       1.0  0.5005300000000001  0.50033  0.50016  1.0000
  Mo  Mo1       1.0  0.06088  0.01124  0.17291  1.0000
  Mo  Mo2       1.0  0.8248199999999999  0.84101  0.9456300000000001  1.0000
  Mo  Mo3       1.0  0.9271200000000002  0.7584199999999999  0.030840000000000003  1.0000
  Mo  Mo4       1.0  0.19642000000000004  0.75662  0.042640000000000004  1.0000
  Mo  Mo5       1.0  0.30187999999999987  0.85112  0.9493200000000003  1.0000
  Mo  Mo6       1.0  0.83621  0.011899999999999999  0.16905000000000003  1.0000
  Mo  Mo7       1.0  0.76397  0.5411899999999997  0.40886000000000006  1.0000
  Mo  Mo8       1.0  0.56632  0.5682699999999999  0.32188  1.0000
  Mo  Mo9       1.0  0.3811  0.68227  0.3663  1.0000
  Mo  Mo10      1.0  0.39387  0.75267  0.46065000000000006  1.0000
  Mo  Mo11      1.0  0.58543  0.72116  0.51451  1.0000
  Mo  Mo12      1.0  0.78249  0.5969599999999999  0.50784  1.0000
  Mo  Mo13      1.0  0.9378399999999995  0.98798  0.82671  1.0000
  Mo  Mo14      1.0  0.17902  0.15827  0.053890000000000014  1.0000
  Mo  Mo15      1.0  0.07904999999999997  0.24363999999999994  0.9682000000000002  1.0000
  Mo  Mo16      1.0  0.8043099999999997  0.24494999999999992  0.9588900000000001  1.0000
  Mo  Mo17      1.0  0.69755  0.15792999999999993  0.04822000000000001  1.0000
  Mo  Mo18      1.0  0.1597300000000001  0.9921899999999998  0.82995  1.0000
  Mo  Mo19      1.0  0.23522000000000004  0.4600899999999999  0.5898200000000001  1.0000
  Mo  Mo20      1.0  0.43429999999999996  0.43297999999999986  0.67658  1.0000
  Mo  Mo21      1.0  0.6205700000000002  0.31913  0.6331000000000001  1.0000
  Mo  Mo22      1.0  0.6089999999999999  0.24712999999999996  0.53906  1.0000
  Mo  Mo23      1.0  0.41863000000000006  0.27743  0.48422  1.0000
  Mo  Mo24      1.0  0.22031999999999996  0.40325  0.4903600000000001  1.0000
  P   P1        1.0  0.9132700000000001  0.22453  0.09663  1.0000
  P   P2        1.0  0.1997  0.17325  0.20253  1.0000
  P   P3        1.0  0.42568999999999996  0.86348  0.8023600000000001  1.0000
  P   P4        1.0  0.08757999999999999  0.57853  0.10827000000000002  1.0000
  P   P5        1.0  0.6234600000000001  0.7619099999999999  0.36490000000000006  1.0000
  P   P6        1.0  0.8393500000000003  0.5362799999999998  0.25854  1.0000
  P   P7        1.0  0.20877000000000004  0.8783299999999998  0.37152  1.0000
  P   P8        1.0  0.8057200000000001  0.8045899999999998  0.54003  1.0000
  P   P9        1.0  0.09198000000000005  0.7734199999999999  0.90123  1.0000
  P   P10       1.0  0.7998400000000002  0.8246999999999999  0.79757  1.0000
  P   P11       1.0  0.5739  0.14468999999999996  0.19644000000000003  1.0000
  P   P12       1.0  0.9135700000000002  0.4226199999999999  0.89498  1.0000
  P   P13       1.0  0.3787  0.23951000000000003  0.63341  1.0000
  P   P14       1.0  0.1597100000000001  0.4597599999999999  0.7402100000000001  1.0000
  P   P15       1.0  0.79229  0.1231  0.62876  1.0000
  P   P16       1.0  0.19714  0.19499999999999998  0.45920000000000005  1.0000
  H   H1        1.0  0.4036800000000001  0.9685899999999997  0.40854000000000007  1.0000
  H   H2        1.0  0.40074000000000004  0.07827999999999997  0.42022  1.0000
  H   H3        1.0  0.77843  0.002170000000000002  0.36162  1.0000
  H   H4        1.0  0.78503  0.91339  0.42429  1.0000
  H   H5        1.0  0.7352900000000001  0.9029299999999998  0.35298000000000007  1.0000
  H   H6        1.0  0.5899500000000002  0.9042799999999998  0.7810100000000001  1.0000
  H   H7        1.0  0.19084  0.96757  0.07101  1.0000
  H   H8        1.0  0.017410000000000047  0.8572799999999998  0.10434000000000003  1.0000
  H   H9        1.0  0.20637999999999998  0.033219999999999944  0.9387500000000002  1.0000
  H   H10       1.0  0.9542  0.6218  0.20328  1.0000
  H   H11       1.0  0.04605999999999999  0.86964  0.43254  1.0000
  H   H12       1.0  0.62876  0.4102499999999999  0.40794  1.0000
  H   H13       1.0  0.27689  0.6113099999999998  0.47084  1.0000
  H   H14       1.0  0.6169400000000003  0.5610599999999998  0.59413  1.0000
  H   H15       1.0  0.96728  0.5810299999999998  0.41230000000000006  1.0000
  H   H16       1.0  0.5523  0.9746199999999998  0.32192  1.0000
  H   H17       1.0  0.54613  0.09348999999999995  0.33357  1.0000
  H   H18       1.0  0.58788  0.9339899999999998  0.44197  1.0000
  H   H19       1.0  0.6187500000000001  0.04777999999999998  0.4386500000000001  1.0000
  H   H20       1.0  0.5996900000000001  0.030069999999999996  0.5901  1.0000
  H   H21       1.0  0.60184  0.91974  0.58009  1.0000
  H   H22       1.0  0.22435  0.9987599999999999  0.63912  1.0000
  H   H23       1.0  0.21766999999999997  0.08547  0.57522  1.0000
  H   H24       1.0  0.26715999999999995  0.09860999999999999  0.64604  1.0000
  H   H25       1.0  0.41244  0.09948  0.21602000000000002  1.0000
  H   H26       1.0  0.8086199999999999  0.032439999999999976  0.9288400000000001  1.0000
  H   H27       1.0  0.9808099999999998  0.14707000000000003  0.89702  1.0000
  H   H28       1.0  0.7863500000000003  0.9734799999999998  0.06149000000000001  1.0000
  H   H29       1.0  0.016139999999999963  0.3831499999999998  0.8033400000000003  1.0000
  H   H30       1.0  0.9580000000000001  0.12757999999999994  0.56971  1.0000
  H   H31       1.0  0.36903  0.5908099999999998  0.59207  1.0000
  H   H32       1.0  0.72802  0.38751  0.52799  1.0000
  H   H33       1.0  0.38565999999999995  0.4385999999999999  0.4047100000000001  1.0000
  H   H34       1.0  0.0304  0.4260699999999999  0.5842000000000002  1.0000
  H   H35       1.0  0.4511  0.02686999999999999  0.67723  1.0000
  H   H36       1.0  0.4560400000000001  0.9077599999999998  0.66674  1.0000
  H   H37       1.0  0.41453  0.06514999999999999  0.5571900000000001  1.0000
  H   H38       1.0  0.3831499999999999  0.9513199999999998  0.5618  1.0000
  C   C1        1.0  0.53529  0.024589999999999997  0.35782  1.0000
  C   C2        1.0  0.61677  0.99093  0.4099900000000001  1.0000
  C   C3        1.0  0.46746000000000004  0.9761399999999998  0.64184  1.0000
  C   C4        1.0  0.38567  0.008819999999999975  0.5897700000000001  1.0000
  N   N1        1.0  0.4141  0.03286000000000001  0.38533  1.0000
  N   N2        1.0  0.7374600000000001  0.9509199999999998  0.38471000000000005  1.0000
  N   N3        1.0  0.5886000000000001  0.9664999999999998  0.61421  1.0000
  N   N4        1.0  0.26511999999999997  0.049530000000000005  0.61508  1.0000
  Cl  Cl1       1.0  0.83334  0.8637399999999997  0.20709000000000002  1.0000
  Cl  Cl2       1.0  0.12118000000000008  0.8661899999999998  0.21823000000000004  1.0000
  Cl  Cl3       1.0  0.15995  0.14048  0.79128  1.0000
  Cl  Cl4       1.0  0.8717399999999998  0.13398999999999997  0.7842400000000002  1.0000
  O   O1        1.0  0.03110000000000001  0.15344999999999998  0.10841  1.0000
  O   O2        1.0  0.92657  0.24071999999999993  0.01937  1.0000
  O   O3        1.0  0.82158  0.16137999999999997  0.1082  1.0000
  O   O4        1.0  0.89237  0.31322  0.12671  1.0000
  O   O5        1.0  0.13498999999999997  0.08449000000000001  0.21582  1.0000
  O   O6        1.0  0.2527  0.17943  0.13267  1.0000
  O   O7        1.0  0.11091999999999999  0.25965  0.21904  1.0000
  O   O8        1.0  0.29414999999999997  0.14319  0.24842  1.0000
  O   O9        1.0  0.9821  0.62387  0.06909  1.0000
  O   O10       1.0  0.19356000000000004  0.6302899999999998  0.07336  1.0000
  O   O11       1.0  0.12754  0.4745199999999999  0.09816  1.0000
  O   O12       1.0  0.07014000000000006  0.6023599999999998  0.17596  1.0000
  O   O13       1.0  0.41235000000000005  0.83128  0.87912  1.0000
  O   O14       1.0  0.30543000000000003  0.9305899999999999  0.78768  1.0000
  O   O15       1.0  0.45916  0.7819099999999998  0.7650700000000002  1.0000
  O   O16       1.0  0.50744  0.9356799999999997  0.79679  1.0000
  O   O17       1.0  0.19125000000000003  0.01359  0.10144  1.0000
  O   O18       1.0  0.85521  0.7081499999999997  0.9683200000000001  1.0000
  O   O19       1.0  0.03835000000000002  0.7912  0.09489  1.0000
  O   O20       1.0  0.34473  0.78721  0.028420000000000004  1.0000
  O   O21       1.0  0.25066  0.98623  0.9076500000000001  1.0000
  O   O22       1.0  0.91787  0.07716  0.21295  1.0000
  O   O23       1.0  0.8679300000000002  0.8976199999999998  0.0187  1.0000
  O   O24       1.0  0.16563000000000005  0.8924299999999998  0.012000000000000002  1.0000
  O   O25       1.0  0.97284  0.9859599999999997  0.10787  1.0000
  O   O26       1.0  0.6607700000000004  0.6487599999999998  0.35574  1.0000
  O   O27       1.0  0.48446000000000006  0.7816399999999998  0.37109000000000003  1.0000
  O   O28       1.0  0.6655300000000001  0.7685599999999998  0.42888  1.0000
  O   O29       1.0  0.67107  0.82003  0.31090000000000007  1.0000
  O   O30       1.0  0.86862  0.53318  0.33003  1.0000
  O   O31       1.0  0.7057200000000001  0.5462099999999998  0.26012  1.0000
  O   O32       1.0  0.9044000000000001  0.44773  0.2315  1.0000
  O   O33       1.0  0.8668500000000002  0.63017  0.22248000000000004  1.0000
  O   O34       1.0  0.27132000000000006  0.7960199999999997  0.33033  1.0000
  O   O35       1.0  0.2735100000000001  0.87072  0.43216  1.0000
  O   O36       1.0  0.19967  0.9739999999999998  0.33400000000000013  1.0000
  O   O37       1.0  0.08294000000000001  0.8558399999999998  0.39049  1.0000
  O   O38       1.0  0.6685300000000001  0.8098399999999998  0.54573  1.0000
  O   O39       1.0  0.8562599999999999  0.69499  0.53002  1.0000
  O   O40       1.0  0.84507  0.8659799999999996  0.48242  1.0000
  O   O41       1.0  0.17022999999999994  0.17605  0.3947300000000001  1.0000
  O   O42       1.0  0.43774  0.54237  0.3841  1.0000
  O   O43       1.0  0.45549999999999996  0.6489799999999998  0.52676  1.0000
  O   O44       1.0  0.6609900000000001  0.4580199999999999  0.37817  1.0000
  O   O45       1.0  0.46660000000000024  0.6296999999999998  0.27009  1.0000
  O   O46       1.0  0.27508999999999995  0.6765  0.44503000000000004  1.0000
  O   O47       1.0  0.47026  0.8368399999999998  0.49808000000000013  1.0000
  O   O48       1.0  0.65564  0.61575  0.58057  1.0000
  O   O49       1.0  0.91707  0.5467  0.44107  1.0000
  O   O50       1.0  0.7275200000000001  0.4771999999999999  0.49292000000000014  1.0000
  O   O51       1.0  0.9724499999999998  0.8421899999999997  0.8891400000000002  1.0000
  O   O52       1.0  0.07848  0.7506  0.9781300000000002  1.0000
  O   O53       1.0  0.18275000000000005  0.8377799999999997  0.8887200000000001  1.0000
  O   O54       1.0  0.11630000000000007  0.6855999999999998  0.86966  1.0000
  O   O55       1.0  0.8667  0.9121599999999997  0.78378  1.0000
  O   O56       1.0  0.74824  0.8198  0.86763  1.0000
  O   O57       1.0  0.8846000000000002  0.7365399999999999  0.78065  1.0000
  O   O58       1.0  0.7055699999999999  0.85688  0.7513900000000001  1.0000
  O   O59       1.0  0.02376  0.37936999999999993  0.9302200000000002  1.0000
  O   O60       1.0  0.8109200000000002  0.3759099999999999  0.93282  1.0000
  O   O61       1.0  0.8790600000000001  0.5284999999999999  0.8984500000000002  1.0000
  O   O62       1.0  0.9268700000000001  0.39358  0.82669  1.0000
  O   O63       1.0  0.5932900000000001  0.18434999999999999  0.12306000000000002  1.0000
  O   O64       1.0  0.69457  0.07481  0.21107  1.0000
  O   O65       1.0  0.53917  0.21798999999999996  0.24055000000000004  1.0000
  O   O66       1.0  0.49346  0.07196999999999998  0.19700000000000004  1.0000
  O   O67       1.0  0.8107900000000003  0.9829899999999998  0.89844  1.0000
  O   O68       1.0  0.14422999999999997  0.29173  0.03426  1.0000
  O   O69       1.0  0.9628200000000001  0.21252999999999994  0.9075900000000001  1.0000
  O   O70       1.0  0.6460800000000001  0.23059999999999994  0.9753900000000001  1.0000
  O   O71       1.0  0.74398  0.019710000000000002  0.09217  1.0000
  O   O72       1.0  0.08255000000000003  0.9261299999999999  0.7842400000000002  1.0000
  O   O73       1.0  0.13341  0.10229999999999997  0.9813900000000001  1.0000
  O   O74       1.0  0.8216900000000001  0.10267999999999994  0.9779900000000002  1.0000
  O   O75       1.0  0.02496999999999998  0.013889999999999979  0.8918500000000001  1.0000
  O   O76       1.0  0.34427  0.35409  0.638  1.0000
  O   O77       1.0  0.5173100000000003  0.2189399999999999  0.6286400000000001  1.0000
  O   O78       1.0  0.33847999999999995  0.23071999999999998  0.56937  1.0000
  O   O79       1.0  0.32846999999999993  0.18494999999999998  0.6884500000000001  1.0000
  O   O80       1.0  0.13159  0.46216000000000007  0.66757  1.0000
  O   O81       1.0  0.29585  0.44475  0.7371  1.0000
  O   O82       1.0  0.10548999999999994  0.5555  0.76207  1.0000
  O   O83       1.0  0.12326999999999996  0.37334999999999985  0.7774200000000002  1.0000
  O   O84       1.0  0.72942  0.20515  0.66979  1.0000
  O   O85       1.0  0.72771  0.12937  0.56811  1.0000
  O   O86       1.0  0.8015899999999999  0.02735999999999999  0.6662  1.0000
  O   O87       1.0  0.91689  0.14815000000000003  0.60952  1.0000
  O   O88       1.0  0.33407  0.18981  0.45398000000000005  1.0000
  O   O89       1.0  0.14534999999999998  0.30315  0.47301000000000004  1.0000
  O   O90       1.0  0.15942  0.12954  0.51486  1.0000
  O   O91       1.0  0.83341  0.82844  0.60307  1.0000
  O   O92       1.0  0.5602200000000003  0.45862999999999987  0.61163  1.0000
  O   O93       1.0  0.54581  0.35155000000000003  0.47338  1.0000
  O   O94       1.0  0.33454000000000006  0.5447899999999998  0.6222200000000001  1.0000
  O   O95       1.0  0.5385700000000001  0.3752099999999999  0.7271400000000001  1.0000
  O   O96       1.0  0.7275500000000001  0.3230599999999999  0.55493  1.0000
  O   O97       1.0  0.53363  0.16235  0.50143  1.0000
  O   O98       1.0  0.3478400000000001  0.3834299999999998  0.41882000000000014  1.0000
  O   O99       1.0  0.08395000000000007  0.4575999999999999  0.55577  1.0000
  O   O100      1.0  0.28350999999999993  0.51887  0.50482  1.0000
