data_image0
_chemical_formula_structural       Zn6H66C54N12Cl6O12
_chemical_formula_sum              "Zn6 H66 C54 N12 Cl6 O12"
_cell_length_a       10.30132
_cell_length_b       17.6175
_cell_length_c       17.68085
_cell_angle_alpha    120.08826
_cell_angle_beta     90.0
_cell_angle_gamma    90.0

_space_group_name_H-M_alt    "P 1"
_space_group_IT_number       1

loop_
  _space_group_symop_operation_xyz
  'x, y, z'

loop_
  _atom_site_type_symbol
  _atom_site_label
  _atom_site_symmetry_multiplicity
  _atom_site_fract_x
  _atom_site_fract_y
  _atom_site_fract_z
  _atom_site_occupancy
  Zn  Zn1       1.0  0.00935  0.9203400000000002  0.45757  1.0000
  Zn  Zn2       1.0  0.67865  0.53497  0.07958  1.0000
  Zn  Zn3       1.0  0.34091  0.54279  0.46275  1.0000
  Zn  Zn4       1.0  0.50935  0.07966  0.54243  1.0000
  Zn  Zn5       1.0  0.17865  0.46503  0.92042  1.0000
  Zn  Zn6       1.0  0.8409099999999999  0.45721000000000006  0.53725  1.0000
  H   H1        1.0  0.9637000000000001  0.33209  0.89856  1.0000
  H   H2        1.0  0.90866  0.17601  0.7896  1.0000
  H   H3        1.0  0.24927  0.17077000000000006  0.64436  1.0000
  H   H4        1.0  0.28844  0.3264  0.75819  1.0000
  H   H5        1.0  0.12323  0.023429999999999986  0.63778  1.0000
  H   H6        1.0  0.95365  0.04464000000000001  0.65193  1.0000
  H   H7        1.0  0.92956  0.17118000000000005  0.5983  1.0000
  H   H8        1.0  0.06261  0.16148  0.47715  1.0000
  H   H9        1.0  0.89527  0.16225  0.45479  1.0000
  H   H10       1.0  0.9841400000000001  0.06107  0.40099  1.0000
  H   H11       1.0  0.13089  0.06218  0.53036  1.0000
  H   H12       1.0  0.62687  0.56664  0.66978  1.0000
  H   H13       1.0  0.57441  0.6142500000000001  0.82574  1.0000
  H   H14       1.0  0.91643  0.47451000000000004  0.82959  1.0000
  H   H15       1.0  0.9534  0.43184000000000006  0.67418  1.0000
  H   H16       1.0  0.79214  0.61465  0.97691  1.0000
  H   H17       1.0  0.62224  0.60756  0.9569  1.0000
  H   H18       1.0  0.59743  0.42735  0.82928  1.0000
  H   H19       1.0  0.73095  0.31474  0.83844  1.0000
  H   H20       1.0  0.56343  0.29183000000000003  0.83747  1.0000
  H   H21       1.0  0.65201  0.3389100000000001  0.93834  1.0000
  H   H22       1.0  0.80018  0.46713  0.93578  1.0000
  H   H23       1.0  0.29521  0.10221  0.43398  1.0000
  H   H24       1.0  0.2408  0.21081000000000003  0.38618  1.0000
  H   H25       1.0  0.58117  0.35693  0.52626  1.0000
  H   H26       1.0  0.62011  0.24338000000000004  0.5684  1.0000
  H   H27       1.0  0.45728  0.36248  0.38569  1.0000
  H   H28       1.0  0.28753  0.34808  0.39152  1.0000
  H   H29       1.0  0.26  0.4011  0.57098  1.0000
  H   H30       1.0  0.39579000000000003  0.52249  0.68213  1.0000
  H   H31       1.0  0.22849  0.5457  0.70674  1.0000
  H   H32       1.0  0.31665  0.5991299999999999  0.6590999999999998  1.0000
  H   H33       1.0  0.46281  0.46934  0.53246  1.0000
  H   H34       1.0  0.4637  0.66791  0.10144  1.0000
  H   H35       1.0  0.4086600000000001  0.82399  0.2104  1.0000
  H   H36       1.0  0.74927  0.82923  0.3556399999999999  1.0000
  H   H37       1.0  0.78844  0.6736000000000001  0.24181  1.0000
  H   H38       1.0  0.62323  0.9765700000000002  0.36222  1.0000
  H   H39       1.0  0.45365000000000005  0.9553600000000001  0.34807  1.0000
  H   H40       1.0  0.42956  0.82882  0.40169  1.0000
  H   H41       1.0  0.56261  0.83852  0.52284  1.0000
  H   H42       1.0  0.39527  0.83775  0.54521  1.0000
  H   H43       1.0  0.48414  0.93893  0.599  1.0000
  H   H44       1.0  0.63089  0.93782  0.46964  1.0000
  H   H45       1.0  0.12687  0.43336  0.33021  1.0000
  H   H46       1.0  0.07441  0.38575  0.17426  1.0000
  H   H47       1.0  0.41643  0.52549  0.17041  1.0000
  H   H48       1.0  0.4534  0.5681600000000001  0.32581999999999994  1.0000
  H   H49       1.0  0.29214  0.38535  0.02309  1.0000
  H   H50       1.0  0.12224  0.39244  0.0431  1.0000
  H   H51       1.0  0.09743  0.57265  0.17071  1.0000
  H   H52       1.0  0.23095  0.68525  0.16155  1.0000
  H   H53       1.0  0.06343  0.70817  0.16252  1.0000
  H   H54       1.0  0.15201  0.66109  0.06166  1.0000
  H   H55       1.0  0.30018  0.53287  0.06421  1.0000
  H   H56       1.0  0.79521  0.8977900000000002  0.56602  1.0000
  H   H57       1.0  0.74081  0.7891900000000001  0.61381  1.0000
  H   H58       1.0  0.08117  0.64307  0.47374  1.0000
  H   H59       1.0  0.12011  0.75662  0.43159  1.0000
  H   H60       1.0  0.9572800000000001  0.63752  0.61431  1.0000
  H   H61       1.0  0.7875300000000001  0.65192  0.60847  1.0000
  H   H62       1.0  0.76  0.5989  0.42902  1.0000
  H   H63       1.0  0.89579  0.47750999999999993  0.3178599999999999  1.0000
  H   H64       1.0  0.72849  0.4542999999999999  0.29325  1.0000
  H   H65       1.0  0.81665  0.40086999999999995  0.3409  1.0000
  H   H66       1.0  0.96281  0.53066  0.46754  1.0000
  C   C1        1.0  0.023360000000000002  0.29357  0.84093  1.0000
  C   C2        1.0  0.9939100000000001  0.20674999999999993  0.77994  1.0000
  C   C3        1.0  0.07379  0.16031  0.70674  1.0000
  C   C4        1.0  0.18133  0.20410000000000006  0.69834  1.0000
  C   C5        1.0  0.20451000000000003  0.29079  0.76144  1.0000
  C   C6        1.0  0.04573  0.06640000000000004  0.63779  1.0000
  C   C7        1.0  0.9387600000000001  0.10741000000000002  0.53784  1.0000
  C   C8        1.0  0.80634  0.061490000000000045  0.52236  1.0000
  C   C9        1.0  0.97227  0.12347999999999995  0.46252  1.0000
  C   C10       1.0  0.68773  0.5478  0.70799  1.0000
  C   C11       1.0  0.65968  0.57396  0.79477  1.0000
  C   C12       1.0  0.74077  0.5474  0.84077  1.0000
  C   C13       1.0  0.8479900000000001  0.49512  0.79655  1.0000
  C   C14       1.0  0.86984  0.4710999999999999  0.7099499999999999  1.0000
  C   C15       1.0  0.71426  0.57172  0.93439  1.0000
  C   C16       1.0  0.60743  0.43013  0.89257  1.0000
  C   C17       1.0  0.47526  0.4609500000000001  0.93862  1.0000
  C   C18       1.0  0.64052  0.33826  0.87621  1.0000
  C   C19       1.0  0.35521  0.15972000000000003  0.45251  1.0000
  C   C20       1.0  0.32621  0.22035  0.42634  1.0000
  C   C21       1.0  0.40654999999999997  0.29345  0.45281  1.0000
  C   C22       1.0  0.5137  0.30249  0.50538  1.0000
  C   C23       1.0  0.53654  0.23967000000000002  0.52919  1.0000
  C   C24       1.0  0.37903  0.36232  0.42794  1.0000
  C   C25       1.0  0.27028  0.4620000000000001  0.5685  1.0000
  C   C26       1.0  0.13797  0.47779000000000005  0.53839  1.0000
  C   C27       1.0  0.30479  0.53748  0.65983  1.0000
  C   C28       1.0  0.52336  0.70643  0.15907  1.0000
  C   C29       1.0  0.49391000000000007  0.7932500000000001  0.22006  1.0000
  C   C30       1.0  0.57379  0.83969  0.29325  1.0000
  C   C31       1.0  0.68133  0.7959  0.30166  1.0000
  C   C32       1.0  0.70451  0.7092100000000001  0.23856  1.0000
  C   C33       1.0  0.54573  0.9336  0.36221  1.0000
  C   C34       1.0  0.43876000000000004  0.89259  0.4621599999999999  1.0000
  C   C35       1.0  0.30634  0.93851  0.47763  1.0000
  C   C36       1.0  0.47226  0.87652  0.53748  1.0000
  C   C37       1.0  0.18773  0.45219000000000004  0.292  1.0000
  C   C38       1.0  0.15968  0.42604  0.20522  1.0000
  C   C39       1.0  0.24077  0.4526  0.15922  1.0000
  C   C40       1.0  0.34799  0.50488  0.20345  1.0000
  C   C41       1.0  0.36984000000000006  0.5289  0.29005  1.0000
  C   C42       1.0  0.21426  0.42828  0.06561  1.0000
  C   C43       1.0  0.10743  0.56987  0.10742  1.0000
  C   C44       1.0  0.9752600000000001  0.53906  0.06138  1.0000
  C   C45       1.0  0.14052  0.66174  0.12378  1.0000
  C   C46       1.0  0.85521  0.84028  0.54749  1.0000
  C   C47       1.0  0.82621  0.7796499999999998  0.57366  1.0000
  C   C48       1.0  0.90656  0.70655  0.54719  1.0000
  C   C49       1.0  0.0137  0.6975100000000001  0.49462  1.0000
  C   C50       1.0  0.03654  0.76033  0.4708  1.0000
  C   C51       1.0  0.8790300000000001  0.63768  0.57206  1.0000
  C   C52       1.0  0.77029  0.538  0.4315  1.0000
  C   C53       1.0  0.63797  0.52221  0.46161  1.0000
  C   C54       1.0  0.8047900000000001  0.46252  0.34016  1.0000
  N   N1        1.0  0.03908  0.053349999999999995  0.54833  1.0000
  N   N2        1.0  0.12681  0.33554  0.83194  1.0000
  N   N3        1.0  0.7084  0.49435  0.94642  1.0000
  N   N4        1.0  0.79103  0.4968  0.66569  1.0000
  N   N5        1.0  0.37138  0.4519  0.50476  1.0000
  N   N6        1.0  0.45875  0.16899  0.50335  1.0000
  N   N7        1.0  0.53909  0.94665  0.45166  1.0000
  N   N8        1.0  0.62681  0.66446  0.16805  1.0000
  N   N9        1.0  0.2084  0.50565  0.05358  1.0000
  N   N10       1.0  0.29103  0.5032  0.33431  1.0000
  N   N11       1.0  0.87138  0.5481  0.49524  1.0000
  N   N12       1.0  0.95875  0.83101  0.49665  1.0000
  Cl  Cl1       1.0  0.99757  0.87583  0.31598  1.0000
  Cl  Cl2       1.0  0.66392  0.43758  0.12336  1.0000
  Cl  Cl3       1.0  0.3271  0.68495  0.56055  1.0000
  Cl  Cl4       1.0  0.49757  0.12415999999999995  0.68401  1.0000
  Cl  Cl5       1.0  0.16392  0.56242  0.87664  1.0000
  Cl  Cl6       1.0  0.8271  0.31505  0.43944  1.0000
  O   O1        1.0  0.70808  0.10912999999999996  0.53291  1.0000
  O   O2        1.0  0.8045200000000001  0.98025  0.49913  1.0000
  O   O3        1.0  0.37678  0.4246799999999999  0.8909099999999998  1.0000
  O   O4        1.0  0.47379000000000004  0.51849  0.0197  1.0000
  O   O5        1.0  0.03977  0.46765999999999996  0.57565  1.0000
  O   O6        1.0  0.13611  0.5006200000000001  0.48035  1.0000
  O   O7        1.0  0.20808000000000001  0.89087  0.46708  1.0000
  O   O8        1.0  0.30452  0.01975000000000002  0.50087  1.0000
  O   O9        1.0  0.87678  0.57532  0.10908  1.0000
  O   O10       1.0  0.97379  0.48151000000000005  0.98029  1.0000
  O   O11       1.0  0.5397800000000001  0.53234  0.42434  1.0000
  O   O12       1.0  0.63611  0.49938  0.51964  1.0000
