data_image0
_chemical_formula_structural       Cd6H80C100N8O24
_chemical_formula_sum              "Cd6 H80 C100 N8 O24"
_cell_length_a       13.52524
_cell_length_b       15.94034
_cell_length_c       17.44613
_cell_angle_alpha    90.74106
_cell_angle_beta     112.80494
_cell_angle_gamma    90.00456

_symmetry_space_group_name_H-M    'P 1'
_symmetry_Int_Tables_number       1

loop_
  _symmetry_equiv_pos_as_xyz
  'x,y,z'

loop_
  _atom_site_type_symbol
  _atom_site_label
  _atom_site_symmetry_multiplicity
  _atom_site_fract_x
  _atom_site_fract_y
  _atom_site_fract_z
  _atom_site_occupancy
  Cd  Cd1       1.0  0.29906  0.23682999999999996  0.20888  1.0000
  Cd  Cd2       1.0  0.09086000000000001  0.26276  0.79076  1.0000
  Cd  Cd3       1.0  0.7009499999999999  0.76317  0.79112  1.0000
  Cd  Cd4       1.0  0.90915  0.7372399999999998  0.20924000000000006  1.0000
  Cd  Cd5       1.0  0.27563999999999994  0.25015  0.99952  1.0000
  Cd  Cd6       1.0  0.72437  0.74985  0.00048  1.0000
  H   H1        1.0  0.5937799999999999  0.4300800000000001  0.2918800000000001  1.0000
  H   H2        1.0  0.71364  0.54263  0.2736500000000001  1.0000
  H   H3        1.0  0.48413999999999996  0.58527  0.02689  1.0000
  H   H4        1.0  0.3664299999999999  0.47064  0.043400000000000015  1.0000
  H   H5        1.0  0.04440999999999999  0.00617  0.15182  1.0000
  H   H6        1.0  0.08658000000000002  0.10102  0.93697  1.0000
  H   H7        1.0  0.2859  0.4005599999999999  0.31572  1.0000
  H   H8        1.0  0.15394  0.48936  0.34848  1.0000
  H   H9        1.0  0.9024999999999997  0.33247  0.1785  1.0000
  H   H10       1.0  0.04429  0.25069  0.15247  1.0000
  H   H11       1.0  0.17462  0.28656  0.64918  1.0000
  H   H12       1.0  0.11745000000000003  0.32034  0.4978000000000001  1.0000
  H   H13       1.0  0.79731  0.3582  0.48912  1.0000
  H   H14       1.0  0.86894  0.32543  0.64139  1.0000
  H   H15       1.0  0.85388  0.45167  0.2436  1.0000
  H   H16       1.0  0.94669  0.53499  0.27797  1.0000
  H   H17       1.0  0.029950000000000004  0.4665899999999999  0.41967  1.0000
  H   H18       1.0  0.8972  0.49899  0.3943  1.0000
  H   H19       1.0  0.9535199999999999  0.3193199999999999  0.36046  1.0000
  H   H20       1.0  0.8285400000000002  0.35475  0.35821  1.0000
  H   H21       1.0  0.3025599999999999  0.06823  0.70876  1.0000
  H   H22       1.0  0.44213000000000013  0.9564699999999998  0.7283500000000003  1.0000
  H   H23       1.0  0.45738  0.91476  0.97474  1.0000
  H   H24       1.0  0.32241999999999993  0.02915  0.95686  1.0000
  H   H25       1.0  0.89159  0.4951899999999999  0.84821  1.0000
  H   H26       1.0  0.14951  0.39866  0.06162  1.0000
  H   H27       1.0  0.9701  0.09929  0.68432  1.0000
  H   H28       1.0  0.80541  0.01056  0.65161  1.0000
  H   H29       1.0  0.72438  0.1675  0.82168  1.0000
  H   H30       1.0  0.89191  0.24944  0.84739  1.0000
  H   H31       1.0  0.52514  0.21332  0.35071  1.0000
  H   H32       1.0  0.6195699999999998  0.17976  0.50212  1.0000
  H   H33       1.0  0.3080899999999999  0.14197  0.51077  1.0000
  H   H34       1.0  0.22723999999999997  0.17444  0.35851  1.0000
  H   H35       1.0  0.61022  0.04831  0.75633  1.0000
  H   H36       1.0  0.66869  0.9649599999999998  0.7220300000000002  1.0000
  H   H37       1.0  0.61029  0.0334  0.5804000000000002  1.0000
  H   H38       1.0  0.50292  0.0009599999999999989  0.60571  1.0000
  H   H39       1.0  0.59323  0.18068  0.63941  1.0000
  H   H40       1.0  0.47062  0.14531  0.64184  1.0000
  H   H41       1.0  0.4062199999999999  0.56992  0.70812  1.0000
  H   H42       1.0  0.28636  0.45737  0.72635  1.0000
  H   H43       1.0  0.51586  0.4147299999999999  0.97311  1.0000
  H   H44       1.0  0.6335699999999999  0.52936  0.9566000000000001  1.0000
  H   H45       1.0  0.95559  0.99383  0.84818  1.0000
  H   H46       1.0  0.91343  0.8989799999999998  0.06302  1.0000
  H   H47       1.0  0.7141000000000001  0.5994399999999998  0.6842700000000003  1.0000
  H   H48       1.0  0.84606  0.51064  0.65152  1.0000
  H   H49       1.0  0.09749999999999998  0.66754  0.8215  1.0000
  H   H50       1.0  0.95571  0.74931  0.84752  1.0000
  H   H51       1.0  0.82539  0.7134399999999997  0.35081  1.0000
  H   H52       1.0  0.8825499999999998  0.67966  0.5022  1.0000
  H   H53       1.0  0.2026900000000001  0.6418  0.5108800000000002  1.0000
  H   H54       1.0  0.13106000000000004  0.67457  0.35861  1.0000
  H   H55       1.0  0.14612000000000003  0.54833  0.7564  1.0000
  H   H56       1.0  0.05332000000000016  0.46501  0.7220300000000002  1.0000
  H   H57       1.0  0.9700600000000001  0.5334099999999998  0.58033  1.0000
  H   H58       1.0  0.10279999999999995  0.50101  0.6057  1.0000
  H   H59       1.0  0.046490000000000024  0.6806799999999997  0.63953  1.0000
  H   H60       1.0  0.17147  0.6452599999999997  0.64178  1.0000
  H   H61       1.0  0.69744  0.9317699999999998  0.29124  1.0000
  H   H62       1.0  0.55788  0.04353  0.27164  1.0000
  H   H63       1.0  0.54263  0.08523999999999997  0.025260000000000008  1.0000
  H   H64       1.0  0.67759  0.9708499999999998  0.04314  1.0000
  H   H65       1.0  0.10842000000000002  0.50481  0.15178  1.0000
  H   H66       1.0  0.85049  0.60134  0.93838  1.0000
  H   H67       1.0  0.029910000000000006  0.90071  0.31568  1.0000
  H   H68       1.0  0.19459  0.98944  0.34839  1.0000
  H   H69       1.0  0.27563000000000004  0.8325099999999998  0.17832000000000006  1.0000
  H   H70       1.0  0.10809999999999999  0.75056  0.15261  1.0000
  H   H71       1.0  0.47487  0.78668  0.64929  1.0000
  H   H72       1.0  0.38043000000000005  0.82025  0.49788000000000004  1.0000
  H   H73       1.0  0.69191  0.85803  0.48923  1.0000
  H   H74       1.0  0.77276  0.82557  0.64148  1.0000
  H   H75       1.0  0.38977999999999996  0.9516899999999998  0.24367  1.0000
  H   H76       1.0  0.33131  0.03504  0.27797  1.0000
  H   H77       1.0  0.38970999999999995  0.9665999999999998  0.4196  1.0000
  H   H78       1.0  0.4970799999999999  0.9990399999999999  0.39429  1.0000
  H   H79       1.0  0.40678000000000003  0.8193299999999998  0.36059000000000013  1.0000
  H   H80       1.0  0.52938  0.85469  0.3581600000000001  1.0000
  C   C1        1.0  0.47348  0.44375  0.16887000000000005  1.0000
  C   C2        1.0  0.57124  0.4644299999999999  0.23418  1.0000
  C   C3        1.0  0.63704  0.52676  0.22420000000000007  1.0000
  C   C4        1.0  0.60571  0.57021  0.14897  1.0000
  C   C5        1.0  0.50694  0.55098  0.08462  1.0000
  C   C6        1.0  0.44154999999999994  0.4876  0.09399  1.0000
  C   C7        1.0  0.40628999999999993  0.37462  0.18051  1.0000
  C   C8        1.0  0.6796199999999998  0.6347  0.13665  1.0000
  C   C9        1.0  0.07225  0.06029  0.04985  1.0000
  C   C10       1.0  0.024050000000000016  0.0027899999999999995  0.08524000000000002  1.0000
  C   C11       1.0  0.0481200000000001  0.057170000000000006  0.9640900000000002  1.0000
  C   C12       1.0  0.14709999999999995  0.1248  0.10455  1.0000
  C   C13       1.0  0.20003  0.38763  0.28732  1.0000
  C   C14       1.0  0.12627  0.4364699999999999  0.30516  1.0000
  C   C15       1.0  0.016240000000000008  0.41798  0.26647  1.0000
  C   C16       1.0  0.9865399999999999  0.34989  0.21057  1.0000
  C   C17       1.0  0.06499  0.3039199999999999  0.19561  1.0000
  C   C18       1.0  0.09212000000000005  0.30314999999999986  0.61087  1.0000
  C   C19       1.0  0.05943  0.32196  0.52704  1.0000
  C   C20       1.0  0.9517999999999998  0.34196  0.48036  1.0000
  C   C21       1.0  0.8817599999999998  0.34332  0.5222  1.0000
  C   C22       1.0  0.9206499999999997  0.32449  0.60652  1.0000
  C   C23       1.0  0.9353600000000001  0.4681299999999999  0.2870200000000001  1.0000
  C   C24       1.0  0.94673  0.45371  0.37723  1.0000
  C   C25       1.0  0.91575  0.36322  0.38997  1.0000
  C   C26       1.0  0.30435  0.055020000000000006  0.83143  1.0000
  C   C27       1.0  0.3376200000000001  0.034129999999999994  0.7665900000000002  1.0000
  C   C28       1.0  0.41421  0.97228  0.7774  1.0000
  C   C29       1.0  0.45788  0.92939  0.85299  1.0000
  C   C30       1.0  0.42252000000000006  0.94865  0.9167700000000002  1.0000
  C   C31       1.0  0.34723999999999994  0.011759999999999996  0.90657  1.0000
  C   C32       1.0  0.22484  0.12375999999999997  0.8188  1.0000
  C   C33       1.0  0.54459  0.86523  0.8663  1.0000
  C   C34       1.0  0.02198000000000009  0.4402399999999999  0.9493000000000003  1.0000
  C   C35       1.0  0.9383799999999999  0.4978999999999999  0.91476  1.0000
  C   C36       1.0  0.08396  0.44269  0.03509000000000002  1.0000
  C   C37       1.0  0.04250000000000002  0.37607  0.8944  1.0000
  C   C38       1.0  0.91264  0.11235  0.71266  1.0000
  C   C39       1.0  0.82111  0.06347  0.69491  1.0000
  C   C40       1.0  0.7497599999999999  0.08202999999999998  0.73353  1.0000
  C   C41       1.0  0.77618  0.15007999999999994  0.78949  1.0000
  C   C42       1.0  0.86947  0.19617  0.80428  1.0000
  C   C43       1.0  0.48097  0.19662  0.38898  1.0000
  C   C44       1.0  0.5322899999999998  0.17805  0.47286  1.0000
  C   C45       1.0  0.47138  0.15805999999999998  0.51957  1.0000
  C   C46       1.0  0.35949000000000003  0.15674  0.47771000000000013  1.0000
  C   C47       1.0  0.31387  0.17534999999999995  0.39334  1.0000
  C   C48       1.0  0.6483299999999999  0.031839999999999986  0.71296  1.0000
  C   C49       1.0  0.5694899999999998  0.046270000000000006  0.62278  1.0000
  C   C50       1.0  0.5259000000000001  0.13679  0.6099700000000002  1.0000
  C   C51       1.0  0.52653  0.55625  0.8311300000000003  1.0000
  C   C52       1.0  0.42877  0.5355799999999997  0.76582  1.0000
  C   C53       1.0  0.36296000000000006  0.47324  0.7757900000000002  1.0000
  C   C54       1.0  0.3943  0.4298  0.85103  1.0000
  C   C55       1.0  0.49305999999999994  0.44902  0.91538  1.0000
  C   C56       1.0  0.55845  0.5124  0.906  1.0000
  C   C57       1.0  0.5937099999999998  0.62538  0.81949  1.0000
  C   C58       1.0  0.32039  0.3653099999999999  0.86335  1.0000
  C   C59       1.0  0.92776  0.93971  0.95014  1.0000
  C   C60       1.0  0.97595  0.9972099999999998  0.91476  1.0000
  C   C61       1.0  0.95189  0.94283  0.03591  1.0000
  C   C62       1.0  0.8529  0.8752  0.89545  1.0000
  C   C63       1.0  0.79997  0.61237  0.71268  1.0000
  C   C64       1.0  0.8737399999999997  0.5635299999999998  0.69484  1.0000
  C   C65       1.0  0.9837699999999999  0.58202  0.73353  1.0000
  C   C66       1.0  0.013459999999999955  0.65011  0.78943  1.0000
  C   C67       1.0  0.93501  0.6960799999999998  0.8043900000000003  1.0000
  C   C68       1.0  0.9078899999999999  0.69685  0.3891300000000001  1.0000
  C   C69       1.0  0.94057  0.67805  0.47296  1.0000
  C   C70       1.0  0.048200000000000014  0.65804  0.51964  1.0000
  C   C71       1.0  0.11823999999999997  0.65669  0.4778  1.0000
  C   C72       1.0  0.07936  0.67551  0.39348  1.0000
  C   C73       1.0  0.06465000000000005  0.5318699999999997  0.71297  1.0000
  C   C74       1.0  0.05328000000000001  0.54629  0.62277  1.0000
  C   C75       1.0  0.08425000000000006  0.63678  0.61002  1.0000
  C   C76       1.0  0.69565  0.94498  0.16857  1.0000
  C   C77       1.0  0.66239  0.9658699999999998  0.23341  1.0000
  C   C78       1.0  0.5858  0.027720000000000005  0.22260000000000005  1.0000
  C   C79       1.0  0.54213  0.07060999999999999  0.14701  1.0000
  C   C80       1.0  0.57749  0.051349999999999986  0.08323000000000003  1.0000
  C   C81       1.0  0.65276  0.98824  0.09342  1.0000
  C   C82       1.0  0.7751600000000001  0.87624  0.1812  1.0000
  C   C83       1.0  0.45541  0.13477  0.13369  1.0000
  C   C84       1.0  0.97803  0.55976  0.050700000000000016  1.0000
  C   C85       1.0  0.06163000000000001  0.5021  0.08523000000000003  1.0000
  C   C86       1.0  0.9160499999999998  0.55732  0.96491  1.0000
  C   C87       1.0  0.9574999999999998  0.62394  0.1056  1.0000
  C   C88       1.0  0.08735999999999997  0.88765  0.28734  1.0000
  C   C89       1.0  0.1789  0.9365299999999998  0.30509  1.0000
  C   C90       1.0  0.25025  0.9179699999999997  0.26647  1.0000
  C   C91       1.0  0.22383  0.84993  0.21051  1.0000
  C   C92       1.0  0.13053  0.8038299999999998  0.19571000000000005  1.0000
  C   C93       1.0  0.51903  0.80338  0.61102  1.0000
  C   C94       1.0  0.46771999999999997  0.82195  0.52714  1.0000
  C   C95       1.0  0.52862  0.84194  0.48043  1.0000
  C   C96       1.0  0.64051  0.84326  0.52229  1.0000
  C   C97       1.0  0.68613  0.8246499999999998  0.60666  1.0000
  C   C98       1.0  0.35168  0.9681599999999998  0.28704000000000013  1.0000
  C   C99       1.0  0.43052  0.9537299999999999  0.3772200000000001  1.0000
  C   C100      1.0  0.47411  0.86321  0.39003  1.0000
  N   N1        1.0  0.17024  0.32185  0.23355  1.0000
  N   N2        1.0  0.02365999999999998  0.30419999999999997  0.65009  1.0000
  N   N3        1.0  0.9367599999999998  0.17821  0.76634  1.0000
  N   N4        1.0  0.37330999999999986  0.19545999999999994  0.3497  1.0000
  N   N5        1.0  0.82977  0.67815  0.76644  1.0000
  N   N6        1.0  0.9763399999999999  0.6958  0.34991  1.0000
  N   N7        1.0  0.06325000000000004  0.8217900000000001  0.23366000000000006  1.0000
  N   N8        1.0  0.6267  0.80455  0.6503  1.0000
  O   O1        1.0  0.32551  0.34613  0.11745  1.0000
  O   O2        1.0  0.43052  0.34608  0.25338  1.0000
  O   O3        1.0  0.64842  0.66646  0.06437  1.0000
  O   O4        1.0  0.7662800000000001  0.6504299999999997  0.19872  1.0000
  O   O5        1.0  0.17431999999999997  0.12032999999999998  0.1828  1.0000
  O   O6        1.0  0.18027  0.18529  0.07195  1.0000
  O   O7        1.0  0.20856  0.15425999999999995  0.88179  1.0000
  O   O8        1.0  0.17464  0.1501  0.74536  1.0000
  O   O9        1.0  0.5845300000000001  0.8334599999999998  0.9387700000000002  1.0000
  O   O10       1.0  0.57035  0.8497499999999998  0.80479  1.0000
  O   O11       1.0  0.99154  0.37996  0.81608  1.0000
  O   O12       1.0  0.10915  0.31624  0.92762  1.0000
  O   O13       1.0  0.6744999999999999  0.65387  0.8825400000000002  1.0000
  O   O14       1.0  0.56948  0.65393  0.7466200000000002  1.0000
  O   O15       1.0  0.35159  0.3335399999999999  0.93563  1.0000
  O   O16       1.0  0.23373  0.34957  0.80128  1.0000
  O   O17       1.0  0.8256799999999999  0.8796699999999997  0.8171900000000002  1.0000
  O   O18       1.0  0.81974  0.81471  0.92804  1.0000
  O   O19       1.0  0.79144  0.8457399999999998  0.11821  1.0000
  O   O20       1.0  0.82536  0.8499  0.25463000000000013  1.0000
  O   O21       1.0  0.41547  0.16654  0.06123  1.0000
  O   O22       1.0  0.42965  0.15024999999999994  0.1952  1.0000
  O   O23       1.0  0.008470000000000042  0.6200399999999998  0.18391000000000005  1.0000
  O   O24       1.0  0.8908499999999998  0.68376  0.07238  1.0000
