data_image0
_chemical_formula_structural       Cd2H66C66N24
_chemical_formula_sum              "Cd2 H66 C66 N24"
_cell_length_a       13.42456
_cell_length_b       13.422479999999998
_cell_length_c       13.42201
_cell_angle_alpha    107.31782
_cell_angle_beta     107.32628
_cell_angle_gamma    107.32518

_space_group_name_H-M_alt    "P 1"
_space_group_IT_number       1

loop_
  _space_group_symop_operation_xyz
  'x, y, z'

loop_
  _atom_site_type_symbol
  _atom_site_label
  _atom_site_symmetry_multiplicity
  _atom_site_fract_x
  _atom_site_fract_y
  _atom_site_fract_z
  _atom_site_occupancy
  Cd  Cd1       1.0  0.5  0.5  0.5  1.0000
  Cd  Cd2       1.0  0.0  0.0  0.0  1.0000
  H   H1        1.0  0.33394999999999997  0.50832  0.86487  1.0000
  H   H2        1.0  0.28255  0.22411999999999996  0.8143  1.0000
  H   H3        1.0  0.2233100000000001  0.3239400000000001  0.7980100000000001  1.0000
  H   H4        1.0  0.14445  0.08772  0.85158  1.0000
  H   H5        1.0  0.12009  0.31189  0.13035  1.0000
  H   H6        1.0  0.25196  0.44250000000000006  0.04927000000000001  1.0000
  H   H7        1.0  0.3936699999999999  0.21658  0.9779000000000001  1.0000
  H   H8        1.0  0.54369  0.25881  0.021080000000000005  1.0000
  H   H9        1.0  0.40302  0.40334  0.19643  1.0000
  H   H10       1.0  0.6341900000000003  0.32359  0.41461  1.0000
  H   H11       1.0  0.6210299999999999  0.23241999999999996  0.19229  1.0000
  H   H12       1.0  0.86488  0.33393  0.5083  1.0000
  H   H13       1.0  0.8143099999999998  0.28252  0.2241  1.0000
  H   H14       1.0  0.79804  0.22327000000000002  0.32393000000000005  1.0000
  H   H15       1.0  0.8516099999999998  0.14445  0.08770000000000001  1.0000
  H   H16       1.0  0.13038  0.1201  0.31187  1.0000
  H   H17       1.0  0.049290000000000014  0.25194  0.44248  1.0000
  H   H18       1.0  0.9778999999999999  0.39370999999999995  0.21656  1.0000
  H   H19       1.0  0.021109999999999973  0.54377  0.25886  1.0000
  H   H20       1.0  0.19642  0.40304  0.40335  1.0000
  H   H21       1.0  0.41448999999999997  0.63416  0.3234600000000001  1.0000
  H   H22       1.0  0.19223000000000004  0.62108  0.23242000000000002  1.0000
  H   H23       1.0  0.50829  0.8648299999999999  0.33392000000000005  1.0000
  H   H24       1.0  0.22411999999999999  0.8143399999999998  0.28257  1.0000
  H   H25       1.0  0.32385999999999987  0.79798  0.22326  1.0000
  H   H26       1.0  0.08771  0.85162  0.14448  1.0000
  H   H27       1.0  0.31184  0.13038  0.12011000000000001  1.0000
  H   H28       1.0  0.4424599999999999  0.04928  0.25193  1.0000
  H   H29       1.0  0.21660000000000001  0.97783  0.39366000000000007  1.0000
  H   H30       1.0  0.25884  0.02101000000000002  0.5437  1.0000
  H   H31       1.0  0.40336  0.19639  0.40303  1.0000
  H   H32       1.0  0.32353000000000004  0.41446000000000005  0.6342000000000001  1.0000
  H   H33       1.0  0.23243  0.19215  0.62104  1.0000
  H   H34       1.0  0.66604  0.49168  0.13513  1.0000
  H   H35       1.0  0.7174399999999999  0.77588  0.1857  1.0000
  H   H36       1.0  0.77669  0.67606  0.20199000000000006  1.0000
  H   H37       1.0  0.85555  0.91228  0.14842000000000002  1.0000
  H   H38       1.0  0.8799000000000001  0.6881100000000001  0.8696500000000001  1.0000
  H   H39       1.0  0.7480400000000001  0.5575000000000001  0.9507300000000002  1.0000
  H   H40       1.0  0.60633  0.78342  0.0221  1.0000
  H   H41       1.0  0.4562999999999999  0.74119  0.97891  1.0000
  H   H42       1.0  0.59698  0.59666  0.8035700000000002  1.0000
  H   H43       1.0  0.3658  0.67641  0.58539  1.0000
  H   H44       1.0  0.3789600000000001  0.7675799999999999  0.8077000000000002  1.0000
  H   H45       1.0  0.13511000000000006  0.6660699999999999  0.4916900000000001  1.0000
  H   H46       1.0  0.18568  0.71749  0.7759  1.0000
  H   H47       1.0  0.20194999999999994  0.77673  0.67606  1.0000
  H   H48       1.0  0.14838000000000012  0.8555500000000003  0.9123000000000001  1.0000
  H   H49       1.0  0.86962  0.87991  0.68813  1.0000
  H   H50       1.0  0.9507  0.74806  0.5575200000000001  1.0000
  H   H51       1.0  0.022100000000000095  0.6062900000000001  0.7834400000000001  1.0000
  H   H52       1.0  0.97888  0.45623  0.74114  1.0000
  H   H53       1.0  0.8035699999999997  0.5969599999999998  0.59664  1.0000
  H   H54       1.0  0.5855  0.36583999999999994  0.67654  1.0000
  H   H55       1.0  0.80777  0.3789200000000001  0.7675700000000001  1.0000
  H   H56       1.0  0.4917  0.13517  0.66608  1.0000
  H   H57       1.0  0.7758699999999997  0.18566000000000005  0.7174300000000001  1.0000
  H   H58       1.0  0.6761299999999998  0.20203000000000002  0.7767400000000001  1.0000
  H   H59       1.0  0.9122899999999998  0.14839  0.85552  1.0000
  H   H60       1.0  0.68815  0.8696199999999997  0.87989  1.0000
  H   H61       1.0  0.55753  0.95072  0.74806  1.0000
  H   H62       1.0  0.7834  0.022169999999999985  0.60634  1.0000
  H   H63       1.0  0.74116  0.97899  0.4562900000000001  1.0000
  H   H64       1.0  0.5966299999999998  0.8036099999999999  0.59696  1.0000
  H   H65       1.0  0.6764700000000001  0.58554  0.3658  1.0000
  H   H66       1.0  0.7675599999999999  0.80785  0.3789600000000001  1.0000
  C   C1        1.0  0.39253999999999994  0.40274000000000004  0.9337500000000002  1.0000
  C   C2        1.0  0.40739  0.5057999999999999  0.9251900000000001  1.0000
  C   C3        1.0  0.48685  0.39242  0.01065  1.0000
  C   C4        1.0  0.27703  0.30365  0.8612900000000001  1.0000
  C   C5        1.0  0.15440999999999996  0.16534999999999997  0.91677  1.0000
  C   C6        1.0  0.143  0.28455  0.05928  1.0000
  C   C7        1.0  0.2083  0.35043  0.02083  1.0000
  C   C8        1.0  0.47839999999999994  0.28938  0.032420000000000004  1.0000
  C   C9        1.0  0.46315  0.36888  0.22691  1.0000
  C   C10       1.0  0.58289  0.32502  0.33601000000000003  1.0000
  C   C11       1.0  0.57803  0.28047  0.22707  1.0000
  C   C12       1.0  0.93374  0.39253000000000005  0.40273000000000003  1.0000
  C   C13       1.0  0.9251899999999998  0.40738  0.50579  1.0000
  C   C14       1.0  0.010640000000000052  0.48686000000000007  0.39242000000000005  1.0000
  C   C15       1.0  0.8613  0.2770000000000001  0.3036400000000001  1.0000
  C   C16       1.0  0.9168  0.15442  0.16533  1.0000
  C   C17       1.0  0.05931000000000002  0.14300000000000002  0.28453000000000006  1.0000
  C   C18       1.0  0.02085000000000004  0.20828000000000005  0.35041000000000005  1.0000
  C   C19       1.0  0.03242000000000001  0.47843  0.28939000000000004  1.0000
  C   C20       1.0  0.22689  0.46316  0.36887  1.0000
  C   C21       1.0  0.33592999999999995  0.58287  0.32494000000000006  1.0000
  C   C22       1.0  0.22701  0.57806  0.28045  1.0000
  C   C23       1.0  0.40274  0.93373  0.39253  1.0000
  C   C24       1.0  0.5057800000000001  0.92515  0.40737000000000007  1.0000
  C   C25       1.0  0.39245  0.010630000000000073  0.4868600000000001  1.0000
  C   C26       1.0  0.30363999999999997  0.8612799999999999  0.27702000000000004  1.0000
  C   C27       1.0  0.16534000000000004  0.9168  0.15445  1.0000
  C   C28       1.0  0.28451  0.0593  0.14302  1.0000
  C   C29       1.0  0.3504  0.020839999999999987  0.20829  1.0000
  C   C30       1.0  0.2894  0.03235000000000005  0.4784000000000001  1.0000
  C   C31       1.0  0.3688899999999999  0.22686  0.46316  1.0000
  C   C32       1.0  0.32498  0.3358999999999999  0.58288  1.0000
  C   C33       1.0  0.28046000000000004  0.22695000000000004  0.5780300000000002  1.0000
  C   C34       1.0  0.60746  0.59726  0.06624000000000001  1.0000
  C   C35       1.0  0.59261  0.4942  0.07481  1.0000
  C   C36       1.0  0.51314  0.60758  0.98935  1.0000
  C   C37       1.0  0.72297  0.69635  0.13871  1.0000
  C   C38       1.0  0.84558  0.83465  0.08323000000000001  1.0000
  C   C39       1.0  0.8569899999999998  0.71545  0.9407200000000002  1.0000
  C   C40       1.0  0.7917  0.6495799999999999  0.97917  1.0000
  C   C41       1.0  0.5215899999999999  0.7106199999999999  0.96758  1.0000
  C   C42       1.0  0.53684  0.63112  0.77309  1.0000
  C   C43       1.0  0.41711  0.67498  0.66399  1.0000
  C   C44       1.0  0.42196  0.71953  0.77293  1.0000
  C   C45       1.0  0.06625000000000009  0.6074700000000001  0.5972700000000001  1.0000
  C   C46       1.0  0.07479999999999995  0.59262  0.49421  1.0000
  C   C47       1.0  0.9893599999999996  0.51314  0.60758  1.0000
  C   C48       1.0  0.13868999999999992  0.7229999999999999  0.69636  1.0000
  C   C49       1.0  0.0832  0.84558  0.83467  1.0000
  C   C50       1.0  0.94069  0.857  0.71546  1.0000
  C   C51       1.0  0.9791500000000001  0.79172  0.64959  1.0000
  C   C52       1.0  0.96758  0.52157  0.7106100000000001  1.0000
  C   C53       1.0  0.77311  0.53684  0.63113  1.0000
  C   C54       1.0  0.66407  0.41713  0.6750600000000001  1.0000
  C   C55       1.0  0.7729800000000001  0.42194000000000015  0.7195500000000002  1.0000
  C   C56       1.0  0.5972500000000001  0.06627000000000004  0.6074600000000001  1.0000
  C   C57       1.0  0.4942199999999999  0.07484999999999997  0.59263  1.0000
  C   C58       1.0  0.60755  0.98937  0.5131400000000002  1.0000
  C   C59       1.0  0.69635  0.13872000000000004  0.7229800000000001  1.0000
  C   C60       1.0  0.83465  0.08321000000000006  0.8455400000000001  1.0000
  C   C61       1.0  0.71548  0.9407  0.85698  1.0000
  C   C62       1.0  0.6495900000000003  0.9791600000000003  0.7917100000000002  1.0000
  C   C63       1.0  0.71059  0.96765  0.5216  1.0000
  C   C64       1.0  0.6311099999999998  0.77315  0.5368400000000001  1.0000
  C   C65       1.0  0.67502  0.6641  0.4171200000000001  1.0000
  C   C66       1.0  0.71954  0.77305  0.42197  1.0000
  N   N1        1.0  0.21528000000000003  0.27343  0.93084  1.0000
  N   N2        1.0  0.10967000000000011  0.1693400000000001  0.9936600000000002  1.0000
  N   N3        1.0  0.50135  0.30843  0.15842  1.0000
  N   N4        1.0  0.51037  0.37972999999999996  0.33481  1.0000
  N   N5        1.0  0.93086  0.21527  0.27342  1.0000
  N   N6        1.0  0.99369  0.10967999999999999  0.16932  1.0000
  N   N7        1.0  0.1584  0.50139  0.30846  1.0000
  N   N8        1.0  0.33474999999999994  0.5103400000000001  0.37966000000000005  1.0000
  N   N9        1.0  0.27342000000000005  0.93086  0.21529000000000004  1.0000
  N   N10       1.0  0.16932  0.9937  0.10971000000000003  1.0000
  N   N11       1.0  0.30845  0.15834  0.50135  1.0000
  N   N12       1.0  0.37970000000000004  0.33474  0.5103600000000001  1.0000
  N   N13       1.0  0.78471  0.72657  0.06916  1.0000
  N   N14       1.0  0.8903299999999997  0.83066  0.006340000000000001  1.0000
  N   N15       1.0  0.49865  0.69157  0.8415800000000002  1.0000
  N   N16       1.0  0.48962999999999995  0.62028  0.6651900000000001  1.0000
  N   N17       1.0  0.06912999999999997  0.7847299999999998  0.7265800000000001  1.0000
  N   N18       1.0  0.006309999999999948  0.89032  0.83067  1.0000
  N   N19       1.0  0.84159  0.49860999999999994  0.6915400000000002  1.0000
  N   N20       1.0  0.66524  0.48966  0.62034  1.0000
  N   N21       1.0  0.72657  0.06915000000000013  0.7847100000000001  1.0000
  N   N22       1.0  0.83067  0.006300000000000061  0.8902900000000001  1.0000
  N   N23       1.0  0.6915399999999998  0.84166  0.49865  1.0000
  N   N24       1.0  0.6202899999999999  0.66527  0.48964  1.0000
