data_image0
_chemical_formula_structural       Mn4H88C96N8O16
_chemical_formula_sum              "Mn4 H88 C96 N8 O16"
_cell_length_a       13.46428
_cell_length_b       13.84273
_cell_length_c       16.26482
_cell_angle_alpha    108.45114
_cell_angle_beta     90.0519
_cell_angle_gamma    119.06098999999999

_symmetry_space_group_name_H-M    'P 1'
_symmetry_Int_Tables_number       1

loop_
  _symmetry_equiv_pos_as_xyz
  'x,y,z'

loop_
  _atom_site_type_symbol
  _atom_site_label
  _atom_site_symmetry_multiplicity
  _atom_site_fract_x
  _atom_site_fract_y
  _atom_site_fract_z
  _atom_site_occupancy
  Mn  Mn1       1.0  0.97029  0.4136500000000001  0.8678100000000002  1.0000
  Mn  Mn2       1.0  0.55634  0.58633  0.63207  1.0000
  Mn  Mn3       1.0  0.02971000000000001  0.58634  0.13219  1.0000
  Mn  Mn4       1.0  0.44366  0.4136699999999999  0.36793  1.0000
  H   H1        1.0  0.026849999999999985  0.38298  0.3126  1.0000
  H   H2        1.0  0.005070000000000017  0.23732000000000006  0.2783600000000001  1.0000
  H   H3        1.0  0.89893  0.26147  0.23982000000000003  1.0000
  H   H4        1.0  0.7928199999999999  0.33355  0.44935000000000014  1.0000
  H   H5        1.0  0.90216  0.43799000000000005  0.4111700000000001  1.0000
  H   H6        1.0  0.7769499999999999  0.31383  0.3357700000000001  1.0000
  H   H7        1.0  0.7447599999999998  0.10821  0.29166  1.0000
  H   H8        1.0  0.84835  0.08219000000000003  0.33281000000000005  1.0000
  H   H9        1.0  0.76251  0.12024  0.40362  1.0000
  H   H10       1.0  0.1981  0.40816  0.67207  1.0000
  H   H11       1.0  0.13668  0.3487  0.3972400000000001  1.0000
  H   H12       1.0  0.8571299999999998  0.28094000000000013  0.5429800000000002  1.0000
  H   H13       1.0  0.22188  0.49751  0.8443700000000002  1.0000
  H   H14       1.0  0.40353000000000006  0.6719900000000001  0.84213  1.0000
  H   H15       1.0  0.23668  0.87762  0.9309200000000002  1.0000
  H   H16       1.0  0.061459999999999945  0.69215  0.9268900000000002  1.0000
  H   H17       1.0  0.42716  0.97835  0.90883  1.0000
  H   H18       1.0  0.5508799999999998  0.8379399999999999  0.8432600000000002  1.0000
  H   H19       1.0  0.7078699999999999  0.3007000000000001  0.8669100000000002  1.0000
  H   H20       1.0  0.5368900000000001  0.11459000000000007  0.8658800000000002  1.0000
  H   H21       1.0  0.76036  0.96998  0.8560900000000002  1.0000
  H   H22       1.0  0.9234000000000001  0.1656300000000001  0.8591500000000001  1.0000
  H   H23       1.0  0.6440900000000002  0.6169400000000002  0.18742000000000006  1.0000
  H   H24       1.0  0.7678899999999999  0.76249  0.22163  1.0000
  H   H25       1.0  0.63778  0.7385399999999999  0.26015  1.0000
  H   H26       1.0  0.45928999999999987  0.66653  0.05056  1.0000
  H   H27       1.0  0.4642899999999999  0.5620600000000001  0.08881000000000003  1.0000
  H   H28       1.0  0.46328999999999987  0.68625  0.16411000000000006  1.0000
  H   H29       1.0  0.63665  0.89186  0.20822  1.0000
  H   H30       1.0  0.76615  0.91773  0.16708000000000006  1.0000
  H   H31       1.0  0.64225  0.87974  0.09621000000000003  1.0000
  H   H32       1.0  0.78971  0.5921  0.82786  1.0000
  H   H33       1.0  0.78799  0.65111  0.10272000000000003  1.0000
  H   H34       1.0  0.5759700000000001  0.7191400000000001  0.9569400000000001  1.0000
  H   H35       1.0  0.72426  0.50253  0.65561  1.0000
  H   H36       1.0  0.7314499999999998  0.3279900000000001  0.6580300000000002  1.0000
  H   H37       1.0  0.35894000000000004  0.12266000000000014  0.5690100000000002  1.0000
  H   H38       1.0  0.36926  0.3082  0.57282  1.0000
  H   H39       1.0  0.4489  0.021839999999999988  0.59127  1.0000
  H   H40       1.0  0.71275  0.1620900000000001  0.6567600000000002  1.0000
  H   H41       1.0  0.4074899999999999  0.69951  0.63312  1.0000
  H   H42       1.0  0.42236  0.88557  0.63411  1.0000
  H   H43       1.0  0.7903600000000001  0.03004000000000009  0.6439300000000002  1.0000
  H   H44       1.0  0.75796  0.83436  0.64096  1.0000
  H   H45       1.0  0.97315  0.6170199999999998  0.6874  1.0000
  H   H46       1.0  0.99493  0.76267  0.72164  1.0000
  H   H47       1.0  0.10107000000000003  0.7385300000000001  0.76018  1.0000
  H   H48       1.0  0.20718  0.66645  0.55065  1.0000
  H   H49       1.0  0.09783999999999998  0.56201  0.58882  1.0000
  H   H50       1.0  0.22304999999999997  0.68617  0.6642200000000003  1.0000
  H   H51       1.0  0.25523999999999997  0.8917900000000001  0.7083300000000002  1.0000
  H   H52       1.0  0.15165  0.91781  0.6671800000000002  1.0000
  H   H53       1.0  0.23749  0.87976  0.5963800000000002  1.0000
  H   H54       1.0  0.8019  0.5918400000000001  0.3279300000000001  1.0000
  H   H55       1.0  0.8633199999999999  0.6513  0.6027500000000002  1.0000
  H   H56       1.0  0.14287999999999995  0.7190599999999999  0.45701000000000014  1.0000
  H   H57       1.0  0.77812  0.50249  0.15563000000000005  1.0000
  H   H58       1.0  0.59647  0.32801  0.15787  1.0000
  H   H59       1.0  0.7633199999999998  0.12237999999999999  0.06907  1.0000
  H   H60       1.0  0.93855  0.30785  0.07311000000000002  1.0000
  H   H61       1.0  0.57284  0.02165  0.09117  1.0000
  H   H62       1.0  0.44911999999999996  0.16206  0.15674000000000002  1.0000
  H   H63       1.0  0.29213  0.6993  0.13309000000000007  1.0000
  H   H64       1.0  0.46310999999999997  0.88541  0.13412  1.0000
  H   H65       1.0  0.23963999999999996  0.03002  0.1439  1.0000
  H   H66       1.0  0.07659999999999992  0.83437  0.14085  1.0000
  H   H67       1.0  0.35591000000000006  0.3830600000000001  0.8125800000000002  1.0000
  H   H68       1.0  0.23211  0.23750999999999994  0.77837  1.0000
  H   H69       1.0  0.36222  0.2614600000000001  0.7398400000000002  1.0000
  H   H70       1.0  0.54071  0.33347  0.9494300000000002  1.0000
  H   H71       1.0  0.53571  0.43794000000000005  0.9111900000000003  1.0000
  H   H72       1.0  0.5367099999999999  0.3137400000000001  0.8358800000000002  1.0000
  H   H73       1.0  0.36336  0.10814000000000007  0.7917800000000003  1.0000
  H   H74       1.0  0.23385999999999998  0.08227000000000005  0.8329200000000001  1.0000
  H   H75       1.0  0.35775  0.1202600000000001  0.9037900000000002  1.0000
  H   H76       1.0  0.21030000000000001  0.40790000000000004  0.17214000000000004  1.0000
  H   H77       1.0  0.21201000000000003  0.34889000000000003  0.8972700000000002  1.0000
  H   H78       1.0  0.42403  0.28085  0.043060000000000015  1.0000
  H   H79       1.0  0.27574  0.49747000000000013  0.34439000000000003  1.0000
  H   H80       1.0  0.2685499999999999  0.67201  0.3419700000000001  1.0000
  H   H81       1.0  0.6410599999999997  0.87734  0.43099  1.0000
  H   H82       1.0  0.63074  0.6918  0.4271800000000001  1.0000
  H   H83       1.0  0.5511  0.97816  0.40872  1.0000
  H   H84       1.0  0.2872499999999999  0.8379  0.3432400000000001  1.0000
  H   H85       1.0  0.59251  0.30049000000000003  0.3668800000000001  1.0000
  H   H86       1.0  0.57764  0.11443000000000005  0.3658900000000001  1.0000
  H   H87       1.0  0.20963999999999994  0.96996  0.35607  1.0000
  H   H88       1.0  0.24203999999999995  0.16564  0.35904  1.0000
  C   C1        1.0  0.96202  0.28899  0.29739  1.0000
  C   C2        1.0  0.83958  0.34322  0.3944900000000001  1.0000
  C   C3        1.0  0.8086500000000001  0.13732000000000005  0.3494500000000001  1.0000
  C   C4        1.0  0.02141000000000001  0.33962  0.61447  1.0000
  C   C5        1.0  0.13862  0.37952  0.61265  1.0000
  C   C6        1.0  0.17888999999999994  0.38405  0.53417  1.0000
  C   C7        1.0  0.1019  0.34609000000000006  0.45723000000000014  1.0000
  C   C8        1.0  0.9849999999999999  0.30876  0.4580500000000001  1.0000
  C   C9        1.0  0.94661  0.30702000000000007  0.5381200000000002  1.0000
  C   C10       1.0  0.9797799999999999  0.34130000000000005  0.6998100000000003  1.0000
  C   C11       1.0  0.30433  0.43044  0.53153  1.0000
  C   C12       1.0  0.9003000000000001  0.27033000000000007  0.3753900000000001  1.0000
  C   C13       1.0  0.22969000000000003  0.5839600000000001  0.8636400000000002  1.0000
  C   C14       1.0  0.33092000000000016  0.6822800000000002  0.8625600000000002  1.0000
  C   C15       1.0  0.33646999999999994  0.7922700000000001  0.8868300000000002  1.0000
  C   C16       1.0  0.23729000000000006  0.7950900000000001  0.91111  1.0000
  C   C17       1.0  0.13919999999999993  0.69199  0.9093600000000001  1.0000
  C   C18       1.0  0.43695  0.9008700000000001  0.8869900000000001  1.0000
  C   C19       1.0  0.53785  0.9135500000000001  0.8633800000000003  1.0000
  C   C20       1.0  0.7153799999999998  0.22549000000000008  0.86584  1.0000
  C   C21       1.0  0.62083  0.12143000000000007  0.8660700000000002  1.0000
  C   C22       1.0  0.6338499999999999  0.025550000000000173  0.8635800000000002  1.0000
  C   C23       1.0  0.74521  0.0416800000000001  0.8600600000000003  1.0000
  C   C24       1.0  0.83593  0.14944000000000005  0.8608600000000002  1.0000
  C   C25       1.0  0.6732  0.71093  0.20258000000000007  1.0000
  C   C26       1.0  0.49646  0.65682  0.10543  1.0000
  C   C27       1.0  0.6713299999999999  0.86267  0.15045  1.0000
  C   C28       1.0  0.6815099999999998  0.6603800000000001  0.8855100000000002  1.0000
  C   C29       1.0  0.7589599999999999  0.6205900000000001  0.8873200000000002  1.0000
  C   C30       1.0  0.7949199999999998  0.61605  0.9658000000000001  1.0000
  C   C31       1.0  0.75579  0.65377  0.042700000000000016  1.0000
  C   C32       1.0  0.6762  0.69117  0.041890000000000004  1.0000
  C   C33       1.0  0.63942  0.69302  0.9618300000000002  1.0000
  C   C34       1.0  0.6381399999999999  0.65856  0.8001  1.0000
  C   C35       1.0  0.87451  0.5701800000000001  0.9684900000000001  1.0000
  C   C36       1.0  0.6300399999999998  0.7296399999999998  0.12456000000000003  1.0000
  C   C37       1.0  0.64561  0.4161300000000001  0.6363500000000002  1.0000
  C   C38       1.0  0.64856  0.3178200000000001  0.6375600000000002  1.0000
  C   C39       1.0  0.54408  0.20792000000000005  0.6132500000000002  1.0000
  C   C40       1.0  0.44209  0.20514000000000007  0.5888600000000003  1.0000
  C   C41       1.0  0.44709  0.30826  0.59049  1.0000
  C   C42       1.0  0.53599  0.09931999999999999  0.61309  1.0000
  C   C43       1.0  0.62426  0.08652999999999997  0.63669  1.0000
  C   C44       1.0  0.4901399999999999  0.7746899999999999  0.6341900000000003  1.0000
  C   C45       1.0  0.49947999999999987  0.87872  0.63397  1.0000
  C   C46       1.0  0.60832  0.97453  0.63648  1.0000
  C   C47       1.0  0.7035799999999999  0.95838  0.64  1.0000
  C   C48       1.0  0.6867  0.8506200000000002  0.6391900000000003  1.0000
  C   C49       1.0  0.037979999999999924  0.7110099999999999  0.70261  1.0000
  C   C50       1.0  0.16043  0.65678  0.60551  1.0000
  C   C51       1.0  0.19134999999999988  0.86267  0.65055  1.0000
  C   C52       1.0  0.97859  0.6603800000000001  0.38552000000000003  1.0000
  C   C53       1.0  0.86139  0.62048  0.38734000000000013  1.0000
  C   C54       1.0  0.82111  0.6159400000000002  0.46583000000000013  1.0000
  C   C55       1.0  0.8981  0.65391  0.5427700000000002  1.0000
  C   C56       1.0  0.014999999999999994  0.69124  0.54194  1.0000
  C   C57       1.0  0.05339000000000006  0.6929800000000002  0.4618800000000001  1.0000
  C   C58       1.0  0.020220000000000012  0.6587  0.3001900000000001  1.0000
  C   C59       1.0  0.69567  0.56956  0.4684700000000001  1.0000
  C   C60       1.0  0.09970000000000001  0.7296699999999999  0.62461  1.0000
  C   C61       1.0  0.77032  0.41604  0.13636000000000006  1.0000
  C   C62       1.0  0.66908  0.31771  0.13744000000000006  1.0000
  C   C63       1.0  0.6635299999999998  0.20773  0.11317000000000003  1.0000
  C   C64       1.0  0.76271  0.20491  0.08888000000000003  1.0000
  C   C65       1.0  0.86081  0.30801000000000006  0.09063  1.0000
  C   C66       1.0  0.56305  0.09913000000000001  0.11300000000000003  1.0000
  C   C67       1.0  0.4621499999999999  0.08645  0.13662  1.0000
  C   C68       1.0  0.28462000000000004  0.77451  0.13415000000000005  1.0000
  C   C69       1.0  0.37917  0.87857  0.13392  1.0000
  C   C70       1.0  0.36615999999999993  0.97445  0.13642  1.0000
  C   C71       1.0  0.25479  0.95832  0.13994000000000004  1.0000
  C   C72       1.0  0.16408000000000011  0.8505600000000002  0.13913000000000006  1.0000
  C   C73       1.0  0.3268  0.28907000000000005  0.7974200000000002  1.0000
  C   C74       1.0  0.5035399999999999  0.34317999999999993  0.8945700000000002  1.0000
  C   C75       1.0  0.32867000000000013  0.13733000000000015  0.8495400000000002  1.0000
  C   C76       1.0  0.3184899999999999  0.33962  0.11449000000000002  1.0000
  C   C77       1.0  0.24103999999999995  0.37941  0.11268000000000003  1.0000
  C   C78       1.0  0.20507999999999996  0.38393999999999995  0.03419000000000001  1.0000
  C   C79       1.0  0.2442100000000001  0.3462300000000001  0.9573000000000003  1.0000
  C   C80       1.0  0.32380000000000003  0.30883000000000005  0.9581100000000001  1.0000
  C   C81       1.0  0.36058  0.30698  0.03817  1.0000
  C   C82       1.0  0.36186  0.34144  0.19989000000000007  1.0000
  C   C83       1.0  0.12549  0.42982  0.03151  1.0000
  C   C84       1.0  0.36996000000000007  0.2703600000000001  0.8754400000000001  1.0000
  C   C85       1.0  0.35439  0.58387  0.3636500000000001  1.0000
  C   C86       1.0  0.35144  0.68218  0.3624400000000001  1.0000
  C   C87       1.0  0.45591999999999994  0.7920800000000001  0.3867500000000001  1.0000
  C   C88       1.0  0.55791  0.7948599999999999  0.4111300000000001  1.0000
  C   C89       1.0  0.5529099999999999  0.69174  0.40951  1.0000
  C   C90       1.0  0.4640099999999999  0.90068  0.3869100000000001  1.0000
  C   C91       1.0  0.3757399999999999  0.9134699999999999  0.36331  1.0000
  C   C92       1.0  0.50986  0.22531  0.36581  1.0000
  C   C93       1.0  0.50052  0.12128000000000004  0.3660300000000001  1.0000
  C   C94       1.0  0.39168000000000003  0.025460000000000024  0.3635200000000001  1.0000
  C   C95       1.0  0.29641999999999996  0.041619999999999956  0.36  1.0000
  C   C96       1.0  0.3133  0.14937  0.36081  1.0000
  N   N1        1.0  0.13388000000000005  0.5868300000000001  0.8860700000000002  1.0000
  N   N2        1.0  0.8221199999999999  0.24057000000000003  0.8634800000000001  1.0000
  N   N3        1.0  0.5469800000000001  0.41333  0.61379  1.0000
  N   N4        1.0  0.58178  0.7595700000000001  0.6365600000000002  1.0000
  N   N5        1.0  0.86612  0.41317  0.11392000000000002  1.0000
  N   N6        1.0  0.17788000000000007  0.7594300000000002  0.13652000000000006  1.0000
  N   N7        1.0  0.45302  0.5866700000000002  0.3862100000000001  1.0000
  N   N8        1.0  0.41822000000000004  0.2404300000000001  0.3634300000000001  1.0000
  O   O1        1.0  0.039049999999999974  0.33891999999999994  0.76039  1.0000
  O   O2        1.0  0.89134  0.35141  0.71261  1.0000
  O   O3        1.0  0.33068  0.39091000000000004  0.45838000000000007  1.0000
  O   O4        1.0  0.37613999999999986  0.50509  0.60359  1.0000
  O   O5        1.0  0.6999799999999999  0.66167  0.73975  1.0000
  O   O6        1.0  0.53924  0.6476400000000002  0.7871100000000002  1.0000
  O   O7        1.0  0.94029  0.6097  0.041770000000000015  1.0000
  O   O8        1.0  0.8724  0.49609000000000003  0.8964800000000003  1.0000
  O   O9        1.0  0.96095  0.66108  0.23961000000000005  1.0000
  O   O10       1.0  0.10866000000000005  0.64859  0.28738  1.0000
  O   O11       1.0  0.66932  0.60909  0.54162  1.0000
  O   O12       1.0  0.6238599999999999  0.49491  0.39641  1.0000
  O   O13       1.0  0.30003  0.33833  0.26025  1.0000
  O   O14       1.0  0.46076  0.35236  0.21289000000000005  1.0000
  O   O15       1.0  0.059710000000000096  0.39030000000000015  0.9582300000000002  1.0000
  O   O16       1.0  0.1276  0.50391  0.10352000000000003  1.0000
