data_image0
_chemical_formula_structural       Sm4H72C102O24
_chemical_formula_sum              "Sm4 H72 C102 O24"
_cell_length_a       11.63178
_cell_length_b       13.64928
_cell_length_c       24.01196
_cell_angle_alpha    92.76681
_cell_angle_beta     104.15139999999998
_cell_angle_gamma    112.72823

_symmetry_space_group_name_H-M    'P 1'
_symmetry_Int_Tables_number       1

loop_
  _symmetry_equiv_pos_as_xyz
  'x,y,z'

loop_
  _atom_site_type_symbol
  _atom_site_label
  _atom_site_symmetry_multiplicity
  _atom_site_fract_x
  _atom_site_fract_y
  _atom_site_fract_z
  _atom_site_occupancy
  Sm  Sm1       1.0  0.62666  0.58997  0.95918  1.0000
  Sm  Sm2       1.0  0.37612  0.29229000000000005  0.51735  1.0000
  Sm  Sm3       1.0  0.37337999999999993  0.40854000000000007  0.04041000000000001  1.0000
  Sm  Sm4       1.0  0.6244600000000001  0.7086700000000002  0.48309000000000013  1.0000
  H   H1        1.0  0.56251  0.86705  0.85787  1.0000
  H   H2        1.0  0.6601800000000001  0.65477  0.7584700000000002  1.0000
  H   H3        1.0  0.6333999999999999  0.7510000000000001  0.67226  1.0000
  H   H4        1.0  0.34288  0.015310000000000023  0.7605700000000001  1.0000
  H   H5        1.0  0.3729100000000002  0.9345300000000002  0.8133200000000003  1.0000
  H   H6        1.0  0.30904000000000004  0.8786200000000001  0.73778  1.0000
  H   H7        1.0  0.57972  0.15186  0.80533  1.0000
  H   H8        1.0  0.61863  0.06782000000000005  0.8539600000000002  1.0000
  H   H9        1.0  0.70985  0.11455  0.80376  1.0000
  H   H10       1.0  0.5939000000000001  0.8777500000000003  0.5981400000000001  1.0000
  H   H11       1.0  0.4612999999999999  0.13594  0.69285  1.0000
  H   H12       1.0  0.53873  0.012769999999999978  0.54393  1.0000
  H   H13       1.0  0.14821000000000004  0.11199000000000002  0.32044  1.0000
  H   H14       1.0  0.9468100000000002  0.9853900000000002  0.44759  1.0000
  H   H15       1.0  0.7585099999999999  0.84996  0.36895  1.0000
  H   H16       1.0  0.9223899999999998  0.04486000000000001  0.14751  1.0000
  H   H17       1.0  0.8716200000000001  0.08637000000000004  0.20502000000000004  1.0000
  H   H18       1.0  0.040510000000000004  0.12954  0.21181000000000005  1.0000
  H   H19       1.0  0.05571000000000014  0.86233  0.23114  1.0000
  H   H20       1.0  0.03168999999999997  0.90811  0.16275  1.0000
  H   H21       1.0  0.14689999999999998  0.99877  0.2257  1.0000
  H   H22       1.0  0.7824799999999998  0.8360900000000002  0.10864  1.0000
  H   H23       1.0  0.59566  0.7271  0.27479  1.0000
  H   H24       1.0  0.47248  0.62995  0.17205  1.0000
  H   H25       1.0  0.109  0.29876  0.38971  1.0000
  H   H26       1.0  0.33481000000000005  0.5951500000000002  0.33905  1.0000
  H   H27       1.0  0.91805  0.26539  0.30358  1.0000
  H   H28       1.0  0.21656999999999998  0.5089  0.18464  1.0000
  H   H29       1.0  0.32658  0.63283  0.23051000000000002  1.0000
  H   H30       1.0  0.21128  0.63255  0.1663  1.0000
  H   H31       1.0  0.0799699999999999  0.68122  0.29152000000000006  1.0000
  H   H32       1.0  0.24752000000000002  0.73383  0.29447  1.0000
  H   H33       1.0  0.13102000000000005  0.7375700000000002  0.23192  1.0000
  H   H34       1.0  0.74378  0.2838700000000001  0.21453000000000003  1.0000
  H   H35       1.0  0.9694099999999999  0.61587  0.13495  1.0000
  H   H36       1.0  0.62276  0.33597  0.12826  1.0000
  H   H37       1.0  0.43781  0.13259000000000004  0.14218000000000003  1.0000
  H   H38       1.0  0.34005  0.34498  0.24135  1.0000
  H   H39       1.0  0.36649  0.24891000000000002  0.32759  1.0000
  H   H40       1.0  0.6572600000000001  0.9846800000000001  0.23944  1.0000
  H   H41       1.0  0.62712  0.06544  0.1867  1.0000
  H   H42       1.0  0.69097  0.12134000000000002  0.26223  1.0000
  H   H43       1.0  0.42022999999999994  0.8479800000000001  0.19466  1.0000
  H   H44       1.0  0.38139  0.93214  0.14608  1.0000
  H   H45       1.0  0.2902  0.8854000000000001  0.19627000000000006  1.0000
  H   H46       1.0  0.4061799999999999  0.12207  0.40197  1.0000
  H   H47       1.0  0.53874  0.8639200000000004  0.30712000000000006  1.0000
  H   H48       1.0  0.46136000000000005  0.9870300000000003  0.4560900000000001  1.0000
  H   H49       1.0  0.85175  0.8880900000000002  0.67956  1.0000
  H   H50       1.0  0.05329000000000008  0.014850000000000006  0.5525200000000001  1.0000
  H   H51       1.0  0.24160000000000012  0.1500700000000001  0.6311500000000001  1.0000
  H   H52       1.0  0.07752000000000013  0.9549700000000001  0.8525200000000002  1.0000
  H   H53       1.0  0.1282900000000001  0.9136300000000002  0.7950100000000001  1.0000
  H   H54       1.0  0.9594299999999999  0.8703100000000003  0.7882400000000002  1.0000
  H   H55       1.0  0.94413  0.13752  0.76887  1.0000
  H   H56       1.0  0.96799  0.09179000000000001  0.83726  1.0000
  H   H57       1.0  0.8527999999999999  0.0011399999999999876  0.77431  1.0000
  H   H58       1.0  0.21703  0.16339  0.89146  1.0000
  H   H59       1.0  0.40456  0.2732700000000001  0.7258100000000002  1.0000
  H   H60       1.0  0.5272300000000001  0.37022000000000005  0.8284900000000001  1.0000
  H   H61       1.0  0.8905099999999999  0.70128  0.61014  1.0000
  H   H62       1.0  0.6647699999999999  0.40483  0.6607800000000001  1.0000
  H   H63       1.0  0.08160000000000019  0.7346700000000003  0.6963100000000001  1.0000
  H   H64       1.0  0.78335  0.49112000000000006  0.81536  1.0000
  H   H65       1.0  0.67329  0.36716000000000004  0.7695  1.0000
  H   H66       1.0  0.78881  0.3675000000000001  0.83366  1.0000
  H   H67       1.0  0.91999  0.31886  0.70844  1.0000
  H   H68       1.0  0.75242  0.26616  0.70548  1.0000
  H   H69       1.0  0.869  0.26264  0.76808  1.0000
  H   H70       1.0  0.2550800000000001  0.7169100000000002  0.7847300000000003  1.0000
  H   H71       1.0  0.031190000000000006  0.38467  0.8648  1.0000
  H   H72       1.0  0.3771399999999999  0.66495  0.87088  1.0000
  C   C1        1.0  0.63578  0.7032  0.86493  1.0000
  C   C2        1.0  0.6141800000000001  0.7557700000000002  0.8128800000000003  1.0000
  C   C3        1.0  0.57672  0.84188  0.8173000000000001  1.0000
  C   C4        1.0  0.6328199999999999  0.7223400000000001  0.7605600000000001  1.0000
  C   C5        1.0  0.5586199999999999  0.8932300000000001  0.76967  1.0000
  C   C6        1.0  0.61703  0.7752200000000001  0.7126  1.0000
  C   C7        1.0  0.5799199999999999  0.8609700000000002  0.71753  1.0000
  C   C8        1.0  0.5164500000000001  0.98584  0.7642200000000001  1.0000
  C   C9        1.0  0.55588  0.93046  0.67577  1.0000
  C   C10       1.0  0.37656000000000006  0.9512400000000002  0.76934  1.0000
  C   C11       1.0  0.5197299999999999  0.004240000000000006  0.70262  1.0000
  C   C12       1.0  0.6120699999999999  0.08621  0.80957  1.0000
  C   C13       1.0  0.56379  0.93301  0.61851  1.0000
  C   C14       1.0  0.48957999999999996  0.07913999999999997  0.67267  1.0000
  C   C15       1.0  0.53373  0.008850000000000023  0.5884400000000001  1.0000
  C   C16       1.0  0.49687000000000003  0.08173000000000005  0.6151200000000001  1.0000
  C   C17       1.0  0.46224999999999994  0.16014000000000003  0.5828  1.0000
  C   C18       1.0  0.16902  0.1371  0.43379  1.0000
  C   C19       1.0  0.05719  0.0562  0.38838  1.0000
  C   C20       1.0  0.06345000000000002  0.054260000000000023  0.33047  1.0000
  C   C21       1.0  0.9480299999999998  0.98251  0.40238  1.0000
  C   C22       1.0  0.9599599999999998  0.97903  0.28729  1.0000
  C   C23       1.0  0.84385  0.90643  0.35873  1.0000
  C   C24       1.0  0.9442999999999998  0.96136  0.22237  1.0000
  C   C25       1.0  0.8506499999999999  0.9047400000000002  0.30133000000000004  1.0000
  C   C26       1.0  0.94467  0.06174  0.19503  1.0000
  C   C27       1.0  0.8110899999999999  0.86741  0.20125  1.0000
  C   C28       1.0  0.0512800000000001  0.93059  0.20975  1.0000
  C   C29       1.0  0.75738  0.8361700000000001  0.24778  1.0000
  C   C30       1.0  0.7429900000000003  0.8144400000000002  0.14508  1.0000
  C   C31       1.0  0.63503  0.75079  0.23835  1.0000
  C   C32       1.0  0.62028  0.72847  0.13539  1.0000
  C   C33       1.0  0.5666399999999999  0.69778  0.18164000000000005  1.0000
  C   C34       1.0  0.55077  0.6669  0.07594  1.0000
  C   C35       1.0  0.33903000000000005  0.4732700000000001  0.4232500000000001  1.0000
  C   C36       1.0  0.23066999999999996  0.44866  0.36956  1.0000
  C   C37       1.0  0.11410000000000003  0.35533000000000003  0.35906  1.0000
  C   C38       1.0  0.24388000000000007  0.5238000000000002  0.33072000000000007  1.0000
  C   C39       1.0  0.008130000000000021  0.33719  0.31116  1.0000
  C   C40       1.0  0.13841999999999996  0.50596  0.2833800000000001  1.0000
  C   C41       1.0  0.01979  0.41407000000000005  0.27362  1.0000
  C   C42       1.0  0.12834  0.57763  0.23758  1.0000
  C   C43       1.0  0.9255299999999999  0.42123  0.22273  1.0000
  C   C44       1.0  0.22644  0.5883700000000002  0.20247  1.0000
  C   C45       1.0  0.1481899999999999  0.6894  0.26571  1.0000
  C   C46       1.0  0.9880800000000001  0.51556  0.20044  1.0000
  C   C47       1.0  0.79322  0.35547  0.19707000000000005  1.0000
  C   C48       1.0  0.9214699999999999  0.54324  0.15206  1.0000
  C   C49       1.0  0.7254899999999999  0.38455000000000006  0.14915  1.0000
  C   C50       1.0  0.7887999999999995  0.47696  0.12611  1.0000
  C   C51       1.0  0.71602  0.5063900000000001  0.0746  1.0000
  C   C52       1.0  0.36454000000000003  0.29694  0.13526000000000002  1.0000
  C   C53       1.0  0.38624999999999987  0.24401  0.18707  1.0000
  C   C54       1.0  0.4234199999999999  0.15779  0.18266000000000002  1.0000
  C   C55       1.0  0.36728  0.27733  0.23931  1.0000
  C   C56       1.0  0.44149  0.10662000000000005  0.23035000000000003  1.0000
  C   C57       1.0  0.3829699999999999  0.22465  0.28729  1.0000
  C   C58       1.0  0.42003  0.13883  0.28245  1.0000
  C   C59       1.0  0.4836  0.014040000000000018  0.23581000000000005  1.0000
  C   C60       1.0  0.44419999999999993  0.06949999999999999  0.32427  1.0000
  C   C61       1.0  0.6234799999999998  0.048700000000000014  0.23068000000000002  1.0000
  C   C62       1.0  0.48031  0.9956600000000002  0.29739  1.0000
  C   C63       1.0  0.38795999999999997  0.91368  0.19045000000000004  1.0000
  C   C64       1.0  0.43622  0.06684000000000002  0.38154000000000005  1.0000
  C   C65       1.0  0.5103900000000001  0.9207400000000001  0.32727  1.0000
  C   C66       1.0  0.46624000000000004  0.9909500000000002  0.41158000000000006  1.0000
  C   C67       1.0  0.5030400000000002  0.9182000000000001  0.38479  1.0000
  C   C68       1.0  0.5376200000000001  0.8397  0.41704  1.0000
  C   C69       1.0  0.8310599999999999  0.86296  0.56624  1.0000
  C   C70       1.0  0.9427800000000001  0.9438300000000002  0.6116700000000002  1.0000
  C   C71       1.0  0.93662  0.94583  0.66962  1.0000
  C   C72       1.0  0.051990000000000064  0.017560000000000006  0.5977200000000001  1.0000
  C   C73       1.0  0.04015000000000004  0.0211  0.71281  1.0000
  C   C74       1.0  0.15621000000000002  0.09366000000000005  0.64136  1.0000
  C   C75       1.0  0.05567999999999998  0.03874  0.77773  1.0000
  C   C76       1.0  0.14958000000000013  0.09540000000000004  0.6988300000000001  1.0000
  C   C77       1.0  0.055240000000000025  0.93823  0.805  1.0000
  C   C78       1.0  0.18889999999999993  0.13284  0.79896  1.0000
  C   C79       1.0  0.9484800000000001  0.06929000000000005  0.7902700000000001  1.0000
  C   C80       1.0  0.24281000000000008  0.16420000000000012  0.75245  1.0000
  C   C81       1.0  0.25682000000000005  0.1855900000000001  0.8551300000000001  1.0000
  C   C82       1.0  0.36501999999999996  0.24971000000000002  0.7622800000000001  1.0000
  C   C83       1.0  0.37948  0.27128  0.86546  1.0000
  C   C84       1.0  0.43327000000000004  0.3025500000000001  0.8191200000000002  1.0000
  C   C85       1.0  0.44910000000000005  0.33168  0.92527  1.0000
  C   C86       1.0  0.66092  0.52688  0.57655  1.0000
  C   C87       1.0  0.76895  0.55142  0.63025  1.0000
  C   C88       1.0  0.88556  0.64472  0.64075  1.0000
  C   C89       1.0  0.75571  0.4762  0.66905  1.0000
  C   C90       1.0  0.9913799999999999  0.66289  0.68863  1.0000
  C   C91       1.0  0.86093  0.49405000000000004  0.71636  1.0000
  C   C92       1.0  0.97953  0.5860400000000001  0.7261200000000002  1.0000
  C   C93       1.0  0.87129  0.4225  0.76221  1.0000
  C   C94       1.0  0.0739599999999999  0.5792199999999998  0.77693  1.0000
  C   C95       1.0  0.7734599999999999  0.41167  0.79749  1.0000
  C   C96       1.0  0.8517399999999999  0.3107000000000001  0.7342200000000001  1.0000
  C   C97       1.0  0.011530000000000021  0.4848000000000001  0.79923  1.0000
  C   C98       1.0  0.20616  0.64524  0.80235  1.0000
  C   C99       1.0  0.07858000000000011  0.4572300000000001  0.8474300000000002  1.0000
  C   C100      1.0  0.2744300000000002  0.6161500000000001  0.8501000000000002  1.0000
  C   C101      1.0  0.21111999999999997  0.5234700000000001  0.8731  1.0000
  C   C102      1.0  0.28420000000000006  0.49407  0.92442  1.0000
  O   O1        1.0  0.65242  0.61524  0.8619600000000001  1.0000
  O   O2        1.0  0.60721  0.69043  0.03635  1.0000
  O   O3        1.0  0.63575  0.7466  0.9137900000000001  1.0000
  O   O4        1.0  0.4378699999999999  0.5888400000000001  0.06771  1.0000
  O   O5        1.0  0.47361000000000003  0.16771000000000003  0.53091  1.0000
  O   O6        1.0  0.4203799999999999  0.22171000000000005  0.60669  1.0000
  O   O7        1.0  0.16092000000000006  0.15641000000000005  0.4857500000000001  1.0000
  O   O8        1.0  0.27535  0.19104000000000004  0.42134  1.0000
  O   O9        1.0  0.77639  0.56794  0.043460000000000006  1.0000
  O   O10       1.0  0.59131  0.4688400000000001  0.062480000000000015  1.0000
  O   O11       1.0  0.44412  0.55716  0.42942  1.0000
  O   O12       1.0  0.3230100000000001  0.41199000000000013  0.46187  1.0000
  O   O13       1.0  0.34895000000000004  0.38507000000000013  0.13876000000000002  1.0000
  O   O14       1.0  0.39057  0.30715  0.96457  1.0000
  O   O15       1.0  0.36352  0.2533  0.08609  1.0000
  O   O16       1.0  0.56224  0.4080600000000001  0.93407  1.0000
  O   O17       1.0  0.52576  0.83144  0.46889  1.0000
  O   O18       1.0  0.5798899999999999  0.77858  0.3933800000000001  1.0000
  O   O19       1.0  0.83896  0.8435300000000002  0.51428  1.0000
  O   O20       1.0  0.7246  0.80877  0.57867  1.0000
  O   O21       1.0  0.22459000000000007  0.4331700000000001  0.9560500000000001  1.0000
  O   O22       1.0  0.40867999999999977  0.53115  0.93512  1.0000
  O   O23       1.0  0.5556100000000002  0.4430600000000001  0.5702900000000001  1.0000
  O   O24       1.0  0.67653  0.58793  0.53794  1.0000
