data_image0
_chemical_formula_structural       U4Zn4H48C96N16O32
_chemical_formula_sum              "U4 Zn4 H48 C96 N16 O32"
_cell_length_a       15.09078
_cell_length_b       14.792480000000001
_cell_length_c       14.77934
_cell_angle_alpha    124.35014
_cell_angle_beta     102.07508
_cell_angle_gamma    102.2104

_symmetry_space_group_name_H-M    'P 1'
_symmetry_Int_Tables_number       1

loop_
  _symmetry_equiv_pos_as_xyz
  'x,y,z'

loop_
  _atom_site_type_symbol
  _atom_site_label
  _atom_site_symmetry_multiplicity
  _atom_site_fract_x
  _atom_site_fract_y
  _atom_site_fract_z
  _atom_site_occupancy
  U   U1        1.0  0.4404399999999999  0.17585999999999993  0.64473  1.0000
  U   U2        1.0  0.05772999999999999  0.35383000000000003  0.8224400000000001  1.0000
  U   U3        1.0  0.55942  0.82347  0.3546  1.0000
  U   U4        1.0  0.9430799999999998  0.64619  0.17764000000000002  1.0000
  Zn  Zn1       1.0  0.49525999999999987  0.30985999999999997  0.2571  1.0000
  Zn  Zn2       1.0  0.002719999999999912  0.7395199999999997  0.68651  1.0000
  Zn  Zn3       1.0  0.50135  0.6843399999999998  0.7382000000000001  1.0000
  Zn  Zn4       1.0  0.99646  0.25943  0.30902  1.0000
  H   H1        1.0  0.35128999999999994  0.83312  0.9701800000000002  1.0000
  H   H2        1.0  0.20020999999999994  0.26849999999999996  0.45714000000000005  1.0000
  H   H3        1.0  0.35783  0.7910499999999998  0.11047000000000003  1.0000
  H   H4        1.0  0.42464  0.16420999999999997  0.38888  1.0000
  H   H5        1.0  0.47372000000000003  0.28663  0.041030000000000004  1.0000
  H   H6        1.0  0.83266  0.22162999999999994  0.56193  1.0000
  H   H7        1.0  0.3333699999999998  0.9142799999999998  0.73066  1.0000
  H   H8        1.0  0.6924999999999998  0.26919  0.50631  1.0000
  H   H9        1.0  0.31593  0.86488  0.86235  1.0000
  H   H10       1.0  0.8251299999999998  0.33813  0.30876  1.0000
  H   H11       1.0  0.93484  0.13137  0.55135  1.0000
  H   H12       1.0  0.09216  0.10794  0.60328  1.0000
  H   H13       1.0  0.14802  0.028580000000000008  0.16372000000000003  1.0000
  H   H14       1.0  0.2992  0.53921  0.72992  1.0000
  H   H15       1.0  0.1431199999999999  0.8893799999999997  0.20719000000000004  1.0000
  H   H16       1.0  0.07538999999999998  0.61009  0.83408  1.0000
  H   H17       1.0  0.023190000000000002  0.95587  0.70937  1.0000
  H   H18       1.0  0.66608  0.43306000000000006  0.7761500000000002  1.0000
  H   H19       1.0  0.16331  0.26644  0.08164  1.0000
  H   H20       1.0  0.80585  0.48792  0.7272300000000002  1.0000
  H   H21       1.0  0.18194  0.13521999999999995  0.13114  1.0000
  H   H22       1.0  0.6745999999999999  0.6875099999999997  0.6612  1.0000
  H   H23       1.0  0.5636  0.44517999999999996  0.8681600000000002  1.0000
  H   H24       1.0  0.40517  0.3914400000000001  0.8892  1.0000
  H   H25       1.0  0.6447300000000001  0.16191999999999995  0.026980000000000004  1.0000
  H   H26       1.0  0.8002299999999999  0.73087  0.54101  1.0000
  H   H27       1.0  0.64058  0.20646  0.88871  1.0000
  H   H28       1.0  0.5755799999999998  0.83441  0.60871  1.0000
  H   H29       1.0  0.5214  0.7085799999999998  0.9545800000000001  1.0000
  H   H30       1.0  0.16794999999999996  0.7787799999999998  0.43586  1.0000
  H   H31       1.0  0.66795  0.08015999999999997  0.26558  1.0000
  H   H32       1.0  0.30704000000000004  0.7285000000000001  0.48953000000000013  1.0000
  H   H33       1.0  0.6850799999999998  0.12959  0.13367000000000004  1.0000
  H   H34       1.0  0.17336  0.65824  0.68559  1.0000
  H   H35       1.0  0.06470999999999999  0.86905  0.44644  1.0000
  H   H36       1.0  0.90691  0.8915099999999998  0.39456  1.0000
  H   H37       1.0  0.8497099999999996  0.9697099999999997  0.83375  1.0000
  H   H38       1.0  0.6992999999999998  0.45518999999999993  0.2646  1.0000
  H   H39       1.0  0.8556399999999994  0.11008999999999991  0.79169  1.0000
  H   H40       1.0  0.9279999999999999  0.3895799999999999  0.16629  1.0000
  H   H41       1.0  0.97714  0.043280000000000006  0.28908  1.0000
  H   H42       1.0  0.33473  0.56524  0.22064  1.0000
  H   H43       1.0  0.8362  0.73191  0.91675  1.0000
  H   H44       1.0  0.19482999999999995  0.51247  0.2702  1.0000
  H   H45       1.0  0.81825  0.8628899999999998  0.86684  1.0000
  H   H46       1.0  0.32386  0.31194999999999995  0.33701000000000003  1.0000
  H   H47       1.0  0.4370399999999998  0.5537499999999997  0.1302  1.0000
  H   H48       1.0  0.5952  0.6063899999999998  0.10842000000000002  1.0000
  C   C1        1.0  0.2575099999999999  0.18747999999999995  0.57465  1.0000
  C   C2        1.0  0.16239  0.19570000000000004  0.54322  1.0000
  C   C3        1.0  0.36608999999999986  0.9045699999999998  0.06282  1.0000
  C   C4        1.0  0.14534999999999998  0.24386999999999992  0.48547  1.0000
  C   C5        1.0  0.40741  0.10409999999999987  0.877  1.0000
  C   C6        1.0  0.4043299999999999  0.95133  0.34708  1.0000
  C   C7        1.0  0.90563  0.25605  0.46584  1.0000
  C   C8        1.0  0.37049999999999994  0.8806799999999998  0.1408  1.0000
  C   C9        1.0  0.40847  0.08937  0.29659  1.0000
  C   C10       1.0  0.38817999999999997  0.05076999999999999  0.02607  1.0000
  C   C11       1.0  0.3859899999999999  0.02292  0.10545  1.0000
  C   C12       1.0  0.4386099999999999  0.19297999999999996  0.00056  1.0000
  C   C13       1.0  0.39271999999999996  0.9743499999999998  0.26208  1.0000
  C   C14       1.0  0.8308799999999998  0.25033  0.50832  1.0000
  C   C15       1.0  0.3604299999999998  0.9838599999999997  0.82685  1.0000
  C   C16       1.0  0.98969  0.22845999999999989  0.49133  1.0000
  C   C17       1.0  0.74912  0.30911000000000005  0.4045500000000001  1.0000
  C   C18       1.0  0.75291  0.27742  0.4784  1.0000
  C   C19       1.0  0.35083  0.9578299999999997  0.90097  1.0000
  C   C20       1.0  0.82639  0.31537000000000004  0.3672500000000001  1.0000
  C   C21       1.0  0.66045  0.31582  0.3475  1.0000
  C   C22       1.0  0.99825  0.17095000000000002  0.54168  1.0000
  C   C23       1.0  0.08425999999999997  0.15347  0.56646  1.0000
  C   C24       1.0  0.42351  0.13252  0.80038  1.0000
  C   C25       1.0  0.23997  0.42007000000000005  0.80822  1.0000
  C   C26       1.0  0.33553  0.4514699999999999  0.8010300000000001  1.0000
  C   C27       1.0  0.13335999999999995  0.9359499999999997  0.09261000000000001  1.0000
  C   C28       1.0  0.35357  0.5102599999999999  0.75407  1.0000
  C   C29       1.0  0.08929  0.11966000000000003  0.89167  1.0000
  C   C30       1.0  0.09679  0.65252  0.04684000000000001  1.0000
  C   C31       1.0  0.59362  0.52994  0.74284  1.0000
  C   C32       1.0  0.12973999999999997  0.8586400000000001  0.11725000000000001  1.0000
  C   C33       1.0  0.09136999999999992  0.7023999999999998  0.9085000000000001  1.0000
  C   C34       1.0  0.10961999999999986  0.9713999999999998  0.9454100000000001  1.0000
  C   C35       1.0  0.11282999999999989  0.8926999999999997  0.97392  1.0000
  C   C36       1.0  0.05828000000000008  0.9962000000000001  0.8029800000000002  1.0000
  C   C37       1.0  0.10748999999999996  0.73744  0.02379  1.0000
  C   C38       1.0  0.6680899999999997  0.48697999999999997  0.7478000000000001  1.0000
  C   C39       1.0  0.13656  0.1703  0.01207  1.0000
  C   C40       1.0  0.5094699999999998  0.5045  0.77028  1.0000
  C   C41       1.0  0.7497399999999997  0.5904499999999998  0.68839  1.0000
  C   C42       1.0  0.74579  0.51643  0.71991  1.0000
  C   C43       1.0  0.14670999999999995  0.09641999999999998  0.03818  1.0000
  C   C44       1.0  0.6729  0.62849  0.68329  1.0000
  C   C45       1.0  0.8376999999999999  0.64746  0.68052  1.0000
  C   C46       1.0  0.50016  0.45407000000000003  0.8276600000000001  1.0000
  C   C47       1.0  0.41347999999999996  0.42846999999999996  0.8439300000000001  1.0000
  C   C48       1.0  0.0726  0.19601000000000005  0.8631700000000001  1.0000
  C   C49       1.0  0.74184  0.8108799999999998  0.4231  1.0000
  C   C50       1.0  0.8371399999999997  0.8031999999999998  0.45436  1.0000
  C   C51       1.0  0.63122  0.09138999999999997  0.93457  1.0000
  C   C52       1.0  0.8547299999999999  0.7553999999999997  0.51228  1.0000
  C   C53       1.0  0.59031  0.8909599999999998  0.11886000000000002  1.0000
  C   C54       1.0  0.59628  0.04845000000000002  0.6525800000000002  1.0000
  C   C55       1.0  0.09443999999999998  0.74334  0.53103  1.0000
  C   C56       1.0  0.62786  0.11659999999999997  0.85766  1.0000
  C   C57       1.0  0.59095  0.9086  0.70093  1.0000
  C   C58       1.0  0.60938  0.94408  0.96967  1.0000
  C   C59       1.0  0.61172  0.9727999999999998  0.89089  1.0000
  C   C60       1.0  0.55757  0.8020699999999998  0.99504  1.0000
  C   C61       1.0  0.60672  0.023989999999999952  0.73652  1.0000
  C   C62       1.0  0.16916  0.74892  0.48844  1.0000
  C   C63       1.0  0.6392699999999998  0.010879999999999999  0.16915  1.0000
  C   C64       1.0  0.010539999999999945  0.7712999999999998  0.50612  1.0000
  C   C65       1.0  0.24972999999999998  0.6876199999999998  0.59013  1.0000
  C   C66       1.0  0.24649999999999994  0.72044  0.51726  1.0000
  C   C67       1.0  0.64863  0.03685  0.09497000000000003  1.0000
  C   C68       1.0  0.17260999999999999  0.6817799999999998  0.6277800000000001  1.0000
  C   C69       1.0  0.33771  0.67973  0.64672  1.0000
  C   C70       1.0  0.0014900000000000013  0.82897  0.456  1.0000
  C   C71       1.0  0.91516  0.8459599999999998  0.43125  1.0000
  C   C72       1.0  0.5740699999999997  0.8634299999999998  0.19608  1.0000
  C   C73       1.0  0.75986  0.5769599999999999  0.18885  1.0000
  C   C74       1.0  0.66394  0.54464  0.19516000000000006  1.0000
  C   C75       1.0  0.86578  0.06267000000000005  0.90559  1.0000
  C   C76       1.0  0.64531  0.4849099999999999  0.24114  1.0000
  C   C77       1.0  0.91053  0.87884  0.10684  1.0000
  C   C78       1.0  0.9048099999999998  0.3473899999999999  0.9532000000000002  1.0000
  C   C79       1.0  0.40602999999999984  0.4675999999999999  0.25395  1.0000
  C   C80       1.0  0.86985  0.1405800000000001  0.8816800000000001  1.0000
  C   C81       1.0  0.9107199999999999  0.2969999999999999  0.09125000000000001  1.0000
  C   C82       1.0  0.89034  0.026710000000000005  0.052480000000000006  1.0000
  C   C83       1.0  0.88736  0.10562999999999997  0.02433  1.0000
  C   C84       1.0  0.94174  0.0024499999999999912  0.19536  1.0000
  C   C85       1.0  0.8935099999999998  0.2620999999999998  0.9758  1.0000
  C   C86       1.0  0.3323  0.51161  0.24935  1.0000
  C   C87       1.0  0.8631399999999998  0.8280599999999998  0.98635  1.0000
  C   C88       1.0  0.49015  0.4921299999999999  0.22606  1.0000
  C   C89       1.0  0.24986  0.40949  0.30935  1.0000
  C   C90       1.0  0.25444  0.48328  0.27753  1.0000
  C   C91       1.0  0.8531899999999998  0.9016699999999997  0.9598500000000001  1.0000
  C   C92       1.0  0.32607999999999987  0.37054  0.31433  1.0000
  C   C93       1.0  0.16124999999999992  0.35360999999999987  0.31716  1.0000
  C   C94       1.0  0.49994  0.54345  0.16957  1.0000
  C   C95       1.0  0.5864999999999998  0.5686699999999998  0.15304  1.0000
  C   C96       1.0  0.9274399999999999  0.8027899999999997  0.13559  1.0000
  N   N1        1.0  0.4296899999999999  0.1686  0.07369  1.0000
  N   N2        1.0  0.40657  0.11443999999999999  0.22247000000000003  1.0000
  N   N3        1.0  0.062189999999999995  0.25825999999999993  0.4587800000000001  1.0000
  N   N4        1.0  0.90199  0.29018  0.39617  1.0000
  N   N5        1.0  0.06756000000000002  0.92326  0.82746  1.0000
  N   N6        1.0  0.09267999999999996  0.7758499999999998  0.88274  1.0000
  N   N7        1.0  0.4372  0.53738  0.74056  1.0000
  N   N8        1.0  0.5974900000000001  0.59988  0.7089900000000001  1.0000
  N   N9        1.0  0.56656  0.82635  0.9218100000000001  1.0000
  N   N10       1.0  0.59214  0.88231  0.77404  1.0000
  N   N11       1.0  0.93819  0.7415799999999998  0.53903  1.0000
  N   N12       1.0  0.09765999999999998  0.70834  0.59999  1.0000
  N   N13       1.0  0.93233  0.07498999999999999  0.17045  1.0000
  N   N14       1.0  0.90902  0.2229  0.11625000000000002  1.0000
  N   N15       1.0  0.5616599999999998  0.45792999999999984  0.25471  1.0000
  N   N16       1.0  0.40154  0.3978  0.28802  1.0000
  O   O1        1.0  0.40915999999999997  0.03124999999999996  0.45267  1.0000
  O   O2        1.0  0.4114199999999999  0.85328  0.31702  1.0000
  O   O3        1.0  0.6472699999999999  0.2933  0.24802000000000002  1.0000
  O   O4        1.0  0.27203  0.14284999999999995  0.62756  1.0000
  O   O5        1.0  0.3279499999999999  0.22652000000000005  0.55249  1.0000
  O   O6        1.0  0.59759  0.3375599999999999  0.39562  1.0000
  O   O7        1.0  0.39279  0.0454  0.68647  1.0000
  O   O8        1.0  0.46792  0.24203  0.8440000000000002  1.0000
  O   O9        1.0  0.09337999999999999  0.5478999999999999  0.9668300000000001  1.0000
  O   O10       1.0  0.08950000000000002  0.68176  0.14466  1.0000
  O   O11       1.0  0.8488799999999999  0.74537  0.7002800000000001  1.0000
  O   O12       1.0  0.22420000000000004  0.36666000000000004  0.8522600000000001  1.0000
  O   O13       1.0  0.17019  0.44296  0.76931  1.0000
  O   O14       1.0  0.90194  0.6013899999999998  0.66052  1.0000
  O   O15       1.0  0.10376  0.3098400000000001  0.95085  1.0000
  O   O16       1.0  0.02756000000000005  0.15287999999999996  0.7539800000000001  1.0000
  O   O17       1.0  0.59357  0.9700699999999999  0.54778  1.0000
  O   O18       1.0  0.5884899999999997  0.14636  0.68322  1.0000
  O   O19       1.0  0.34931999999999996  0.7003099999999998  0.74514  1.0000
  O   O20       1.0  0.72725  0.8562099999999997  0.37089000000000005  1.0000
  O   O21       1.0  0.67131  0.77106  0.44474  1.0000
  O   O22       1.0  0.40156  0.65895  0.60001  1.0000
  O   O23       1.0  0.6068299999999998  0.95133  0.31018  1.0000
  O   O24       1.0  0.52792  0.7545799999999998  0.15325  1.0000
  O   O25       1.0  0.91061  0.45296  0.03457  1.0000
  O   O26       1.0  0.9105599999999998  0.31778999999999996  0.8545700000000002  1.0000
  O   O27       1.0  0.14809  0.2545399999999999  0.29574  1.0000
  O   O28       1.0  0.7757199999999997  0.63086  0.14532  1.0000
  O   O29       1.0  0.8298399999999998  0.5546799999999998  0.22828  1.0000
  O   O30       1.0  0.09805  0.401  0.33799  1.0000
  O   O31       1.0  0.89657  0.6889399999999998  0.0482  1.0000
  O   O32       1.0  0.9725399999999998  0.8462699999999996  0.24496000000000004  1.0000
