data_image0
_chemical_formula_structural       Zn10P10H60C60N12O40
_chemical_formula_sum              "Zn10 P10 H60 C60 N12 O40"
_cell_length_a       9.81063
_cell_length_b       9.88383
_cell_length_c       23.598019999999998
_cell_angle_alpha    78.40707
_cell_angle_beta     79.37273
_cell_angle_gamma    89.75291

_space_group_name_H-M_alt    "P 1"
_space_group_IT_number       1

loop_
  _space_group_symop_operation_xyz
  'x, y, z'

loop_
  _atom_site_type_symbol
  _atom_site_label
  _atom_site_symmetry_multiplicity
  _atom_site_fract_x
  _atom_site_fract_y
  _atom_site_fract_z
  _atom_site_occupancy
  Zn  Zn1       1.0  0.6102600000000001  0.2594  0.20775  1.0000
  Zn  Zn2       1.0  0.25707  0.93548  0.29255  1.0000
  Zn  Zn3       1.0  0.57817  0.6165199999999998  0.25256  1.0000
  Zn  Zn4       1.0  0.90334  0.94366  0.24697  1.0000
  Zn  Zn5       1.0  0.09698  0.44315999999999994  0.25107  1.0000
  Zn  Zn6       1.0  0.3897300000000001  0.7405899999999997  0.79225  1.0000
  Zn  Zn7       1.0  0.74291  0.0645  0.70745  1.0000
  Zn  Zn8       1.0  0.42181999999999986  0.3834699999999999  0.7474400000000001  1.0000
  Zn  Zn9       1.0  0.09664000000000003  0.056329999999999956  0.75303  1.0000
  Zn  Zn10      1.0  0.9030100000000001  0.55684  0.74893  1.0000
  P   P1        1.0  0.85069  0.46981  0.18346  1.0000
  P   P2        1.0  0.05225000000000001  0.6869  0.32107  1.0000
  P   P3        1.0  0.03659  0.14504  0.31675  1.0000
  P   P4        1.0  0.58176  0.94384  0.25042  1.0000
  P   P5        1.0  0.39852  0.47139999999999993  0.1749  1.0000
  P   P6        1.0  0.1493  0.53018  0.81654  1.0000
  P   P7        1.0  0.9477200000000001  0.31309  0.67893  1.0000
  P   P8        1.0  0.9634000000000001  0.8549499999999999  0.68325  1.0000
  P   P9        1.0  0.41822000000000004  0.05615  0.74958  1.0000
  P   P10       1.0  0.60146  0.52859  0.82511  1.0000
  H   H1        1.0  0.75061  0.53984  0.34083  1.0000
  H   H2        1.0  0.7324100000000001  0.48719999999999997  0.44781000000000004  1.0000
  H   H3        1.0  0.32964999999999994  0.61402  0.35467  1.0000
  H   H4        1.0  0.34937  0.28947999999999996  0.29329  1.0000
  H   H5        1.0  0.27798999999999996  0.24650999999999995  0.40024  1.0000
  H   H6        1.0  0.94631  0.75114  0.16147  1.0000
  H   H7        1.0  0.98565  0.7655699999999999  0.05517  1.0000
  H   H8        1.0  0.25320000000000004  0.17647999999999997  0.20034  1.0000
  H   H9        1.0  0.26809999999999995  0.75531  0.20067000000000002  1.0000
  H   H10       1.0  0.65275  0.11532000000000002  0.49895  1.0000
  H   H11       1.0  0.23841000000000007  0.25885  0.48542  1.0000
  H   H12       1.0  0.92932  0.17785999999999996  0.1426  1.0000
  H   H13       1.0  0.97396  0.21184  0.0344  1.0000
  H   H14       1.0  0.29230999999999996  0.56455  0.4622200000000001  1.0000
  H   H15       1.0  0.71343  0.18883  0.41143  1.0000
  H   H16       1.0  0.7640299999999999  0.23283999999999994  0.30333  1.0000
  H   H17       1.0  0.29086  0.23712  0.09332  1.0000
  H   H18       1.0  0.57408  0.06440999999999998  0.60846  1.0000
  H   H19       1.0  0.18146000000000007  0.20552999999999993  0.59521  1.0000
  H   H20       1.0  0.38815  0.31891  0.89585  1.0000
  H   H21       1.0  0.3373  0.27888  0.00563  1.0000
  H   H22       1.0  0.38356  0.90157  0.89612  1.0000
  H   H23       1.0  0.33414  0.8389099999999999  0.00639  1.0000
  H   H24       1.0  0.30659  0.7970200000000001  0.0932  1.0000
  H   H25       1.0  0.39819  0.13539999999999996  0.84726  1.0000
  H   H26       1.0  0.34407  0.09850999999999999  0.65015  1.0000
  H   H27       1.0  0.98345  0.97368  0.38884  1.0000
  H   H28       1.0  0.98469  0.48313  0.37197  1.0000
  H   H29       1.0  0.75094  0.50393  0.10886  1.0000
  H   H30       1.0  0.23454999999999998  0.53108  0.1262  1.0000
  H   H31       1.0  0.24938  0.46014999999999984  0.65918  1.0000
  H   H32       1.0  0.26758  0.5127899999999999  0.55219  1.0000
  H   H33       1.0  0.6703399999999999  0.38597  0.64533  1.0000
  H   H34       1.0  0.65061  0.7105199999999999  0.70671  1.0000
  H   H35       1.0  0.722  0.7534899999999998  0.59976  1.0000
  H   H36       1.0  0.053679999999999936  0.24884999999999996  0.83854  1.0000
  H   H37       1.0  0.01433999999999998  0.23441999999999996  0.94484  1.0000
  H   H38       1.0  0.7467899999999998  0.8234999999999999  0.79967  1.0000
  H   H39       1.0  0.7318799999999999  0.24467999999999993  0.7993300000000001  1.0000
  H   H40       1.0  0.34724  0.88467  0.50105  1.0000
  H   H41       1.0  0.7615800000000003  0.74114  0.51458  1.0000
  H   H42       1.0  0.07067999999999998  0.8221299999999998  0.8574  1.0000
  H   H43       1.0  0.026029999999999963  0.78815  0.9656  1.0000
  H   H44       1.0  0.7076799999999999  0.43543999999999994  0.53778  1.0000
  H   H45       1.0  0.28656  0.81116  0.58858  1.0000
  H   H46       1.0  0.23595  0.76715  0.69667  1.0000
  H   H47       1.0  0.70913  0.7628699999999999  0.90668  1.0000
  H   H48       1.0  0.42591000000000007  0.93558  0.39154  1.0000
  H   H49       1.0  0.8185300000000001  0.7944700000000001  0.40479  1.0000
  H   H50       1.0  0.61184  0.6810799999999999  0.10415  1.0000
  H   H51       1.0  0.66269  0.7211099999999998  0.99438  1.0000
  H   H52       1.0  0.61643  0.09842  0.10388  1.0000
  H   H53       1.0  0.66585  0.16107999999999995  0.9936100000000001  1.0000
  H   H54       1.0  0.6934  0.20296999999999987  0.9068000000000002  1.0000
  H   H55       1.0  0.6018  0.86459  0.15274  1.0000
  H   H56       1.0  0.65592  0.9014799999999997  0.34985  1.0000
  H   H57       1.0  0.01653000000000002  0.026310000000000004  0.61116  1.0000
  H   H58       1.0  0.015300000000000001  0.51684  0.62803  1.0000
  H   H59       1.0  0.24905000000000002  0.49606999999999996  0.89114  1.0000
  H   H60       1.0  0.7654300000000003  0.4689099999999999  0.87381  1.0000
  C   C1        1.0  0.6507400000000001  0.54192  0.36959  1.0000
  C   C2        1.0  0.6383799999999998  0.5127499999999999  0.43039  1.0000
  C   C3        1.0  0.4159  0.58372  0.37709  1.0000
  C   C4        1.0  0.42604  0.26907  0.32141  1.0000
  C   C5        1.0  0.38788999999999996  0.24589999999999998  0.38193  1.0000
  C   C6        1.0  0.48910000000000003  0.21557999999999997  0.41749  1.0000
  C   C7        1.0  0.45104000000000005  0.18866999999999998  0.48154  1.0000
  C   C8        1.0  0.9532  0.85144  0.13167  1.0000
  C   C9        1.0  0.97684  0.86177  0.07097  1.0000
  C   C10       1.0  0.98707  0.9921  0.03247  1.0000
  C   C11       1.0  0.26344  0.09545  0.17493  1.0000
  C   C12       1.0  0.2714500000000001  0.8601099999999999  0.17494  1.0000
  C   C13       1.0  0.54723  0.1366  0.51774  1.0000
  C   C14       1.0  0.31572999999999996  0.21310999999999997  0.5103  1.0000
  C   C15       1.0  0.9449600000000001  0.08966  0.12103  1.0000
  C   C16       1.0  0.96873  0.10689  0.06008  1.0000
  C   C17       1.0  0.30117  0.022689999999999995  0.08139  1.0000
  C   C18       1.0  0.39653999999999995  0.5555  0.43811  1.0000
  C   C19       1.0  0.62785  0.21205  0.38803  1.0000
  C   C20       1.0  0.32830000000000004  0.05338  0.01704  1.0000
  C   C21       1.0  0.65859  0.23618000000000006  0.32722  1.0000
  C   C22       1.0  0.28479  0.1283  0.11418  1.0000
  C   C23       1.0  0.5070299999999999  0.10665000000000002  0.57799  1.0000
  C   C24       1.0  0.28143999999999997  0.18417000000000003  0.57073  1.0000
  C   C25       1.0  0.37189999999999995  0.21649000000000004  0.92356  1.0000
  C   C26       1.0  0.3441699999999999  0.19109999999999985  0.9841  1.0000
  C   C27       1.0  0.37050999999999995  0.97782  0.92384  1.0000
  C   C28       1.0  0.34348999999999996  0.9470299999999997  0.9844800000000001  1.0000
  C   C29       1.0  0.5084  0.51595  0.46761  1.0000
  C   C30       1.0  0.29261  0.88583  0.11404000000000002  1.0000
  C   C31       1.0  0.3492500000000001  0.45807  0.63042  1.0000
  C   C32       1.0  0.3616100000000001  0.48724  0.56961  1.0000
  C   C33       1.0  0.58409  0.41628  0.62291  1.0000
  C   C34       1.0  0.57395  0.73092  0.6786  1.0000
  C   C35       1.0  0.6120999999999998  0.7540899999999999  0.61807  1.0000
  C   C36       1.0  0.5108900000000001  0.78441  0.58251  1.0000
  C   C37       1.0  0.5489500000000003  0.81132  0.51846  1.0000
  C   C38       1.0  0.046789999999999964  0.14854999999999988  0.86833  1.0000
  C   C39       1.0  0.023139999999999935  0.13821999999999998  0.92903  1.0000
  C   C40       1.0  0.01291999999999999  0.00788000000000003  0.96753  1.0000
  C   C41       1.0  0.7365500000000001  0.90454  0.82507  1.0000
  C   C42       1.0  0.72854  0.13987999999999998  0.82506  1.0000
  C   C43       1.0  0.45276000000000016  0.8633899999999998  0.48226  1.0000
  C   C44       1.0  0.6842600000000002  0.7868799999999999  0.4897000000000001  1.0000
  C   C45       1.0  0.055029999999999954  0.91033  0.8789700000000001  1.0000
  C   C46       1.0  0.031260000000000135  0.8930999999999999  0.93993  1.0000
  C   C47       1.0  0.6988200000000001  0.9773  0.91861  1.0000
  C   C48       1.0  0.60345  0.44449  0.56189  1.0000
  C   C49       1.0  0.3721400000000001  0.7879399999999999  0.61198  1.0000
  C   C50       1.0  0.6716899999999999  0.94661  0.9829600000000001  1.0000
  C   C51       1.0  0.3414  0.7638099999999998  0.67278  1.0000
  C   C52       1.0  0.7152000000000001  0.87169  0.88582  1.0000
  C   C53       1.0  0.49296  0.8933399999999999  0.42201  1.0000
  C   C54       1.0  0.7185500000000001  0.8158199999999998  0.42927000000000004  1.0000
  C   C55       1.0  0.62809  0.78351  0.07644  1.0000
  C   C56       1.0  0.65582  0.80889  0.01591  1.0000
  C   C57       1.0  0.62948  0.02217  0.07616  1.0000
  C   C58       1.0  0.6565  0.05296  0.01552  1.0000
  C   C59       1.0  0.49159  0.48404  0.53239  1.0000
  C   C60       1.0  0.7073800000000002  0.11415000000000006  0.88597  1.0000
  N   N1        1.0  0.38384  0.11094000000000001  0.89439  1.0000
  N   N2        1.0  0.9371899999999999  0.9631  0.15716  1.0000
  N   N3        1.0  0.54172  0.5768  0.34229  1.0000
  N   N4        1.0  0.5592  0.26497999999999994  0.29403  1.0000
  N   N5        1.0  0.25588  0.9631  0.20539  1.0000
  N   N6        1.0  0.3755000000000001  0.12840000000000001  0.6035  1.0000
  N   N7        1.0  0.61615  0.88905  0.10561  1.0000
  N   N8        1.0  0.0628  0.03689000000000001  0.84285  1.0000
  N   N9        1.0  0.45827  0.42318999999999996  0.65771  1.0000
  N   N10       1.0  0.44079  0.73502  0.70597  1.0000
  N   N11       1.0  0.7441099999999999  0.036889999999999964  0.7946200000000001  1.0000
  N   N12       1.0  0.62449  0.87159  0.3965000000000001  1.0000
  O   O1        1.0  0.8083400000000002  0.31738999999999995  0.18868  1.0000
  O   O2        1.0  0.006479999999999995  0.4936499999999999  0.18243  1.0000
  O   O3        1.0  0.8329400000000001  0.54704  0.11684  1.0000
  O   O4        1.0  0.7603599999999999  0.53976  0.22883000000000003  1.0000
  O   O5        1.0  0.52071  0.3873499999999999  0.15058  1.0000
  O   O6        1.0  0.4466599999999999  0.5866099999999999  0.20239000000000001  1.0000
  O   O7        1.0  0.33543  0.54736  0.11724000000000001  1.0000
  O   O8        1.0  0.2787700000000001  0.379  0.2151  1.0000
  O   O9        1.0  0.70616  0.956  0.28226  1.0000
  O   O10       1.0  0.60017  0.81724  0.21968000000000001  1.0000
  O   O11       1.0  0.57911  0.07098  0.20005  1.0000
  O   O12       1.0  0.45115  0.92422  0.29956  1.0000
  O   O13       1.0  0.13452  0.7865999999999996  0.34605  1.0000
  O   O14       1.0  0.14715000000000006  0.60146  0.28324  1.0000
  O   O15       1.0  0.9381299999999999  0.75986  0.29108  1.0000
  O   O16       1.0  0.9736400000000001  0.57668  0.37961  1.0000
  O   O17       1.0  0.18611  0.10167000000000001  0.32016  1.0000
  O   O18       1.0  0.98662  0.10732  0.26376  1.0000
  O   O19       1.0  0.01347  0.29868  0.31955  1.0000
  O   O20       1.0  0.9393  0.061250000000000006  0.37771  1.0000
  O   O21       1.0  0.19165  0.6826  0.81132  1.0000
  O   O22       1.0  0.9935099999999998  0.5063499999999999  0.81757  1.0000
  O   O23       1.0  0.16704999999999998  0.4529499999999999  0.8831600000000001  1.0000
  O   O24       1.0  0.23963  0.4602399999999999  0.77117  1.0000
  O   O25       1.0  0.4792799999999999  0.61265  0.8494200000000001  1.0000
  O   O26       1.0  0.5533299999999998  0.41338  0.7976200000000001  1.0000
  O   O27       1.0  0.66455  0.45262  0.88276  1.0000
  O   O28       1.0  0.72123  0.6209899999999998  0.78491  1.0000
  O   O29       1.0  0.29383  0.043999999999999984  0.71774  1.0000
  O   O30       1.0  0.39982000000000006  0.18274999999999997  0.78032  1.0000
  O   O31       1.0  0.42088  0.9290099999999998  0.7999500000000002  1.0000
  O   O32       1.0  0.54883  0.07576999999999999  0.70044  1.0000
  O   O33       1.0  0.86542  0.21341000000000002  0.65396  1.0000
  O   O34       1.0  0.85284  0.39852999999999994  0.7167700000000001  1.0000
  O   O35       1.0  0.06183999999999997  0.2401199999999999  0.7089200000000001  1.0000
  O   O36       1.0  0.026339999999999978  0.42327999999999993  0.6204  1.0000
  O   O37       1.0  0.81388  0.8983199999999998  0.67984  1.0000
  O   O38       1.0  0.013370000000000012  0.8926699999999999  0.73624  1.0000
  O   O39       1.0  0.98651  0.7013100000000001  0.68045  1.0000
  O   O40       1.0  0.06069000000000002  0.9387499999999999  0.62229  1.0000
