data_image0
_chemical_formula_structural       Cu4H72C104N16O24
_chemical_formula_sum              "Cu4 H72 C104 N16 O24"
_cell_length_a       7.85085
_cell_length_b       20.337630000000004
_cell_length_c       22.82367
_cell_angle_alpha    90.03097
_cell_angle_beta     89.77310000000001
_cell_angle_gamma    94.90151

_symmetry_space_group_name_H-M    'P 1'
_symmetry_Int_Tables_number       1

loop_
  _symmetry_equiv_pos_as_xyz
  'x,y,z'

loop_
  _atom_site_type_symbol
  _atom_site_label
  _atom_site_symmetry_multiplicity
  _atom_site_fract_x
  _atom_site_fract_y
  _atom_site_fract_z
  _atom_site_occupancy
  Cu  Cu1       1.0  0.2764200000000001  0.50565  0.4466600000000001  1.0000
  Cu  Cu2       1.0  0.2237800000000001  0.9953100000000001  0.9465800000000001  1.0000
  Cu  Cu3       1.0  0.7235700000000002  0.49434  0.55334  1.0000
  Cu  Cu4       1.0  0.77622  0.00468  0.05343000000000001  1.0000
  H   H1        1.0  0.45456000000000013  0.39579000000000003  0.64678  1.0000
  H   H2        1.0  0.37021000000000004  0.30683000000000005  0.7173900000000001  1.0000
  H   H3        1.0  0.90816  0.2570700000000001  0.61976  1.0000
  H   H4        1.0  0.9965  0.34765  0.54841  1.0000
  H   H5        1.0  0.006929999999999996  0.01464  0.8444300000000001  1.0000
  H   H6        1.0  0.97648  0.10002  0.76678  1.0000
  H   H7        1.0  0.32342000000000004  0.23139  0.8679800000000001  1.0000
  H   H8        1.0  0.3396  0.1402  0.9402200000000002  1.0000
  H   H9        1.0  0.33629  0.65957  0.31484  1.0000
  H   H10       1.0  0.33168  0.72816  0.22614  1.0000
  H   H11       1.0  0.9063100000000001  0.6014400000000001  0.1605  1.0000
  H   H12       1.0  0.91351  0.53263  0.25251  1.0000
  H   H13       1.0  0.36972000000000005  0.8861300000000002  0.13769  1.0000
  H   H14       1.0  0.39499000000000006  0.9702800000000003  0.06203  1.0000
  H   H15       1.0  0.08918000000000005  0.8550300000000002  0.94717  1.0000
  H   H16       1.0  0.05106  0.76241  0.01969  1.0000
  H   H17       1.0  0.23205  0.26347  0.7774000000000001  1.0000
  H   H18       1.0  0.24963  0.78485  0.16839000000000004  1.0000
  H   H19       1.0  0.04407000000000001  0.10437000000000002  0.14695  1.0000
  H   H20       1.0  0.12800000000000006  0.19340000000000002  0.21762  1.0000
  H   H21       1.0  0.59328  0.24169000000000002  0.12003  1.0000
  H   H22       1.0  0.50437  0.15132  0.048620000000000003  1.0000
  H   H23       1.0  0.49216  0.48609  0.34336  1.0000
  H   H24       1.0  0.52324  0.40016000000000007  0.26614  1.0000
  H   H25       1.0  0.17655000000000004  0.26943  0.36896000000000007  1.0000
  H   H26       1.0  0.16000000000000006  0.36116  0.4406  1.0000
  H   H27       1.0  0.16421000000000005  0.84172  0.81486  1.0000
  H   H28       1.0  0.16982000000000005  0.77262  0.72659  1.0000
  H   H29       1.0  0.5968900000000001  0.8985700000000001  0.66002  1.0000
  H   H30       1.0  0.5883900000000002  0.96792  0.75166  1.0000
  H   H31       1.0  0.12897  0.61435  0.63835  1.0000
  H   H32       1.0  0.10383000000000002  0.53026  0.56249  1.0000
  H   H33       1.0  0.41202  0.6453900000000001  0.44748000000000004  1.0000
  H   H34       1.0  0.45110000000000006  0.7376000000000001  0.52029  1.0000
  H   H35       1.0  0.2676400000000001  0.23650000000000002  0.27834  1.0000
  H   H36       1.0  0.2495500000000001  0.71564  0.66912  1.0000
  H   H37       1.0  0.54543  0.60421  0.35323000000000004  1.0000
  H   H38       1.0  0.6297800000000003  0.6931700000000002  0.28261000000000003  1.0000
  H   H39       1.0  0.09182  0.7429200000000001  0.38025000000000003  1.0000
  H   H40       1.0  0.0034900000000000174  0.65235  0.45159  1.0000
  H   H41       1.0  0.9930700000000003  0.98536  0.15558  1.0000
  H   H42       1.0  0.023520000000000006  0.89998  0.23322000000000004  1.0000
  H   H43       1.0  0.6765700000000002  0.76861  0.13202000000000003  1.0000
  H   H44       1.0  0.6604  0.8598  0.05979000000000001  1.0000
  H   H45       1.0  0.6637000000000002  0.34043  0.68517  1.0000
  H   H46       1.0  0.6683200000000005  0.27184  0.77387  1.0000
  H   H47       1.0  0.09369000000000002  0.39856  0.8395  1.0000
  H   H48       1.0  0.08649000000000003  0.46737000000000006  0.7475  1.0000
  H   H49       1.0  0.63028  0.11386000000000003  0.86232  1.0000
  H   H50       1.0  0.605  0.02972  0.93798  1.0000
  H   H51       1.0  0.91081  0.14497  0.05283000000000001  1.0000
  H   H52       1.0  0.9489300000000005  0.23759000000000002  0.9803100000000001  1.0000
  H   H53       1.0  0.76794  0.7365300000000002  0.22260000000000002  1.0000
  H   H54       1.0  0.75037  0.21514000000000003  0.83162  1.0000
  H   H55       1.0  0.9559300000000002  0.89562  0.85305  1.0000
  H   H56       1.0  0.8719900000000003  0.8066000000000001  0.78239  1.0000
  H   H57       1.0  0.4067100000000001  0.75831  0.87998  1.0000
  H   H58       1.0  0.4956200000000002  0.8486800000000002  0.9513900000000002  1.0000
  H   H59       1.0  0.50783  0.5139100000000001  0.6566500000000001  1.0000
  H   H60       1.0  0.47675  0.59984  0.73387  1.0000
  H   H61       1.0  0.8234400000000003  0.73056  0.63104  1.0000
  H   H62       1.0  0.83999  0.63883  0.55941  1.0000
  H   H63       1.0  0.8357900000000003  0.15828  0.18514  1.0000
  H   H64       1.0  0.83017  0.22738  0.27342  1.0000
  H   H65       1.0  0.4031000000000001  0.10144000000000002  0.33998  1.0000
  H   H66       1.0  0.41161000000000014  0.03208  0.24834  1.0000
  H   H67       1.0  0.87102  0.38565000000000005  0.36165  1.0000
  H   H68       1.0  0.89616  0.4697400000000001  0.4375200000000001  1.0000
  H   H69       1.0  0.5879700000000002  0.3546100000000001  0.55253  1.0000
  H   H70       1.0  0.54889  0.2624000000000001  0.4797100000000001  1.0000
  H   H71       1.0  0.7323600000000002  0.7635000000000002  0.7216600000000001  1.0000
  H   H72       1.0  0.7504500000000002  0.28436  0.33088000000000006  1.0000
  C   C1        1.0  0.28928  0.4322500000000001  0.55225  1.0000
  C   C2        1.0  0.23023000000000007  0.3774600000000001  0.59384  1.0000
  C   C3        1.0  0.33379  0.36571  0.64196  1.0000
  C   C4        1.0  0.2839500000000001  0.31569  0.68157  1.0000
  C   C5        1.0  0.12880000000000008  0.27668000000000004  0.67417  1.0000
  C   C6        1.0  0.026859999999999995  0.28803  0.62535  1.0000
  C   C7        1.0  0.07680000000000002  0.33793000000000006  0.58557  1.0000
  C   C8        1.0  0.06726  0.22242000000000003  0.71494  1.0000
  C   C9        1.0  0.07633  0.06312  0.84707  1.0000
  C   C10       1.0  0.05909  0.11047000000000001  0.8041800000000001  1.0000
  C   C11       1.0  0.15286  0.17221  0.8098200000000001  1.0000
  C   C12       1.0  0.25296  0.18369  0.86039  1.0000
  C   C13       1.0  0.2624400000000001  0.1335  0.9009300000000001  1.0000
  C   C14       1.0  0.13060000000000005  0.54963  0.34312  1.0000
  C   C15       1.0  0.12642000000000003  0.5916700000000001  0.28871  1.0000
  C   C16       1.0  0.24324000000000007  0.64702  0.28068  1.0000
  C   C17       1.0  0.23810000000000003  0.6857000000000001  0.23050000000000007  1.0000
  C   C18       1.0  0.11539000000000003  0.66958  0.18694000000000002  1.0000
  C   C19       1.0  0.99907  0.61374  0.19494  1.0000
  C   C20       1.0  0.003860000000000006  0.57551  0.24539000000000005  1.0000
  C   C21       1.0  0.09882000000000003  0.7081400000000001  0.13179  1.0000
  C   C22       1.0  0.20554000000000006  0.81629  0.08552000000000001  1.0000
  C   C23       1.0  0.30428  0.8759000000000001  0.09632  1.0000
  C   C24       1.0  0.31868  0.92429  0.05356  1.0000
  C   C25       1.0  0.14816  0.85929  0.9901600000000003  1.0000
  C   C26       1.0  0.12735  0.80778  0.03029  1.0000
  C   C27       1.0  0.21039000000000005  0.06781000000000001  0.05229  1.0000
  C   C28       1.0  0.26967  0.12212  0.09412000000000001  1.0000
  C   C29       1.0  0.1653  0.13419000000000003  0.1422  1.0000
  C   C30       1.0  0.21489000000000003  0.18417000000000006  0.18181  1.0000
  C   C31       1.0  0.3708200000000001  0.22276  0.17444000000000004  1.0000
  C   C32       1.0  0.4739  0.21104  0.12565  1.0000
  C   C33       1.0  0.42385  0.16125  0.08586  1.0000
  C   C34       1.0  0.43290999999999996  0.2768  0.21523  1.0000
  C   C35       1.0  0.42309000000000013  0.43757  0.3464400000000001  1.0000
  C   C36       1.0  0.4405600000000001  0.38986  0.30376  1.0000
  C   C37       1.0  0.34705  0.32810000000000006  0.3099700000000001  1.0000
  C   C38       1.0  0.24691000000000005  0.31705000000000005  0.36084  1.0000
  C   C39       1.0  0.23722  0.36756  0.40111  1.0000
  C   C40       1.0  0.3704000000000001  0.95167  0.84271  1.0000
  C   C41       1.0  0.3746300000000001  0.9094400000000001  0.78832  1.0000
  C   C42       1.0  0.25766  0.8541300000000001  0.78057  1.0000
  C   C43       1.0  0.2634300000000001  0.81511  0.7305400000000002  1.0000
  C   C44       1.0  0.38717000000000007  0.83062  0.68682  1.0000
  C   C45       1.0  0.5032600000000003  0.8865500000000001  0.69448  1.0000
  C   C46       1.0  0.49772  0.9251500000000001  0.7447800000000002  1.0000
  C   C47       1.0  0.40567  0.79092  0.6322600000000002  1.0000
  C   C48       1.0  0.29495000000000005  0.6837700000000001  0.58614  1.0000
  C   C49       1.0  0.19510000000000005  0.62441  0.59692  1.0000
  C   C50       1.0  0.18072000000000002  0.57615  0.55406  1.0000
  C   C51       1.0  0.35271000000000013  0.64107  0.4905600000000001  1.0000
  C   C52       1.0  0.3738800000000001  0.69238  0.53083  1.0000
  C   C53       1.0  0.71072  0.56775  0.44776  1.0000
  C   C54       1.0  0.76976  0.6225400000000001  0.40616  1.0000
  C   C55       1.0  0.6661900000000002  0.63429  0.3580500000000001  1.0000
  C   C56       1.0  0.7160400000000002  0.6843  0.31843  1.0000
  C   C57       1.0  0.87119  0.72331  0.32583  1.0000
  C   C58       1.0  0.9731300000000003  0.71196  0.37466  1.0000
  C   C59       1.0  0.92319  0.66207  0.41444  1.0000
  C   C60       1.0  0.93273  0.7775700000000001  0.28506  1.0000
  C   C61       1.0  0.9236700000000002  0.93687  0.15294  1.0000
  C   C62       1.0  0.9409000000000002  0.88953  0.19583  1.0000
  C   C63       1.0  0.84714  0.8277900000000001  0.19018  1.0000
  C   C64       1.0  0.7470300000000002  0.8163100000000001  0.13962  1.0000
  C   C65       1.0  0.7375600000000002  0.8665000000000002  0.09907  1.0000
  C   C66       1.0  0.8694  0.45037  0.65689  1.0000
  C   C67       1.0  0.87357  0.40833000000000014  0.71129  1.0000
  C   C68       1.0  0.75675  0.35298  0.7193300000000001  1.0000
  C   C69       1.0  0.7619000000000002  0.3143000000000001  0.76951  1.0000
  C   C70       1.0  0.8846000000000003  0.33042000000000005  0.8130600000000002  1.0000
  C   C71       1.0  0.0009200000000000049  0.38626000000000005  0.8050700000000002  1.0000
  C   C72       1.0  0.9961300000000001  0.4244900000000001  0.7546100000000001  1.0000
  C   C73       1.0  0.90117  0.29186000000000006  0.86821  1.0000
  C   C74       1.0  0.79446  0.18371  0.9144900000000001  1.0000
  C   C75       1.0  0.69572  0.1241  0.90369  1.0000
  C   C76       1.0  0.68132  0.07571000000000003  0.94644  1.0000
  C   C77       1.0  0.85183  0.14071000000000003  0.00984  1.0000
  C   C78       1.0  0.87265  0.19222000000000003  0.96971  1.0000
  C   C79       1.0  0.78961  0.93219  0.94771  1.0000
  C   C80       1.0  0.73032  0.87788  0.90588  1.0000
  C   C81       1.0  0.8347000000000002  0.8658100000000002  0.8578  1.0000
  C   C82       1.0  0.7851  0.8158300000000002  0.81819  1.0000
  C   C83       1.0  0.62917  0.77724  0.82557  1.0000
  C   C84       1.0  0.5261  0.78896  0.8743600000000001  1.0000
  C   C85       1.0  0.57614  0.8387500000000001  0.91414  1.0000
  C   C86       1.0  0.56708  0.7232  0.78477  1.0000
  C   C87       1.0  0.5769000000000002  0.5624300000000001  0.6535700000000001  1.0000
  C   C88       1.0  0.55943  0.6101400000000002  0.6962400000000001  1.0000
  C   C89       1.0  0.6529400000000002  0.6719  0.69004  1.0000
  C   C90       1.0  0.75309  0.6829500000000001  0.63916  1.0000
  C   C91       1.0  0.76277  0.6324300000000002  0.59889  1.0000
  C   C92       1.0  0.6296000000000003  0.04833  0.1573  1.0000
  C   C93       1.0  0.62537  0.09056  0.21168  1.0000
  C   C94       1.0  0.74234  0.14587  0.21943  1.0000
  C   C95       1.0  0.73657  0.18489  0.26946  1.0000
  C   C96       1.0  0.61283  0.16938  0.31318  1.0000
  C   C97       1.0  0.49674  0.11345  0.30553  1.0000
  C   C98       1.0  0.50227  0.07485000000000001  0.25523000000000007  1.0000
  C   C99       1.0  0.59432  0.20908000000000002  0.3677500000000001  1.0000
  C   C100      1.0  0.70504  0.31623000000000007  0.41386  1.0000
  C   C101      1.0  0.8048900000000001  0.37559  0.40308000000000005  1.0000
  C   C102      1.0  0.8192700000000003  0.42385  0.44595000000000007  1.0000
  C   C103      1.0  0.64728  0.35893  0.50944  1.0000
  C   C104      1.0  0.62612  0.30761000000000005  0.46917  1.0000
  N   N1        1.0  0.17821  0.07330000000000002  0.8942300000000001  1.0000
  N   N2        1.0  0.15553  0.22203000000000003  0.76798  1.0000
  N   N3        1.0  0.24  0.91713  0.00123  1.0000
  N   N4        1.0  0.19261000000000003  0.7694300000000001  0.13031  1.0000
  N   N5        1.0  0.32124  0.42773000000000005  0.39392000000000005  1.0000
  N   N6        1.0  0.34409  0.27785000000000004  0.26841  1.0000
  N   N7        1.0  0.2601300000000001  0.5833500000000001  0.50167  1.0000
  N   N8        1.0  0.30783  0.73056  0.63096  1.0000
  N   N9        1.0  0.8217800000000002  0.9266900000000001  0.10577  1.0000
  N   N10       1.0  0.84446  0.77797  0.23202000000000003  1.0000
  N   N11       1.0  0.7599900000000003  0.08287000000000001  0.99877  1.0000
  N   N12       1.0  0.80739  0.23057000000000005  0.86969  1.0000
  N   N13       1.0  0.6787500000000002  0.5722700000000001  0.60609  1.0000
  N   N14       1.0  0.6559  0.7221500000000002  0.7316  1.0000
  N   N15       1.0  0.7398600000000002  0.41665  0.49834000000000006  1.0000
  N   N16       1.0  0.6921600000000002  0.26944000000000007  0.3690400000000001  1.0000
  O   O1        1.0  0.19141000000000002  0.4399800000000001  0.50771  1.0000
  O   O2        1.0  0.4253100000000001  0.46674000000000004  0.5628100000000001  1.0000
  O   O3        1.0  0.25888  0.5658900000000001  0.37758  1.0000
  O   O4        1.0  0.017100000000000004  0.50368  0.3513  1.0000
  O   O5        1.0  0.007230000000000023  0.6870800000000001  0.09097  1.0000
  O   O6        1.0  0.94899  0.18073  0.70305  1.0000
  O   O7        1.0  0.3086300000000001  0.06039  0.007520000000000001  1.0000
  O   O8        1.0  0.07402000000000003  0.03337  0.06284  1.0000
  O   O9        1.0  0.24076000000000003  0.9363400000000001  0.87712  1.0000
  O   O10       1.0  0.48509  0.99696  0.8510900000000001  1.0000
  O   O11       1.0  0.5016  0.8099800000000001  0.59162  1.0000
  O   O12       1.0  0.5530400000000002  0.31766000000000005  0.20321  1.0000
  O   O13       1.0  0.8085700000000002  0.56002  0.4923  1.0000
  O   O14       1.0  0.57469  0.5332600000000001  0.43719  1.0000
  O   O15       1.0  0.7411100000000003  0.4341  0.62243  1.0000
  O   O16       1.0  0.9829  0.4963200000000001  0.6487  1.0000
  O   O17       1.0  0.99276  0.31292000000000003  0.9090400000000001  1.0000
  O   O18       1.0  0.051020000000000044  0.8192600000000002  0.29695000000000005  1.0000
  O   O19       1.0  0.69137  0.9396000000000001  0.9924900000000002  1.0000
  O   O20       1.0  0.9259700000000002  0.9666300000000001  0.93717  1.0000
  O   O21       1.0  0.7592400000000002  0.06366  0.12289  1.0000
  O   O22       1.0  0.51491  0.00304  0.14891  1.0000
  O   O23       1.0  0.4983900000000001  0.19002000000000002  0.40838  1.0000
  O   O24       1.0  0.4469400000000001  0.68234  0.7968000000000001  1.0000
