data_image0
_chemical_formula_structural       Ag8H120C48N24
_chemical_formula_sum              "Ag8 H120 C48 N24"
_cell_length_a       6.96562
_cell_length_b       13.27022
_cell_length_c       20.36613
_cell_angle_alpha    82.50958999999999
_cell_angle_beta     91.8592
_cell_angle_gamma    92.9853

_symmetry_space_group_name_H-M    'P 1'
_symmetry_Int_Tables_number       1

loop_
  _symmetry_equiv_pos_as_xyz
  'x,y,z'

loop_
  _atom_site_type_symbol
  _atom_site_label
  _atom_site_symmetry_multiplicity
  _atom_site_fract_x
  _atom_site_fract_y
  _atom_site_fract_z
  _atom_site_occupancy
  Ag  Ag1       1.0  0.50802  0.45322999999999997  0.44262  1.0000
  Ag  Ag2       1.0  0.15693  0.95358  0.6930800000000001  1.0000
  Ag  Ag3       1.0  0.9558  0.53052  0.061930000000000006  1.0000
  Ag  Ag4       1.0  0.8474400000000002  0.9778899999999998  0.7579700000000001  1.0000
  Ag  Ag5       1.0  0.54493  0.52779  0.55341  1.0000
  Ag  Ag6       1.0  0.6919000000000002  0.98783  0.27337000000000006  1.0000
  Ag  Ag7       1.0  0.9954800000000001  0.46266  0.9500000000000002  1.0000
  Ag  Ag8       1.0  0.35123000000000015  0.9646999999999999  0.21787  1.0000
  H   H1        1.0  0.6518800000000001  0.15127  0.68732  1.0000
  H   H2        1.0  0.53057  0.19855999999999993  0.7420800000000002  1.0000
  H   H3        1.0  0.8138700000000001  0.31772  0.65859  1.0000
  H   H4        1.0  0.8579500000000004  0.37448  0.5853500000000001  1.0000
  H   H5        1.0  0.05578000000000002  0.09704  0.50612  1.0000
  H   H6        1.0  0.127  0.07264999999999999  0.58298  1.0000
  H   H7        1.0  0.11586  0.36316  0.41742  1.0000
  H   H8        1.0  0.06445000000000002  0.46816  0.37268  1.0000
  H   H9        1.0  0.57949  0.05897000000000001  0.37741  1.0000
  H   H10       1.0  0.4502100000000001  0.08707999999999998  0.43797  1.0000
  H   H11       1.0  0.29334  0.39576  0.33456  1.0000
  H   H12       1.0  0.44407  0.49175  0.30932  1.0000
  H   H13       1.0  0.3089100000000001  0.12555000000000002  0.66747  1.0000
  H   H14       1.0  0.3205100000000001  0.35836  0.64916  1.0000
  H   H15       1.0  0.2144000000000001  0.27713  0.7160500000000001  1.0000
  H   H16       1.0  0.9977800000000002  0.19673999999999997  0.63569  1.0000
  H   H17       1.0  0.98527  0.2771499999999999  0.51712  1.0000
  H   H18       1.0  0.18478  0.35895999999999995  0.53366  1.0000
  H   H19       1.0  0.30616  0.2253899999999999  0.48242000000000007  1.0000
  H   H20       1.0  0.53295  0.14742999999999995  0.5713700000000002  1.0000
  H   H21       1.0  0.51619  0.28151  0.56565  1.0000
  H   H22       1.0  0.77177  0.3891699999999999  0.40695000000000003  1.0000
  H   H23       1.0  0.89614  0.21385999999999997  0.43578  1.0000
  H   H24       1.0  0.89408  0.19986  0.3505  1.0000
  H   H25       1.0  0.55384  0.25226999999999994  0.42874  1.0000
  H   H26       1.0  0.35645000000000004  0.22485  0.327  1.0000
  H   H27       1.0  0.5643  0.19432  0.28813  1.0000
  H   H28       1.0  0.50629  0.36566  0.24442000000000005  1.0000
  H   H29       1.0  0.84483  0.35612  0.26377  1.0000
  H   H30       1.0  0.7794100000000002  0.4710599999999999  0.29103  1.0000
  H   H31       1.0  0.16216000000000008  0.7899299999999999  0.8097200000000002  1.0000
  H   H32       1.0  0.06298000000000001  0.68778  0.7862800000000001  1.0000
  H   H33       1.0  0.28049  0.64133  0.88976  1.0000
  H   H34       1.0  0.43582  0.59092  0.94617  1.0000
  H   H35       1.0  0.6712  0.013099999999999973  0.8702300000000001  1.0000
  H   H36       1.0  0.5099  0.9274  0.8446  1.0000
  H   H37       1.0  0.5711700000000001  0.65881  0.07863  1.0000
  H   H38       1.0  0.52033  0.5508599999999998  0.12516  1.0000
  H   H39       1.0  0.96926  0.9287699999999999  0.15854  1.0000
  H   H40       1.0  0.14419000000000007  0.954  0.10362000000000002  1.0000
  H   H41       1.0  0.7747400000000003  0.6104199999999997  0.16514000000000006  1.0000
  H   H42       1.0  0.8746900000000001  0.50234  0.18975000000000006  1.0000
  H   H43       1.0  0.8274400000000001  0.80406  0.79903  1.0000
  H   H44       1.0  0.8101500000000003  0.62123  0.9078600000000001  1.0000
  H   H45       1.0  0.7361000000000001  0.6204099999999999  0.82395  1.0000
  H   H46       1.0  0.49659000000000014  0.74628  0.8328900000000002  1.0000
  H   H47       1.0  0.4365100000000001  0.80419  0.94285  1.0000
  H   H48       1.0  0.63253  0.73398  0.9775300000000001  1.0000
  H   H49       1.0  0.74255  0.90957  0.9561000000000001  1.0000
  H   H50       1.0  0.015650000000000015  0.8927099999999999  0.8810900000000002  1.0000
  H   H51       1.0  0.9789300000000002  0.7850199999999999  0.9421800000000001  1.0000
  H   H52       1.0  0.22648  0.62758  0.09079  1.0000
  H   H53       1.0  0.3521200000000001  0.8078799999999998  0.07835000000000002  1.0000
  H   H54       1.0  0.40454000000000007  0.79844  0.16459  1.0000
  H   H55       1.0  0.005329999999999989  0.78076  0.09812  1.0000
  H   H56       1.0  0.8782400000000002  0.75775  0.21202  1.0000
  H   H57       1.0  0.11606000000000001  0.7689799999999999  0.24422000000000002  1.0000
  H   H58       1.0  0.019650000000000004  0.59467  0.2635  1.0000
  H   H59       1.0  0.35117000000000015  0.62286  0.23584  1.0000
  H   H60       1.0  0.26186000000000004  0.51737  0.19714  1.0000
  H   H61       1.0  0.3921200000000001  0.79547  0.32952  1.0000
  H   H62       1.0  0.44639  0.68431  0.31288  1.0000
  H   H63       1.0  0.25614  0.6320099999999998  0.40955  1.0000
  H   H64       1.0  0.07178  0.5806299999999998  0.45254000000000005  1.0000
  H   H65       1.0  0.04774  0.0005599999999999996  0.35701  1.0000
  H   H66       1.0  0.035610000000000024  0.90059  0.31869  1.0000
  H   H67       1.0  0.9351599999999999  0.60948  0.57254  1.0000
  H   H68       1.0  0.9881600000000001  0.5112199999999998  0.6261  1.0000
  H   H69       1.0  0.53439  0.9303600000000001  0.642  1.0000
  H   H70       1.0  0.36926  0.9399699999999999  0.58181  1.0000
  H   H71       1.0  0.7489300000000002  0.6095199999999998  0.65768  1.0000
  H   H72       1.0  0.62595  0.50438  0.68108  1.0000
  H   H73       1.0  0.7189100000000003  0.80337  0.30701000000000006  1.0000
  H   H74       1.0  0.7362700000000002  0.62742  0.42002000000000006  1.0000
  H   H75       1.0  0.77856  0.61995  0.33594  1.0000
  H   H76       1.0  0.06039000000000001  0.73545  0.33634  1.0000
  H   H77       1.0  0.18114000000000005  0.80886  0.4361900000000001  1.0000
  H   H78       1.0  0.98394  0.75035  0.48114  1.0000
  H   H79       1.0  0.91389  0.92814  0.44954  1.0000
  H   H80       1.0  0.59815  0.9001099999999999  0.39385  1.0000
  H   H81       1.0  0.64868  0.79591  0.45470000000000005  1.0000
  H   H82       1.0  0.28229  0.60422  0.58568  1.0000
  H   H83       1.0  0.14383  0.77674  0.56774  1.0000
  H   H84       1.0  0.11050999999999998  0.7711199999999999  0.65386  1.0000
  H   H85       1.0  0.4952100000000001  0.77447  0.58472  1.0000
  H   H86       1.0  0.6478  0.76989  0.69655  1.0000
  H   H87       1.0  0.41983000000000004  0.76976  0.7314  1.0000
  H   H88       1.0  0.52025  0.60212  0.75509  1.0000
  H   H89       1.0  0.18288  0.60671  0.73043  1.0000
  H   H90       1.0  0.26795  0.50229  0.69655  1.0000
  H   H91       1.0  0.81164  0.13605999999999996  0.19207000000000005  1.0000
  H   H92       1.0  0.92169  0.21667999999999993  0.23640000000000005  1.0000
  H   H93       1.0  0.5754400000000001  0.41496  0.07512  1.0000
  H   H94       1.0  0.35591  0.45454  0.06859  1.0000
  H   H95       1.0  0.41315000000000013  0.07453  0.02803  1.0000
  H   H96       1.0  0.3782800000000001  0.08188999999999999  0.10612  1.0000
  H   H97       1.0  0.37323  0.3703099999999999  0.9218600000000001  1.0000
  H   H98       1.0  0.43072999999999995  0.47535  0.87484  1.0000
  H   H99       1.0  0.9865400000000002  0.08713999999999997  0.89704  1.0000
  H   H100      1.0  0.8594500000000005  0.09438999999999996  0.9621500000000001  1.0000
  H   H101      1.0  0.18133000000000002  0.4055099999999999  0.8410000000000001  1.0000
  H   H102      1.0  0.04900000000000001  0.5033  0.81776  1.0000
  H   H103      1.0  0.16423000000000004  0.13856999999999997  0.17982000000000004  1.0000
  H   H104      1.0  0.08771000000000002  0.35997999999999997  0.1273  1.0000
  H   H105      1.0  0.22210000000000013  0.31893  0.20061000000000004  1.0000
  H   H106      1.0  0.4736900000000001  0.2585  0.13587  1.0000
  H   H107      1.0  0.45  0.27108  0.01402  1.0000
  H   H108      1.0  0.22895  0.33209  0.013570000000000004  1.0000
  H   H109      1.0  0.14873000000000006  0.16572  0.99016  1.0000
  H   H110      1.0  0.9404  0.0987  0.08681  1.0000
  H   H111      1.0  0.92688  0.23103  0.06006  1.0000
  H   H112      1.0  0.71769  0.40139  0.91002  1.0000
  H   H113      1.0  0.5760900000000001  0.22485999999999998  0.94076  1.0000
  H   H114      1.0  0.5518600000000002  0.20928999999999998  0.85589  1.0000
  H   H115      1.0  0.92714  0.26451  0.9285  1.0000
  H   H116      1.0  0.08553000000000001  0.23673999999999992  0.8253400000000002  1.0000
  H   H117      1.0  0.8601300000000002  0.2096  0.7879400000000001  1.0000
  H   H118      1.0  0.9535600000000002  0.38303  0.74884  1.0000
  H   H119      1.0  0.6123800000000001  0.36274999999999996  0.76797  1.0000
  H   H120      1.0  0.6964700000000001  0.48038999999999993  0.7929900000000002  1.0000
  C   C1        1.0  0.3865200000000001  0.20027000000000003  0.65247  1.0000
  C   C2        1.0  0.24894000000000002  0.28289999999999993  0.6633000000000001  1.0000
  C   C3        1.0  0.06361  0.27346  0.62074  1.0000
  C   C4        1.0  0.11691000000000003  0.28245999999999993  0.5480100000000001  1.0000
  C   C5        1.0  0.25852  0.20335000000000003  0.53356  1.0000
  C   C6        1.0  0.4371800000000001  0.20779999999999998  0.5793700000000002  1.0000
  C   C7        1.0  0.8543400000000003  0.3544099999999999  0.37006  1.0000
  C   C8        1.0  0.8264500000000002  0.2392399999999999  0.38774  1.0000
  C   C9        1.0  0.61174  0.20918  0.39167  1.0000
  C   C10       1.0  0.51245  0.24169999999999997  0.3240200000000001  1.0000
  C   C11       1.0  0.5515300000000002  0.35448999999999997  0.29712  1.0000
  C   C12       1.0  0.7649600000000002  0.38752  0.30167  1.0000
  C   C13       1.0  0.8917900000000002  0.75882  0.84322  1.0000
  C   C14       1.0  0.75256  0.66892  0.86374  1.0000
  C   C15       1.0  0.5545400000000001  0.7047099999999998  0.8788500000000002  1.0000
  C   C16       1.0  0.5772  0.77784  0.93166  1.0000
  C   C17       1.0  0.7215500000000001  0.86781  0.91296  1.0000
  C   C18       1.0  0.9154  0.82802  0.89742  1.0000
  C   C19       1.0  0.32159000000000004  0.65496  0.13066000000000003  1.0000
  C   C20       1.0  0.30547000000000013  0.76981  0.12691  1.0000
  C   C21       1.0  0.10100000000000002  0.7987399999999999  0.13972000000000004  1.0000
  C   C22       1.0  0.027690000000000003  0.73978  0.20432000000000003  1.0000
  C   C23       1.0  0.046959999999999995  0.6244799999999999  0.21138  1.0000
  C   C24       1.0  0.25159000000000004  0.5998500000000001  0.19672  1.0000
  C   C25       1.0  0.6679300000000001  0.76277  0.35490000000000005  1.0000
  C   C26       1.0  0.7909200000000002  0.67165  0.37411000000000005  1.0000
  C   C27       1.0  0.003870000000000014  0.70309  0.3846500000000001  1.0000
  C   C28       1.0  0.028629999999999982  0.7853599999999996  0.4316400000000001  1.0000
  C   C29       1.0  0.9019700000000003  0.87668  0.41139  1.0000
  C   C30       1.0  0.6929800000000003  0.83648  0.40643  1.0000
  C   C31       1.0  0.19156000000000006  0.6292  0.62426  1.0000
  C   C32       1.0  0.20240000000000005  0.74556  0.6165  1.0000
  C   C33       1.0  0.40724  0.79011  0.6259700000000001  1.0000
  C   C34       1.0  0.4971  0.74196  0.6914400000000002  1.0000
  C   C35       1.0  0.4808500000000001  0.62531  0.7027100000000001  1.0000
  C   C36       1.0  0.27428  0.58591  0.69169  1.0000
  C   C37       1.0  0.07163  0.19814  0.15384  1.0000
  C   C38       1.0  0.18400000000000002  0.30105  0.15041  1.0000
  C   C39       1.0  0.3654000000000001  0.30668  0.10900000000000001  1.0000
  C   C40       1.0  0.3163300000000001  0.27211  0.04104  1.0000
  C   C41       1.0  0.1994  0.17093  0.04134  1.0000
  C   C42       1.0  0.02212  0.17235  0.08385  1.0000
  C   C43       1.0  0.6228  0.36456  0.8737300000000001  1.0000
  C   C44       1.0  0.6369500000000002  0.24989000000000003  0.89183  1.0000
  C   C45       1.0  0.8468099999999998  0.22148999999999996  0.89253  1.0000
  C   C46       1.0  0.9327400000000002  0.25416999999999995  0.8243900000000001  1.0000
  C   C47       1.0  0.9114800000000001  0.3679700000000001  0.80095  1.0000
  C   C48       1.0  0.70338  0.3975099999999999  0.8050200000000002  1.0000
  N   N1        1.0  0.56463  0.20960000000000004  0.69305  1.0000
  N   N2        1.0  0.9250200000000002  0.3514399999999999  0.63008  1.0000
  N   N3        1.0  0.17641000000000007  0.09734000000000001  0.53624  1.0000
  N   N4        1.0  0.055989999999999984  0.38987999999999995  0.3722  1.0000
  N   N5        1.0  0.5817100000000001  0.10043  0.41673  1.0000
  N   N6        1.0  0.4388100000000001  0.41953  0.33421  1.0000
  N   N7        1.0  0.08095999999999999  0.72549  0.82702  1.0000
  N   N8        1.0  0.41937000000000013  0.61753  0.8969800000000001  1.0000
  N   N9        1.0  0.6520700000000003  0.94129  0.8559  1.0000
  N   N10       1.0  0.52143  0.629  0.12422000000000002  1.0000
  N   N11       1.0  0.10307  0.90873  0.14667  1.0000
  N   N12       1.0  0.9048500000000003  0.57512  0.16791  1.0000
  N   N13       1.0  0.46318  0.73167  0.34872  1.0000
  N   N14       1.0  0.11159999999999999  0.61173  0.40604000000000007  1.0000
  N   N15       1.0  0.9579000000000002  0.94043  0.34756  1.0000
  N   N16       1.0  0.9927500000000002  0.5900699999999998  0.6192500000000001  1.0000
  N   N17       1.0  0.40143000000000006  0.9019599999999998  0.62783  1.0000
  N   N18       1.0  0.6091200000000001  0.5778499999999999  0.65983  1.0000
  N   N19       1.0  0.89157  0.20407999999999998  0.18858  1.0000
  N   N20       1.0  0.44872  0.41235  0.10028  1.0000
  N   N21       1.0  0.3076  0.07797  0.06131000000000001  1.0000
  N   N22       1.0  0.42646  0.39656999999999987  0.8761300000000001  1.0000
  N   N23       1.0  0.85879  0.11059  0.91169  1.0000
  N   N24       1.0  0.04130000000000001  0.43017  0.84121  1.0000
