data_image0
_chemical_formula_structural       Ni12H64C88N8O48
_chemical_formula_sum              "Ni12 H64 C88 N8 O48"
_cell_length_a       8.76963
_cell_length_b       8.77154
_cell_length_c       39.17884
_cell_angle_alpha    85.76791
_cell_angle_beta     85.73664
_cell_angle_gamma    84.22526

_space_group_name_H-M_alt    "P 1"
_space_group_IT_number       1

loop_
  _space_group_symop_operation_xyz
  'x, y, z'

loop_
  _atom_site_type_symbol
  _atom_site_label
  _atom_site_symmetry_multiplicity
  _atom_site_fract_x
  _atom_site_fract_y
  _atom_site_fract_z
  _atom_site_occupancy
  Ni  Ni1       1.0  0.17834  0.2537899999999999  0.88144  1.0000
  Ni  Ni2       1.0  0.39718  0.02511000000000002  0.8394  1.0000
  Ni  Ni3       1.0  0.8529899999999999  0.10953999999999996  0.8963200000000001  1.0000
  Ni  Ni4       1.0  0.74642  0.82139  0.61865  1.0000
  Ni  Ni5       1.0  0.9755699999999999  0.60307  0.66098  1.0000
  Ni  Ni6       1.0  0.8902300000000001  0.14711  0.60401  1.0000
  Ni  Ni7       1.0  0.8216700000000001  0.74622  0.11856  1.0000
  Ni  Ni8       1.0  0.60282  0.9748999999999999  0.1606  1.0000
  Ni  Ni9       1.0  0.14701999999999998  0.89047  0.10367  1.0000
  Ni  Ni10      1.0  0.25359  0.17862  0.38135  1.0000
  Ni  Ni11      1.0  0.024439999999999986  0.39694  0.33902  1.0000
  Ni  Ni12      1.0  0.10977999999999999  0.8529100000000001  0.39599  1.0000
  H   H1        1.0  0.38018  0.010719999999999999  0.03997  1.0000
  H   H2        1.0  0.12282  0.63306  0.02116  1.0000
  H   H3        1.0  0.70425  0.58411  0.75429  1.0000
  H   H4        1.0  0.44693999999999995  0.96292  0.7029  1.0000
  H   H5        1.0  0.12026000000000003  0.9722600000000001  0.7921  1.0000
  H   H6        1.0  0.06534999999999998  0.79617  0.81244  1.0000
  H   H7        1.0  0.21685  0.72185  0.8624299999999999  1.0000
  H   H8        1.0  0.32071  0.5966599999999999  0.83423  1.0000
  H   H9        1.0  0.28070000000000006  0.003889999999999993  0.7558  1.0000
  H   H10       1.0  0.51804  0.8267  0.05961  1.0000
  H   H11       1.0  0.52518  0.6338  0.07649  1.0000
  H   H12       1.0  0.32074  0.5216  0.09532  1.0000
  H   H13       1.0  0.26318  0.51169  0.053419999999999995  1.0000
  H   H14       1.0  0.5375099999999999  0.61723  0.80704  1.0000
  H   H15       1.0  0.30017000000000005  0.14389  0.98574  1.0000
  H   H16       1.0  0.04553  0.76918  0.967  1.0000
  H   H17       1.0  0.98865  0.6205900000000001  0.46011  1.0000
  H   H18       1.0  0.36690999999999996  0.8777  0.47866  1.0000
  H   H19       1.0  0.41533999999999993  0.2959  0.74576  1.0000
  H   H20       1.0  0.03695999999999999  0.5522299999999999  0.79756  1.0000
  H   H21       1.0  0.025539999999999983  0.8790900000000001  0.7087  1.0000
  H   H22       1.0  0.20117000000000004  0.9360299999999997  0.6885  1.0000
  H   H23       1.0  0.27734999999999993  0.78568  0.63819  1.0000
  H   H24       1.0  0.4031200000000001  0.68347  0.6665  1.0000
  H   H25       1.0  0.99535  0.71933  0.74483  1.0000
  H   H26       1.0  0.17247999999999997  0.48264999999999997  0.44022  1.0000
  H   H27       1.0  0.36521  0.47585000000000005  0.42330000000000007  1.0000
  H   H28       1.0  0.47741  0.67947  0.40442  1.0000
  H   H29       1.0  0.48767999999999995  0.73653  0.44634  1.0000
  H   H30       1.0  0.38198999999999994  0.46373999999999993  0.69318  1.0000
  H   H31       1.0  0.8562299999999998  0.7005  0.51441  1.0000
  H   H32       1.0  0.23152000000000003  0.95502  0.53287  1.0000
  H   H33       1.0  0.6198300000000002  0.9892900000000001  0.9600300000000002  1.0000
  H   H34       1.0  0.8771899999999999  0.36695  0.97884  1.0000
  H   H35       1.0  0.2957600000000001  0.4159  0.24571  1.0000
  H   H36       1.0  0.5530699999999997  0.03709  0.2971  1.0000
  H   H37       1.0  0.8797499999999999  0.027749999999999997  0.2079  1.0000
  H   H38       1.0  0.93466  0.20384  0.18756  1.0000
  H   H39       1.0  0.78316  0.27816  0.13756  1.0000
  H   H40       1.0  0.6793  0.40336  0.16577  1.0000
  H   H41       1.0  0.71931  0.9961199999999999  0.24420000000000003  1.0000
  H   H42       1.0  0.4819700000000001  0.17331000000000005  0.9403899999999998  1.0000
  H   H43       1.0  0.4748299999999999  0.36622000000000005  0.92351  1.0000
  H   H44       1.0  0.67927  0.4784100000000001  0.90468  1.0000
  H   H45       1.0  0.7368299999999999  0.48832000000000003  0.94658  1.0000
  H   H46       1.0  0.46248999999999996  0.38278  0.19296  1.0000
  H   H47       1.0  0.69983  0.85612  0.01426  1.0000
  H   H48       1.0  0.9544799999999999  0.23083000000000004  0.033  1.0000
  H   H49       1.0  0.011360000000000016  0.37942  0.53989  1.0000
  H   H50       1.0  0.63309  0.12230999999999999  0.52133  1.0000
  H   H51       1.0  0.5846699999999998  0.70411  0.25424  1.0000
  H   H52       1.0  0.96305  0.44777999999999996  0.20244  1.0000
  H   H53       1.0  0.9744700000000001  0.12093  0.2913  1.0000
  H   H54       1.0  0.79884  0.06398  0.3115  1.0000
  H   H55       1.0  0.72266  0.21433000000000002  0.36181  1.0000
  H   H56       1.0  0.59689  0.31654  0.3335  1.0000
  H   H57       1.0  0.004659999999999987  0.28068000000000004  0.25517  1.0000
  H   H58       1.0  0.8275300000000001  0.5173600000000002  0.55978  1.0000
  H   H59       1.0  0.6348  0.52417  0.5767  1.0000
  H   H60       1.0  0.5226  0.32054  0.59558  1.0000
  H   H61       1.0  0.5123299999999997  0.26349  0.55366  1.0000
  H   H62       1.0  0.61801  0.53627  0.30682  1.0000
  H   H63       1.0  0.14378  0.29951  0.48559  1.0000
  H   H64       1.0  0.76849  0.04498999999999999  0.46712  1.0000
  C   C1        1.0  0.31144  0.9538199999999999  0.02371  1.0000
  C   C2        1.0  0.16608999999999996  0.74286  0.013429999999999997  1.0000
  C   C3        1.0  0.6096700000000002  0.67431  0.75479  1.0000
  C   C4        1.0  0.5846499999999999  0.76892  0.72496  1.0000
  C   C5        1.0  0.6853199999999999  0.74442  0.69315  1.0000
  C   C6        1.0  0.46368999999999994  0.8865600000000001  0.72577  1.0000
  C   C7        1.0  0.07874999999999996  0.97776  0.8459300000000001  1.0000
  C   C8        1.0  0.13623000000000005  0.89092  0.81447  1.0000
  C   C9        1.0  0.31820000000000004  0.7102399999999999  0.84423  1.0000
  C   C10       1.0  0.3918399999999999  0.80981  0.78517  1.0000
  C   C11       1.0  0.45691999999999994  0.80342  0.11270999999999999  1.0000
  C   C12       1.0  0.36906000000000005  0.9078100000000001  0.75548  1.0000
  C   C13       1.0  0.45765999999999996  0.74629  0.07718  1.0000
  C   C14       1.0  0.1686699999999999  0.9647800000000001  0.9726000000000001  1.0000
  C   C15       1.0  0.24830999999999998  0.5817  0.07569  1.0000
  C   C16       1.0  0.51458  0.69332  0.78451  1.0000
  C   C17       1.0  0.08387  0.58798  0.09077  1.0000
  C   C18       1.0  0.2654299999999999  0.030039999999999956  0.9932700000000001  1.0000
  C   C19       1.0  0.11991  0.8205000000000001  0.98301  1.0000
  C   C20       1.0  0.11318999999999997  0.05040999999999994  0.9410100000000001  1.0000
  C   C21       1.0  0.4575099999999999  0.72033  0.8650599999999999  1.0000
  C   C22       1.0  0.26241000000000003  0.80851  0.03412  1.0000
  C   C23       1.0  0.04585999999999997  0.68931  0.47631000000000007  1.0000
  C   C24       1.0  0.25709000000000004  0.83443  0.48643  1.0000
  C   C25       1.0  0.3251999999999998  0.39052  0.74537  1.0000
  C   C26       1.0  0.23077999999999999  0.41517000000000004  0.77525  1.0000
  C   C27       1.0  0.2555499999999999  0.31436000000000003  0.80698  1.0000
  C   C28       1.0  0.11303  0.53598  0.77461  1.0000
  C   C29       1.0  0.02049000000000002  0.9216899999999999  0.65477  1.0000
  C   C30       1.0  0.10709000000000002  0.8645000000000002  0.6863  1.0000
  C   C31       1.0  0.28995999999999994  0.68435  0.65637  1.0000
  C   C32       1.0  0.18951999999999994  0.60886  0.71528  1.0000
  C   C33       1.0  0.1960800000000001  0.54313  0.38696  1.0000
  C   C34       1.0  0.09149999999999997  0.63106  0.74501  1.0000
  C   C35       1.0  0.25257000000000007  0.5431  0.42256  1.0000
  C   C36       1.0  0.03552000000000003  0.8321099999999999  0.52744  1.0000
  C   C37       1.0  0.41767000000000004  0.75203  0.42406999999999995  1.0000
  C   C38       1.0  0.30602999999999986  0.48617  0.71577  1.0000
  C   C39       1.0  0.41201999999999994  0.91657  0.40912  1.0000
  C   C40       1.0  0.97005  0.7353  0.50682  1.0000
  C   C41       1.0  0.17983000000000002  0.8806699999999998  0.51692  1.0000
  C   C42       1.0  0.94985  0.8874  0.55909  1.0000
  C   C43       1.0  0.2814999999999999  0.54387  0.63571  1.0000
  C   C44       1.0  0.19106000000000004  0.7383  0.46574  1.0000
  C   C45       1.0  0.6885700000000001  0.04619  0.97629  1.0000
  C   C46       1.0  0.83392  0.25715  0.98657  1.0000
  C   C47       1.0  0.39033999999999996  0.3257  0.24521000000000004  1.0000
  C   C48       1.0  0.41535999999999984  0.23109  0.27504  1.0000
  C   C49       1.0  0.31467999999999996  0.25559  0.30685  1.0000
  C   C50       1.0  0.5363099999999998  0.11346000000000002  0.27422  1.0000
  C   C51       1.0  0.9212600000000001  0.022249999999999992  0.15406  1.0000
  C   C52       1.0  0.86378  0.10909  0.18553  1.0000
  C   C53       1.0  0.68181  0.28977  0.15577  1.0000
  C   C54       1.0  0.60817  0.19020000000000004  0.21483  1.0000
  C   C55       1.0  0.54309  0.19658999999999996  0.88729  1.0000
  C   C56       1.0  0.63095  0.0922  0.24452  1.0000
  C   C57       1.0  0.5423399999999999  0.25371999999999995  0.9228200000000001  1.0000
  C   C58       1.0  0.8313399999999997  0.03523  0.0274  1.0000
  C   C59       1.0  0.7517  0.41831  0.9243100000000001  1.0000
  C   C60       1.0  0.48543  0.30668999999999996  0.21549000000000001  1.0000
  C   C61       1.0  0.9161399999999998  0.41203  0.90923  1.0000
  C   C62       1.0  0.7345799999999999  0.96997  0.006730000000000001  1.0000
  C   C63       1.0  0.8801  0.17951  0.01699  1.0000
  C   C64       1.0  0.88682  0.94961  0.05899  1.0000
  C   C65       1.0  0.5425  0.27968  0.13494  1.0000
  C   C66       1.0  0.7375999999999999  0.1915  0.9658800000000001  1.0000
  C   C67       1.0  0.9541499999999999  0.31070000000000003  0.52369  1.0000
  C   C68       1.0  0.74292  0.16558  0.51357  1.0000
  C   C69       1.0  0.67481  0.60949  0.25463  1.0000
  C   C70       1.0  0.76923  0.58485  0.22475000000000003  1.0000
  C   C71       1.0  0.74446  0.68565  0.19302  1.0000
  C   C72       1.0  0.8869799999999997  0.46403  0.22539  1.0000
  C   C73       1.0  0.9795099999999999  0.07832  0.34523  1.0000
  C   C74       1.0  0.8929200000000002  0.13551  0.3137  1.0000
  C   C75       1.0  0.71005  0.31566  0.34363  1.0000
  C   C76       1.0  0.81049  0.39115000000000005  0.28472  1.0000
  C   C77       1.0  0.8039299999999998  0.4568899999999999  0.61304  1.0000
  C   C78       1.0  0.90851  0.36895  0.25499  1.0000
  C   C79       1.0  0.74744  0.4569099999999999  0.57744  1.0000
  C   C80       1.0  0.96448  0.16790000000000005  0.4725599999999999  1.0000
  C   C81       1.0  0.58234  0.24798000000000003  0.57593  1.0000
  C   C82       1.0  0.69397  0.51384  0.28423  1.0000
  C   C83       1.0  0.5879899999999999  0.08344000000000001  0.59088  1.0000
  C   C84       1.0  0.02996000000000001  0.26471  0.49317999999999995  1.0000
  C   C85       1.0  0.8201799999999999  0.11933999999999999  0.48308000000000006  1.0000
  C   C86       1.0  0.050159999999999996  0.11260999999999999  0.44091  1.0000
  C   C87       1.0  0.7184999999999998  0.45613999999999993  0.36429  1.0000
  C   C88       1.0  0.8089499999999998  0.26172  0.53426  1.0000
  N   N1        1.0  0.30015  0.8347700000000001  0.81652  1.0000
  N   N2        1.0  0.29922  0.73737  0.06713  1.0000
  N   N3        1.0  0.16476000000000005  0.70113  0.68403  1.0000
  N   N4        1.0  0.26149000000000006  0.70177  0.43259  1.0000
  N   N5        1.0  0.69986  0.16524  0.18348  1.0000
  N   N6        1.0  0.7007800000000001  0.26264  0.93287  1.0000
  N   N7        1.0  0.8352499999999998  0.29888  0.31597  1.0000
  N   N8        1.0  0.73851  0.29824  0.56741  1.0000
  O   O1        1.0  0.9389299999999999  0.9857699999999998  0.85521  1.0000
  O   O2        1.0  0.18140999999999993  0.039550000000000016  0.86099  1.0000
  O   O3        1.0  0.8118299999999999  0.65942  0.69686  1.0000
  O   O4        1.0  0.63686  0.8107500000000001  0.66527  1.0000
  O   O5        1.0  0.50687  0.8550599999999999  0.86542  1.0000
  O   O6        1.0  0.18320999999999998  0.16725000000000004  0.92963  1.0000
  O   O7        1.0  0.58485  0.80367  0.12636  1.0000
  O   O8        1.0  0.04927999999999998  0.6962599999999999  0.11289000000000002  1.0000
  O   O9        1.0  0.33352  0.85554  0.12819  1.0000
  O   O10       1.0  0.99973  0.0015000000000000289  0.92776  1.0000
  O   O11       1.0  0.5098599999999999  0.6003  0.8807600000000001  1.0000
  O   O12       1.0  0.99101  0.49929  0.08442  1.0000
  O   O13       1.0  0.010920000000000004  0.06159999999999999  0.64557  1.0000
  O   O14       1.0  0.9606299999999997  0.8185799999999999  0.63946  1.0000
  O   O15       1.0  0.34052999999999994  0.18784  0.80324  1.0000
  O   O16       1.0  0.18926999999999994  0.36297000000000007  0.83487  1.0000
  O   O17       1.0  0.14749  0.49224  0.63601  1.0000
  O   O18       1.0  0.8331699999999999  0.81703  0.57043  1.0000
  O   O19       1.0  0.19536999999999993  0.41457999999999995  0.3736  1.0000
  O   O20       1.0  0.30374999999999985  0.9518499999999999  0.38704  1.0000
  O   O21       1.0  0.14512999999999998  0.66624  0.37118  1.0000
  O   O22       1.0  0.9985599999999999  0.0008599999999999795  0.57237  1.0000
  O   O23       1.0  0.40078  0.49214000000000013  0.61963  1.0000
  O   O24       1.0  0.50098  0.008950000000000017  0.4156  1.0000
  O   O25       1.0  0.06108000000000001  0.014240000000000003  0.14479  1.0000
  O   O26       1.0  0.8185999999999997  0.9604599999999999  0.13901  1.0000
  O   O27       1.0  0.18818  0.34059  0.30314  1.0000
  O   O28       1.0  0.3631499999999999  0.18925999999999998  0.33473  1.0000
  O   O29       1.0  0.49313999999999997  0.14495  0.13458  1.0000
  O   O30       1.0  0.8168  0.83277  0.07036  1.0000
  O   O31       1.0  0.41515  0.19635  0.87364  1.0000
  O   O32       1.0  0.95073  0.30376  0.8871100000000001  1.0000
  O   O33       1.0  0.66649  0.14447000000000002  0.87181  1.0000
  O   O34       1.0  0.0002700000000000045  0.9985200000000001  0.07224  1.0000
  O   O35       1.0  0.49015  0.39971  0.11923  1.0000
  O   O36       1.0  0.008999999999999998  0.50072  0.91557  1.0000
  O   O37       1.0  0.98908  0.9384200000000001  0.35442  1.0000
  O   O38       1.0  0.03937999999999996  0.18144  0.36054  1.0000
  O   O39       1.0  0.6594799999999998  0.81217  0.19676  1.0000
  O   O40       1.0  0.81073  0.63704  0.16513  1.0000
  O   O41       1.0  0.85252  0.50778  0.36399  1.0000
  O   O42       1.0  0.16683999999999996  0.18298000000000003  0.42956999999999995  1.0000
  O   O43       1.0  0.80464  0.58543  0.6264  1.0000
  O   O44       1.0  0.6962499999999999  0.048159999999999974  0.61296  1.0000
  O   O45       1.0  0.8548799999999999  0.33377000000000007  0.62882  1.0000
  O   O46       1.0  0.0014500000000000045  0.99915  0.42763  1.0000
  O   O47       1.0  0.59923  0.50787  0.38037  1.0000
  O   O48       1.0  0.4990300000000001  0.99106  0.5844  1.0000
