data_image0
_chemical_formula_structural       Ba12Fe8H16C48O104
_chemical_formula_sum              "Ba12 Fe8 H16 C48 O104"
_cell_length_a       11.07424
_cell_length_b       16.55819
_cell_length_c       18.89831
_cell_angle_alpha    89.09507
_cell_angle_beta     86.79944
_cell_angle_gamma    75.2889

_space_group_name_H-M_alt    "P 1"
_space_group_IT_number       1

loop_
  _space_group_symop_operation_xyz
  'x, y, z'

loop_
  _atom_site_type_symbol
  _atom_site_label
  _atom_site_symmetry_multiplicity
  _atom_site_fract_x
  _atom_site_fract_y
  _atom_site_fract_z
  _atom_site_occupancy
  Ba  Ba1       1.0  0.39339999999999997  0.39172  0.50187  1.0000
  Ba  Ba2       1.0  0.44892999999999994  0.45574  0.24975999999999998  1.0000
  Ba  Ba3       1.0  0.13818999999999998  0.63541  0.03527  1.0000
  Ba  Ba4       1.0  0.7898699999999999  0.09724  0.9945300000000001  1.0000
  Ba  Ba5       1.0  0.10215000000000002  0.95958  0.25086  1.0000
  Ba  Ba6       1.0  0.19812999999999997  0.17416  0.45923  1.0000
  Ba  Ba7       1.0  0.6066  0.60827  0.49812999999999996  1.0000
  Ba  Ba8       1.0  0.5510700000000001  0.54425  0.75024  1.0000
  Ba  Ba9       1.0  0.86181  0.36459  0.96473  1.0000
  Ba  Ba10      1.0  0.21013000000000004  0.90276  0.00547  1.0000
  Ba  Ba11      1.0  0.89785  0.04042  0.74914  1.0000
  Ba  Ba12      1.0  0.80187  0.82584  0.54077  1.0000
  Fe  Fe1       1.0  0.11153999999999996  0.6412900000000002  0.36822  1.0000
  Fe  Fe2       1.0  0.39103  0.32627  0.83021  1.0000
  Fe  Fe3       1.0  0.25787  0.1532  0.12541  1.0000
  Fe  Fe4       1.0  0.73653  0.14093  0.32663  1.0000
  Fe  Fe5       1.0  0.8884599999999998  0.3587  0.6317799999999999  1.0000
  Fe  Fe6       1.0  0.60897  0.67372  0.16979  1.0000
  Fe  Fe7       1.0  0.74213  0.84679  0.87459  1.0000
  Fe  Fe8       1.0  0.2634699999999998  0.8590600000000003  0.67338  1.0000
  H   H1        1.0  0.20111999999999994  0.43441  0.34841  1.0000
  H   H2        1.0  0.2705899999999999  0.34068  0.33232  1.0000
  H   H3        1.0  0.6253599999999999  0.4070700000000001  0.38948  1.0000
  H   H4        1.0  0.59396  0.32327  0.36732  1.0000
  H   H5        1.0  0.6325499999999998  0.04172  0.84902  1.0000
  H   H6        1.0  0.6300599999999998  0.13815  0.84035  1.0000
  H   H7        1.0  0.9857899999999999  0.18157  0.84192  1.0000
  H   H8        1.0  0.040939999999999976  0.09737000000000003  0.88286  1.0000
  H   H9        1.0  0.79888  0.56559  0.65159  1.0000
  H   H10       1.0  0.72941  0.65931  0.66769  1.0000
  H   H11       1.0  0.3746399999999999  0.59292  0.61052  1.0000
  H   H12       1.0  0.40603999999999973  0.67672  0.63268  1.0000
  H   H13       1.0  0.3674499999999998  0.9582800000000002  0.15098  1.0000
  H   H14       1.0  0.36994  0.86185  0.15965  1.0000
  H   H15       1.0  0.014209999999999988  0.81843  0.15808  1.0000
  H   H16       1.0  0.9590599999999998  0.90262  0.11714  1.0000
  C   C1        1.0  0.30120999999999987  0.59886  0.46533  1.0000
  C   C2        1.0  0.29538  0.69001  0.4429699999999999  1.0000
  C   C3        1.0  0.8993799999999998  0.64484  0.45642999999999995  1.0000
  C   C4        1.0  0.9141099999999999  0.56685  0.40957  1.0000
  C   C5        1.0  0.19709  0.60224  0.22214  1.0000
  C   C6        1.0  0.09012999999999997  0.68299  0.22212  1.0000
  C   C7        1.0  0.44768  0.38866  0.69084  1.0000
  C   C8        1.0  0.3904  0.31376  0.67968  1.0000
  C   C9        1.0  0.6274  0.27767  0.89409  1.0000
  C   C10       1.0  0.5558500000000001  0.36041  0.9306299999999998  1.0000
  C   C11       1.0  0.14344999999999997  0.39106  0.8823299999999998  1.0000
  C   C12       1.0  0.18426999999999996  0.2986700000000001  0.9083299999999999  1.0000
  C   C13       1.0  0.028330000000000008  0.1893  0.05718999999999999  1.0000
  C   C14       1.0  0.10020000000000001  0.1023  0.030829999999999996  1.0000
  C   C15       1.0  0.46653999999999995  0.15191  0.03619  1.0000
  C   C16       1.0  0.50585  0.07029  0.08062  1.0000
  C   C17       1.0  0.24465999999999993  0.20666  0.26972  1.0000
  C   C18       1.0  0.19460000000000002  0.1275  0.27377  1.0000
  C   C19       1.0  0.73169  0.16197  0.17608  1.0000
  C   C20       1.0  0.8506499999999999  0.09076  0.18819  1.0000
  C   C21       1.0  0.51269  0.10395  0.38354  1.0000
  C   C22       1.0  0.50373  0.19488  0.40629  1.0000
  C   C23       1.0  0.91086  0.2147  0.38607  1.0000
  C   C24       1.0  0.91768  0.13158  0.42771  1.0000
  C   C25       1.0  0.6987899999999999  0.40113  0.53467  1.0000
  C   C26       1.0  0.7046200000000001  0.30998  0.55703  1.0000
  C   C27       1.0  0.10061999999999997  0.35516  0.54357  1.0000
  C   C28       1.0  0.08589000000000001  0.43314  0.59043  1.0000
  C   C29       1.0  0.8029099999999999  0.39775  0.77786  1.0000
  C   C30       1.0  0.9098699999999997  0.31701  0.77788  1.0000
  C   C31       1.0  0.55232  0.61133  0.30916  1.0000
  C   C32       1.0  0.6096  0.68624  0.32032  1.0000
  C   C33       1.0  0.3726  0.72232  0.10591  1.0000
  C   C34       1.0  0.4441500000000001  0.63958  0.06937  1.0000
  C   C35       1.0  0.8565399999999997  0.60894  0.11766999999999998  1.0000
  C   C36       1.0  0.8157300000000001  0.70132  0.09167  1.0000
  C   C37       1.0  0.97167  0.81069  0.9428100000000001  1.0000
  C   C38       1.0  0.8998  0.8977  0.9691699999999999  1.0000
  C   C39       1.0  0.53346  0.84808  0.9638099999999998  1.0000
  C   C40       1.0  0.49414999999999965  0.92971  0.9193799999999999  1.0000
  C   C41       1.0  0.7553399999999999  0.79334  0.73029  1.0000
  C   C42       1.0  0.8054  0.87249  0.72623  1.0000
  C   C43       1.0  0.26830999999999994  0.8380200000000002  0.82392  1.0000
  C   C44       1.0  0.14934999999999998  0.90924  0.81181  1.0000
  C   C45       1.0  0.48730999999999997  0.89604  0.61646  1.0000
  C   C46       1.0  0.49626999999999993  0.80512  0.59371  1.0000
  C   C47       1.0  0.08914  0.78529  0.61394  1.0000
  C   C48       1.0  0.08231999999999992  0.8684100000000002  0.57229  1.0000
  O   O1        1.0  0.23141999999999996  0.56217  0.43282  1.0000
  O   O2        1.0  0.37585000000000013  0.56349  0.51079  1.0000
  O   O3        1.0  0.2123899999999999  0.7189100000000003  0.39661  1.0000
  O   O4        1.0  0.36897  0.72589  0.46746  1.0000
  O   O5        1.0  0.9697799999999998  0.69405  0.4383099999999999  1.0000
  O   O6        1.0  0.8204299999999999  0.65926  0.50765  1.0000
  O   O7        1.0  0.014389999999999906  0.5521200000000003  0.36755  1.0000
  O   O8        1.0  0.83254  0.52767  0.41428  1.0000
  O   O9        1.0  0.23065999999999998  0.57527  0.28429  1.0000
  O   O10       1.0  0.24901  0.56897  0.16532  1.0000
  O   O11       1.0  0.049100000000000005  0.71393  0.28328  1.0000
  O   O12       1.0  0.054480000000000015  0.71404  0.16389  1.0000
  O   O13       1.0  0.46032  0.40524  0.75651  1.0000
  O   O14       1.0  0.47890999999999995  0.42938  0.63968  1.0000
  O   O15       1.0  0.37506  0.27388  0.73722  1.0000
  O   O16       1.0  0.36366  0.29778  0.61922  1.0000
  O   O17       1.0  0.56859  0.25026  0.84653  1.0000
  O   O18       1.0  0.73632  0.24313  0.9111099999999999  1.0000
  O   O19       1.0  0.44795  0.39326  0.9063799999999999  1.0000
  O   O20       1.0  0.60622  0.38936  0.97834  1.0000
  O   O21       1.0  0.22408999999999998  0.41302  0.83952  1.0000
  O   O22       1.0  0.03983999999999998  0.43674  0.9038  1.0000
  O   O23       1.0  0.29598  0.25905  0.8861999999999999  1.0000
  O   O24       1.0  0.1104  0.26992  0.94683  1.0000
  O   O25       1.0  0.08539999999999996  0.22280000000000005  0.10076  1.0000
  O   O26       1.0  0.92089  0.22006  0.03582  1.0000
  O   O27       1.0  0.19874  0.06813  0.06374  1.0000
  O   O28       1.0  0.060149999999999954  0.06727  0.9819  1.0000
  O   O29       1.0  0.35630999999999996  0.19876000000000005  0.05389  1.0000
  O   O30       1.0  0.53925  0.16773  0.98895  1.0000
  O   O31       1.0  0.41791  0.05911  0.12586  1.0000
  O   O32       1.0  0.61228  0.02391  0.07142  1.0000
  O   O33       1.0  0.18749999999999997  0.09479  0.21306000000000003  1.0000
  O   O34       1.0  0.16351999999999994  0.09831  0.33155  1.0000
  O   O35       1.0  0.27843999999999997  0.22663  0.20728999999999997  1.0000
  O   O36       1.0  0.24905  0.24452  0.32605  1.0000
  O   O37       1.0  0.6723399999999999  0.19461  0.23344  1.0000
  O   O38       1.0  0.70227  0.18301  0.11467  1.0000
  O   O39       1.0  0.8666499999999999  0.06761  0.254  1.0000
  O   O40       1.0  0.92573  0.0596  0.13828999999999997  1.0000
  O   O41       1.0  0.61409  0.07033000000000003  0.34651  1.0000
  O   O42       1.0  0.42482999999999993  0.07184  0.40028  1.0000
  O   O43       1.0  0.59176  0.22573  0.37915  1.0000
  O   O44       1.0  0.41513999999999995  0.2334  0.44647000000000003  1.0000
  O   O45       1.0  0.8305900000000002  0.22987  0.33737  1.0000
  O   O46       1.0  0.9825  0.25852000000000014  0.40001  1.0000
  O   O47       1.0  0.84378  0.08837000000000003  0.40656  1.0000
  O   O48       1.0  0.99328  0.11078000000000003  0.4751699999999999  1.0000
  O   O49       1.0  0.28464999999999985  0.3975100000000001  0.33925  1.0000
  O   O50       1.0  0.57517  0.38467  0.35758  1.0000
  O   O51       1.0  0.68587  0.08075  0.83928  1.0000
  O   O52       1.0  0.9886099999999999  0.12088  0.84357  1.0000
  O   O53       1.0  0.76858  0.4378200000000001  0.56718  1.0000
  O   O54       1.0  0.6241499999999998  0.4365  0.48921  1.0000
  O   O55       1.0  0.7876099999999999  0.28108  0.60339  1.0000
  O   O56       1.0  0.6310299999999999  0.2741  0.53255  1.0000
  O   O57       1.0  0.030219999999999966  0.30594  0.56169  1.0000
  O   O58       1.0  0.17957  0.34074  0.49235  1.0000
  O   O59       1.0  0.9856  0.44787  0.63245  1.0000
  O   O60       1.0  0.16745999999999997  0.47233000000000014  0.58572  1.0000
  O   O61       1.0  0.76934  0.42473  0.71572  1.0000
  O   O62       1.0  0.7509899999999999  0.4310200000000001  0.83468  1.0000
  O   O63       1.0  0.9508999999999997  0.28607  0.71673  1.0000
  O   O64       1.0  0.9455199999999999  0.28596  0.83611  1.0000
  O   O65       1.0  0.5396799999999999  0.59475  0.24349  1.0000
  O   O66       1.0  0.52109  0.57061  0.3603199999999999  1.0000
  O   O67       1.0  0.6249399999999999  0.72611  0.26278  1.0000
  O   O68       1.0  0.63634  0.70222  0.38078  1.0000
  O   O69       1.0  0.4314099999999997  0.7497400000000002  0.15347  1.0000
  O   O70       1.0  0.26367999999999997  0.75686  0.08889  1.0000
  O   O71       1.0  0.5520500000000002  0.60674  0.09362  1.0000
  O   O72       1.0  0.3937799999999999  0.61063  0.02166  1.0000
  O   O73       1.0  0.77591  0.58698  0.16048  1.0000
  O   O74       1.0  0.96015  0.56326  0.09621  1.0000
  O   O75       1.0  0.7040199999999998  0.74095  0.1138  1.0000
  O   O76       1.0  0.8896  0.73008  0.05318  1.0000
  O   O77       1.0  0.9146  0.77719  0.89924  1.0000
  O   O78       1.0  0.07910999999999997  0.77993  0.96418  1.0000
  O   O79       1.0  0.8012599999999996  0.93187  0.93626  1.0000
  O   O80       1.0  0.93985  0.93272  0.0181  1.0000
  O   O81       1.0  0.64369  0.80123  0.94611  1.0000
  O   O82       1.0  0.46075000000000005  0.83226  0.01105  1.0000
  O   O83       1.0  0.58209  0.94088  0.87415  1.0000
  O   O84       1.0  0.38772  0.97608  0.92858  1.0000
  O   O85       1.0  0.8124999999999998  0.9052  0.78694  1.0000
  O   O86       1.0  0.8364799999999999  0.90169  0.66845  1.0000
  O   O87       1.0  0.7215600000000002  0.77337  0.7927099999999999  1.0000
  O   O88       1.0  0.7509499999999998  0.75547  0.67395  1.0000
  O   O89       1.0  0.32766  0.80538  0.76656  1.0000
  O   O90       1.0  0.29773  0.81698  0.88533  1.0000
  O   O91       1.0  0.13334999999999997  0.93239  0.746  1.0000
  O   O92       1.0  0.07427  0.94039  0.86171  1.0000
  O   O93       1.0  0.38591  0.92967  0.6535  1.0000
  O   O94       1.0  0.57517  0.92815  0.5997199999999999  1.0000
  O   O95       1.0  0.40823  0.77426  0.62086  1.0000
  O   O96       1.0  0.58486  0.7666  0.55353  1.0000
  O   O97       1.0  0.16940999999999998  0.77012  0.66263  1.0000
  O   O98       1.0  0.017499999999999915  0.7414800000000003  0.59999  1.0000
  O   O99       1.0  0.15622  0.91162  0.59344  1.0000
  O   O100      1.0  0.006720000000000062  0.88922  0.52483  1.0000
  O   O101      1.0  0.71535  0.60249  0.66075  1.0000
  O   O102      1.0  0.42483000000000004  0.61533  0.64242  1.0000
  O   O103      1.0  0.31412999999999985  0.9192500000000002  0.16072  1.0000
  O   O104      1.0  0.011389999999999994  0.87912  0.15643  1.0000
