data_image0
_chemical_formula_structural       Zn4H56C76N8O20
_chemical_formula_sum              "Zn4 H56 C76 N8 O20"
_cell_length_a       9.46026
_cell_length_b       9.440329999999998
_cell_length_c       24.1631
_cell_angle_alpha    83.99183
_cell_angle_beta     83.97964
_cell_angle_gamma    65.12028

_space_group_name_H-M_alt    "P 1"
_space_group_IT_number       1

loop_
  _space_group_symop_operation_xyz
  'x, y, z'

loop_
  _atom_site_type_symbol
  _atom_site_label
  _atom_site_symmetry_multiplicity
  _atom_site_fract_x
  _atom_site_fract_y
  _atom_site_fract_z
  _atom_site_occupancy
  Zn  Zn1       1.0  0.4911899999999996  0.75252  0.9369100000000001  1.0000
  Zn  Zn2       1.0  0.7530700000000005  0.49097999999999986  0.43562000000000006  1.0000
  Zn  Zn3       1.0  0.24693  0.50902  0.56438  1.0000
  Zn  Zn4       1.0  0.50882  0.24747999999999998  0.06308  1.0000
  H   H1        1.0  0.7307299999999999  0.8807900000000001  0.57381  1.0000
  H   H2        1.0  0.5792199999999998  0.29278  0.9034700000000001  1.0000
  H   H3        1.0  0.28952000000000006  0.5557  0.76985  1.0000
  H   H4        1.0  0.37783  0.06957000000000002  0.81098  1.0000
  H   H5        1.0  0.22461999999999993  0.9389  0.63756  1.0000
  H   H6        1.0  0.4219800000000002  0.6740199999999997  0.48385  1.0000
  H   H7        1.0  0.10923  0.3142  0.75875  1.0000
  H   H8        1.0  0.17892000000000005  0.44061999999999996  0.71608  1.0000
  H   H9        1.0  0.47856000000000015  0.26589  0.68606  1.0000
  H   H10       1.0  0.10659000000000005  0.1369299999999999  0.70918  1.0000
  H   H11       1.0  0.28798000000000007  0.85522  0.55456  1.0000
  H   H12       1.0  0.60196  0.08993999999999999  0.60904  1.0000
  H   H13       1.0  0.8455000000000004  0.6992599999999999  0.49811  1.0000
  H   H14       1.0  0.30277999999999994  0.88318  0.00787  1.0000
  H   H15       1.0  0.88109  0.73089  0.07396  1.0000
  H   H16       1.0  0.29346000000000017  0.5788999999999997  0.4035  1.0000
  H   H17       1.0  0.55523  0.28929  0.26962  1.0000
  H   H18       1.0  0.07015999999999997  0.37757  0.31109  1.0000
  H   H19       1.0  0.9392900000000001  0.22386  0.13775  1.0000
  H   H20       1.0  0.67455  0.42149000000000003  0.98403  1.0000
  H   H21       1.0  0.31388  0.10871999999999998  0.25887  1.0000
  H   H22       1.0  0.44011000000000006  0.17821  0.21603  1.0000
  H   H23       1.0  0.26599999999999996  0.47839  0.18586000000000003  1.0000
  H   H24       1.0  0.13686  0.10588999999999996  0.2094  1.0000
  H   H25       1.0  0.85602  0.28682  0.0546  1.0000
  H   H26       1.0  0.09036000000000008  0.6017599999999997  0.10890000000000001  1.0000
  H   H27       1.0  0.6994099999999999  0.8459700000000001  0.99834  1.0000
  H   H28       1.0  0.8841300000000001  0.30186  0.50636  1.0000
  H   H29       1.0  0.11891  0.2691199999999999  0.9260400000000002  1.0000
  H   H30       1.0  0.7065299999999999  0.42111000000000004  0.5965  1.0000
  H   H31       1.0  0.4447699999999997  0.71071  0.73038  1.0000
  H   H32       1.0  0.92983  0.62243  0.6889  1.0000
  H   H33       1.0  0.06071000000000004  0.77614  0.86224  1.0000
  H   H34       1.0  0.32545  0.57851  0.01597  1.0000
  H   H35       1.0  0.68611  0.8912799999999999  0.74112  1.0000
  H   H36       1.0  0.5598800000000002  0.82179  0.78397  1.0000
  H   H37       1.0  0.7339900000000003  0.52161  0.81414  1.0000
  H   H38       1.0  0.8631399999999999  0.89412  0.7906000000000001  1.0000
  H   H39       1.0  0.14398000000000005  0.71319  0.94539  1.0000
  H   H40       1.0  0.9096400000000001  0.39824000000000004  0.8911  1.0000
  H   H41       1.0  0.30058000000000007  0.15403  0.00166  1.0000
  H   H42       1.0  0.11586999999999997  0.69813  0.4936400000000001  1.0000
  H   H43       1.0  0.26926  0.11920999999999998  0.42619  1.0000
  H   H44       1.0  0.42077  0.70722  0.09653  1.0000
  H   H45       1.0  0.71048  0.4442999999999999  0.23015  1.0000
  H   H46       1.0  0.6221700000000002  0.93044  0.18901  1.0000
  H   H47       1.0  0.77537  0.06109999999999999  0.36244  1.0000
  H   H48       1.0  0.57801  0.32599  0.51615  1.0000
  H   H49       1.0  0.8907700000000001  0.68581  0.24124000000000007  1.0000
  H   H50       1.0  0.8210700000000001  0.55939  0.28392  1.0000
  H   H51       1.0  0.5214300000000004  0.73411  0.31394  1.0000
  H   H52       1.0  0.8934000000000001  0.86308  0.29082  1.0000
  H   H53       1.0  0.71202  0.14478  0.44544000000000006  1.0000
  H   H54       1.0  0.39804000000000034  0.9100599999999996  0.39095  1.0000
  H   H55       1.0  0.15450000000000003  0.3007399999999999  0.50189  1.0000
  H   H56       1.0  0.69719  0.11681999999999997  0.9921100000000002  1.0000
  C   C1        1.0  0.32183  0.31459  0.78483  1.0000
  C   C2        1.0  0.6560000000000002  0.84129  0.55456  1.0000
  C   C3        1.0  0.51012  0.29885999999999996  0.8693300000000002  1.0000
  C   C4        1.0  0.4911699999999999  0.16515999999999995  0.8586100000000001  1.0000
  C   C5        1.0  0.42439  0.9974000000000001  0.61611  1.0000
  C   C6        1.0  0.34372000000000014  0.44673999999999997  0.79518  1.0000
  C   C7        1.0  0.39508000000000004  0.17397  0.81687  1.0000
  C   C8        1.0  0.28259000000000006  0.012230000000000012  0.64552  1.0000
  C   C9        1.0  0.48767000000000005  0.72281  0.50396  1.0000
  C   C10       1.0  0.49701  0.8884599999999999  0.57164  1.0000
  C   C11       1.0  0.21452000000000004  0.32777999999999996  0.74072  1.0000
  C   C12       1.0  0.4280100000000001  0.19159999999999988  0.6731800000000001  1.0000
  C   C13       1.0  0.4412  0.58841  0.85362  1.0000
  C   C14       1.0  0.5635000000000001  0.016510000000000004  0.89515  1.0000
  C   C15       1.0  0.4349100000000001  0.4404799999999999  0.83834  1.0000
  C   C16       1.0  0.21741  0.11802000000000001  0.68625  1.0000
  C   C17       1.0  0.41172  0.8272499999999998  0.54512  1.0000
  C   C18       1.0  0.49534  0.09114  0.63112  1.0000
  C   C19       1.0  0.72316  0.73715  0.513  1.0000
  C   C20       1.0  0.31455000000000005  0.32163  0.2848  1.0000
  C   C21       1.0  0.8416700000000001  0.65597  0.05472  1.0000
  C   C22       1.0  0.29911  0.50982  0.36936  1.0000
  C   C23       1.0  0.16545000000000007  0.49134999999999995  0.35866  1.0000
  C   C24       1.0  0.99771  0.42398  0.11618  1.0000
  C   C25       1.0  0.44662  0.34334000000000003  0.29506  1.0000
  C   C26       1.0  0.17432000000000006  0.3949399999999999  0.31693  1.0000
  C   C27       1.0  0.01246  0.282  0.14567  1.0000
  C   C28       1.0  0.7234000000000002  0.48710999999999993  0.0042  1.0000
  C   C29       1.0  0.8888700000000002  0.49656  0.07176  1.0000
  C   C30       1.0  0.32754999999999995  0.21406  0.24071  1.0000
  C   C31       1.0  0.19171000000000002  0.42774  0.17311  1.0000
  C   C32       1.0  0.58747  0.44148  0.35368  1.0000
  C   C33       1.0  0.016850000000000004  0.56452  0.39505  1.0000
  C   C34       1.0  0.4403500000000001  0.43450999999999995  0.33831  1.0000
  C   C35       1.0  0.11805999999999994  0.21682999999999997  0.18638  1.0000
  C   C36       1.0  0.8278700000000001  0.41092  0.04525  1.0000
  C   C37       1.0  0.09138000000000002  0.49509  0.13107  1.0000
  C   C38       1.0  0.73754  0.72333  0.01326  1.0000
  C   C39       1.0  0.6854399999999999  0.67837  0.71519  1.0000
  C   C40       1.0  0.15832999999999997  0.34402999999999995  0.9452800000000001  1.0000
  C   C41       1.0  0.70089  0.49018  0.63064  1.0000
  C   C42       1.0  0.8345500000000001  0.5086599999999997  0.64134  1.0000
  C   C43       1.0  0.0022799999999999565  0.57603  0.88382  1.0000
  C   C44       1.0  0.5533800000000001  0.65666  0.70494  1.0000
  C   C45       1.0  0.8256799999999999  0.60506  0.68307  1.0000
  C   C46       1.0  0.98754  0.71801  0.85433  1.0000
  C   C47       1.0  0.2766  0.51289  0.9958000000000001  1.0000
  C   C48       1.0  0.11113000000000006  0.5034399999999999  0.92824  1.0000
  C   C49       1.0  0.6724500000000002  0.7859399999999997  0.75928  1.0000
  C   C50       1.0  0.8082899999999998  0.57226  0.82689  1.0000
  C   C51       1.0  0.41253000000000006  0.55853  0.64632  1.0000
  C   C52       1.0  0.98315  0.43548000000000003  0.60495  1.0000
  C   C53       1.0  0.5596499999999999  0.56549  0.66168  1.0000
  C   C54       1.0  0.88194  0.7831799999999999  0.81362  1.0000
  C   C55       1.0  0.17213000000000003  0.58908  0.95475  1.0000
  C   C56       1.0  0.90862  0.50491  0.86892  1.0000
  C   C57       1.0  0.26245  0.27667  0.98674  1.0000
  C   C58       1.0  0.67817  0.68541  0.21516000000000002  1.0000
  C   C59       1.0  0.344  0.15870999999999993  0.44544000000000006  1.0000
  C   C60       1.0  0.48988  0.7011399999999998  0.13067  1.0000
  C   C61       1.0  0.50883  0.83484  0.14139  1.0000
  C   C62       1.0  0.57561  0.0026000000000000016  0.38389  1.0000
  C   C63       1.0  0.6562700000000002  0.5532599999999998  0.20482  1.0000
  C   C64       1.0  0.60491  0.82604  0.18313  1.0000
  C   C65       1.0  0.71741  0.98777  0.3544800000000001  1.0000
  C   C66       1.0  0.51233  0.27719  0.49604  1.0000
  C   C67       1.0  0.50299  0.11154  0.42836  1.0000
  C   C68       1.0  0.78547  0.6722299999999999  0.25928  1.0000
  C   C69       1.0  0.5719899999999998  0.8084  0.32681  1.0000
  C   C70       1.0  0.5588  0.41159  0.14638  1.0000
  C   C71       1.0  0.43650000000000017  0.9834899999999999  0.10485  1.0000
  C   C72       1.0  0.5650800000000001  0.5595199999999998  0.16166  1.0000
  C   C73       1.0  0.78258  0.88198  0.31375  1.0000
  C   C74       1.0  0.58828  0.17276  0.45488  1.0000
  C   C75       1.0  0.5046500000000002  0.90886  0.36888  1.0000
  C   C76       1.0  0.2768400000000001  0.26285  0.48699  1.0000
  N   N1        1.0  0.6403900000000001  0.6783599999999999  0.48791000000000007  1.0000
  N   N2        1.0  0.29016  0.20529  0.69989  1.0000
  N   N3        1.0  0.67881  0.64025  0.98828  1.0000
  N   N4        1.0  0.20530000000000007  0.2897  0.1999  1.0000
  N   N5        1.0  0.3211800000000001  0.35975999999999997  0.01172  1.0000
  N   N6        1.0  0.7946899999999999  0.7103  0.8001  1.0000
  N   N7        1.0  0.35961000000000004  0.32164  0.51209  1.0000
  N   N8        1.0  0.7098400000000001  0.79472  0.30011  1.0000
  O   O1        1.0  0.5312900000000003  0.5675500000000001  0.89363  1.0000
  O   O2        1.0  0.5429600000000001  0.8989499999999999  0.8805000000000001  1.0000
  O   O3        1.0  0.6348600000000001  0.01653000000000001  0.93594  1.0000
  O   O4        1.0  0.36174  0.7165  0.8287  1.0000
  O   O5        1.0  0.29518999999999995  0.8306699999999999  0.97636  1.0000
  O   O6        1.0  0.5659400000000001  0.5322999999999999  0.39361000000000007  1.0000
  O   O7        1.0  0.8996900000000002  0.5435699999999998  0.38034000000000007  1.0000
  O   O8        1.0  0.01664  0.63663  0.43567  1.0000
  O   O9        1.0  0.7158100000000002  0.3620099999999999  0.32902  1.0000
  O   O10       1.0  0.8305100000000001  0.29446  0.47517  1.0000
  O   O11       1.0  0.43406  0.4677  0.60639  1.0000
  O   O12       1.0  0.10031000000000001  0.45643  0.61966  1.0000
  O   O13       1.0  0.9833600000000001  0.36337  0.56433  1.0000
  O   O14       1.0  0.2841800000000001  0.6379899999999998  0.67098  1.0000
  O   O15       1.0  0.16948  0.70554  0.52483  1.0000
  O   O16       1.0  0.4687100000000001  0.4324499999999999  0.10636000000000001  1.0000
  O   O17       1.0  0.45704  0.10106000000000001  0.1195  1.0000
  O   O18       1.0  0.3651400000000001  0.9834699999999998  0.06406  1.0000
  O   O19       1.0  0.63825  0.2835  0.17129000000000003  1.0000
  O   O20       1.0  0.70478  0.16937  0.02361  1.0000
