data_image0
_chemical_formula_structural       Zn8H60C100N12O32
_chemical_formula_sum              "Zn8 H60 C100 N12 O32"
_cell_length_a       10.89114
_cell_length_b       16.715760000000003
_cell_length_c       18.17827
_cell_angle_alpha    117.40569
_cell_angle_beta     107.52049
_cell_angle_gamma    89.98629

_space_group_name_H-M_alt    "P 1"
_space_group_IT_number       1

loop_
  _space_group_symop_operation_xyz
  'x, y, z'

loop_
  _atom_site_type_symbol
  _atom_site_label
  _atom_site_symmetry_multiplicity
  _atom_site_fract_x
  _atom_site_fract_y
  _atom_site_fract_z
  _atom_site_occupancy
  Zn  Zn1       1.0  0.5750400000000001  0.5634800000000001  0.35194000000000003  1.0000
  Zn  Zn2       1.0  0.6126599999999998  0.37088  0.84275  1.0000
  Zn  Zn3       1.0  0.4259  0.21059000000000003  0.64811  1.0000
  Zn  Zn4       1.0  0.38578  0.52765  0.15647  1.0000
  Zn  Zn5       1.0  0.77783  0.06328999999999996  0.35189  1.0000
  Zn  Zn6       1.0  0.23066000000000006  0.87052  0.8425800000000002  1.0000
  Zn  Zn7       1.0  0.2222  0.71058  0.64826  1.0000
  Zn  Zn8       1.0  0.7701299999999999  0.02705000000000003  0.15650000000000006  1.0000
  H   H1        1.0  0.75187  0.8099400000000001  0.3053700000000001  1.0000
  H   H2        1.0  0.73314  0.73595  0.04076000000000001  1.0000
  H   H3        1.0  0.62993  0.52981  0.09941  1.0000
  H   H4        1.0  0.9550299999999998  0.35972  0.36158  1.0000
  H   H5        1.0  0.7537099999999999  0.3954  0.24877  1.0000
  H   H6        1.0  0.92704  0.6243899999999999  0.64168  1.0000
  H   H7        1.0  0.83278  0.74173  0.74282  1.0000
  H   H8        1.0  0.61598  0.78173  0.67958  1.0000
  H   H9        1.0  0.50856  0.70078  0.51552  1.0000
  H   H10       1.0  0.044960000000000014  0.41565999999999986  0.51502  1.0000
  H   H11       1.0  0.04202000000000001  0.53043  0.58735  1.0000
  H   H12       1.0  0.008240000000000008  0.5298299999999999  0.71179  1.0000
  H   H13       1.0  0.87267  0.4758500000000001  0.7742200000000002  1.0000
  H   H14       1.0  0.63806  0.2746  0.51208  1.0000
  H   H15       1.0  0.7697699999999998  0.32622  0.44979  1.0000
  H   H16       1.0  0.24913000000000005  0.5058  0.6953800000000001  1.0000
  H   H17       1.0  0.26625  0.69498  0.96022  1.0000
  H   H18       1.0  0.37121  0.43033  0.90021  1.0000
  H   H19       1.0  0.04467000000000008  0.99747  0.6378800000000002  1.0000
  H   H20       1.0  0.24549999999999994  0.14633  0.75121  1.0000
  H   H21       1.0  0.07225  0.98311  0.35842  1.0000
  H   H22       1.0  0.16624  0.9994299999999999  0.25738  1.0000
  H   H23       1.0  0.3838999999999999  0.10192  0.32053  1.0000
  H   H24       1.0  0.49161999999999995  0.18483999999999998  0.48451  1.0000
  H   H25       1.0  0.9547299999999997  0.90072  0.48491  1.0000
  H   H26       1.0  0.95754  0.94293  0.41247  1.0000
  H   H27       1.0  0.9918099999999997  0.8183899999999997  0.28865000000000013  1.0000
  H   H28       1.0  0.12747  0.7019299999999998  0.22609  1.0000
  H   H29       1.0  0.36247  0.76319  0.48824  1.0000
  H   H30       1.0  0.23004000000000002  0.87682  0.55045  1.0000
  H   H31       1.0  0.5539599999999999  0.30999  0.3054  1.0000
  H   H32       1.0  0.30771999999999994  0.23627  0.04089  1.0000
  H   H33       1.0  0.46951  0.0298  0.09938  1.0000
  H   H34       1.0  0.40594  0.8598099999999997  0.36090000000000005  1.0000
  H   H35       1.0  0.49518000000000006  0.8949299999999998  0.24834000000000006  1.0000
  H   H36       1.0  0.7146499999999997  0.12438999999999993  0.64137  1.0000
  H   H37       1.0  0.9103200000000001  0.24190000000000011  0.7427300000000002  1.0000
  H   H38       1.0  0.06398  0.28199  0.67982  1.0000
  H   H39       1.0  0.007399999999999988  0.20102999999999993  0.51595  1.0000
  H   H40       1.0  0.4692099999999999  0.9161499999999999  0.51455  1.0000
  H   H41       1.0  0.54485  0.03071000000000001  0.58682  1.0000
  H   H42       1.0  0.7034999999999999  0.029819999999999985  0.71123  1.0000
  H   H43       1.0  0.901  0.97532  0.7737600000000002  1.0000
  H   H44       1.0  0.8728399999999998  0.7743400000000001  0.51151  1.0000
  H   H45       1.0  0.67927  0.8266  0.44941  1.0000
  H   H46       1.0  0.44575  0.005820000000000001  0.69536  1.0000
  H   H47       1.0  0.69448  0.19494  0.96021  1.0000
  H   H48       1.0  0.5288699999999998  0.9303  0.90006  1.0000
  H   H49       1.0  0.59368  0.49778000000000017  0.6382300000000002  1.0000
  H   H50       1.0  0.50592  0.6461299999999998  0.7515  1.0000
  H   H51       1.0  0.28640999999999994  0.48346  0.35881  1.0000
  H   H52       1.0  0.09116  0.49974999999999997  0.25743  1.0000
  H   H53       1.0  0.9363599999999999  0.60188  0.32018  1.0000
  H   H54       1.0  0.9923099999999995  0.68455  0.484  1.0000
  H   H55       1.0  0.53047  0.4011999999999998  0.48533  1.0000
  H   H56       1.0  0.45508  0.44324  0.4128  1.0000
  H   H57       1.0  0.29676  0.31861999999999996  0.289  1.0000
  H   H58       1.0  0.09835999999999998  0.20172  0.22618  1.0000
  H   H59       1.0  0.12626000000000007  0.26314  0.48826000000000014  1.0000
  H   H60       1.0  0.32076  0.37709  0.55051  1.0000
  C   C1        1.0  0.7319699999999998  0.7585799999999999  0.23711  1.0000
  C   C2        1.0  0.7490199999999999  0.78363  0.17668  1.0000
  C   C3        1.0  0.72287  0.71672  0.08848  1.0000
  C   C4        1.0  0.68353  0.62508  0.06145  1.0000
  C   C5        1.0  0.66335  0.60099  0.12168000000000002  1.0000
  C   C6        1.0  0.6857999999999999  0.6674999999999998  0.209  1.0000
  C   C7        1.0  0.6606700000000001  0.5521700000000002  0.9680200000000002  1.0000
  C   C8        1.0  0.66232  0.6415  0.27205  1.0000
  C   C9        1.0  0.78931  0.8818  0.20492  1.0000
  C   C10       1.0  0.89002  0.4096  0.37501  1.0000
  C   C11       1.0  0.79064  0.42825  0.32007  1.0000
  C   C12       1.0  0.80336  0.5239  0.4555  1.0000
  C   C13       1.0  0.7634999999999997  0.59556  0.52447  1.0000
  C   C14       1.0  0.83211  0.63944  0.61523  1.0000
  C   C15       1.0  0.77939  0.70654  0.67227  1.0000
  C   C16       1.0  0.66053  0.72944  0.63807  1.0000
  C   C17       1.0  0.5992999999999999  0.68477  0.5470500000000001  1.0000
  C   C18       1.0  0.9799400000000001  0.4645300000000001  0.5380400000000002  1.0000
  C   C19       1.0  0.89863  0.43239999999999995  0.5767  1.0000
  C   C20       1.0  0.92699  0.47395000000000004  0.6681  1.0000
  C   C21       1.0  0.8518499999999998  0.444  0.70344  1.0000
  C   C22       1.0  0.7465700000000002  0.3721100000000001  0.6474500000000002  1.0000
  C   C23       1.0  0.71809  0.33107  0.55613  1.0000
  C   C24       1.0  0.7935699999999999  0.36056  0.52094  1.0000
  C   C25       1.0  0.66654  0.3392300000000001  0.6851300000000002  1.0000
  C   C26       1.0  0.2689000000000001  0.5223099999999999  0.7635200000000002  1.0000
  C   C27       1.0  0.25159  0.6076599999999998  0.82421  1.0000
  C   C28       1.0  0.27726  0.62839  0.91223  1.0000
  C   C29       1.0  0.31698999999999994  0.56343  0.93875  1.0000
  C   C30       1.0  0.33754  0.47938  0.87823  1.0000
  C   C31       1.0  0.315  0.4589000000000001  0.7910100000000002  1.0000
  C   C32       1.0  0.33949999999999997  0.58288  0.03179  1.0000
  C   C33       1.0  0.33772  0.36966  0.72729  1.0000
  C   C34       1.0  0.2113899999999999  0.67754  0.79582  1.0000
  C   C35       1.0  0.10956000000000002  0.03436999999999998  0.6248  1.0000
  C   C36       1.0  0.2090500000000001  0.10787000000000009  0.6799100000000002  1.0000
  C   C37       1.0  0.19654000000000002  0.06836  0.5446  1.0000
  C   C38       1.0  0.23630000000000004  0.07111000000000005  0.47566000000000014  1.0000
  C   C39       1.0  0.16732000000000002  0.024480000000000036  0.3849100000000001  1.0000
  C   C40       1.0  0.21998999999999994  0.03455  0.32789  1.0000
  C   C41       1.0  0.33917  0.09129999999999998  0.36203  1.0000
  C   C42       1.0  0.4006899999999999  0.13748000000000002  0.45302  1.0000
  C   C43       1.0  0.01971999999999998  0.9265399999999998  0.46191  1.0000
  C   C44       1.0  0.10126999999999997  0.8558200000000001  0.42352  1.0000
  C   C45       1.0  0.07306000000000001  0.8060799999999999  0.33219  1.0000
  C   C46       1.0  0.1484  0.74094  0.29685  1.0000
  C   C47       1.0  0.2539  0.7251999999999997  0.3528  1.0000
  C   C48       1.0  0.28231  0.7754599999999997  0.44414  1.0000
  C   C49       1.0  0.20643999999999998  0.8399  0.47931  1.0000
  C   C50       1.0  0.33381  0.65456  0.31494  1.0000
  C   C51       1.0  0.50551  0.25854  0.23713  1.0000
  C   C52       1.0  0.42791999999999997  0.28364  0.17667  1.0000
  C   C53       1.0  0.36565999999999993  0.21679  0.08845  1.0000
  C   C54       1.0  0.3781899999999999  0.12514  0.06124000000000002  1.0000
  C   C55       1.0  0.45837  0.10098  0.1216  1.0000
  C   C56       1.0  0.52322  0.16741  0.20906  1.0000
  C   C57       1.0  0.30912  0.05231999999999998  0.96743  1.0000
  C   C58       1.0  0.6101799999999998  0.14138000000000006  0.2721400000000001  1.0000
  C   C59       1.0  0.4170899999999999  0.38201000000000007  0.20505000000000007  1.0000
  C   C60       1.0  0.48455  0.9096799999999997  0.37447  1.0000
  C   C61       1.0  0.52944  0.92802  0.31964  1.0000
  C   C62       1.0  0.6521  0.023920000000000007  0.45515  1.0000
  C   C63       1.0  0.7609599999999999  0.09567999999999996  0.52431  1.0000
  C   C64       1.0  0.7830800000000001  0.13958000000000012  0.6150400000000003  1.0000
  C   C65       1.0  0.8930099999999997  0.20671999999999993  0.67221  1.0000
  C   C66       1.0  0.9777699999999999  0.22969000000000012  0.6382300000000002  1.0000
  C   C67       1.0  0.9480299999999998  0.18496000000000004  0.54726  1.0000
  C   C68       1.0  0.55756  0.9648099999999998  0.53754  1.0000
  C   C69       1.0  0.6774600000000001  0.9324199999999999  0.5762300000000002  1.0000
  C   C70       1.0  0.7406899999999998  0.9737499999999999  0.66761  1.0000
  C   C71       1.0  0.85103  0.94353  0.70296  1.0000
  C   C72       1.0  0.9002099999999997  0.87163  0.64706  1.0000
  C   C73       1.0  0.83716  0.83077  0.55571  1.0000
  C   C74       1.0  0.7266099999999999  0.8605499999999998  0.52056  1.0000
  C   C75       1.0  0.018170000000000134  0.8388600000000002  0.6848800000000003  1.0000
  C   C76       1.0  0.49434  0.022260000000000023  0.76349  1.0000
  C   C77       1.0  0.57252  0.10757000000000001  0.82417  1.0000
  C   C78       1.0  0.6353299999999998  0.12836000000000003  0.91219  1.0000
  C   C79       1.0  0.6222300000000001  0.06353000000000013  0.9388300000000003  1.0000
  C   C80       1.0  0.5410699999999999  0.9794599999999999  0.8783200000000001  1.0000
  C   C81       1.0  0.4761600000000002  0.95894  0.7911200000000003  1.0000
  C   C82       1.0  0.69239  0.08327  0.03203  1.0000
  C   C83       1.0  0.38954999999999995  0.8697299999999998  0.7277  1.0000
  C   C84       1.0  0.58323  0.17743000000000006  0.7957  1.0000
  C   C85       1.0  0.51555  0.5346  0.62511  1.0000
  C   C86       1.0  0.4709599999999999  0.6078199999999998  0.6802  1.0000
  C   C87       1.0  0.3479699999999999  0.56849  0.54484  1.0000
  C   C88       1.0  0.23927999999999994  0.57126  0.47577  1.0000
  C   C89       1.0  0.21770000000000003  0.52475  0.3850900000000001  1.0000
  C   C90       1.0  0.10792000000000003  0.53477  0.32789  1.0000
  C   C91       1.0  0.022680000000000016  0.59132  0.36181  1.0000
  C   C92       1.0  0.052020000000000004  0.63738  0.45277  1.0000
  C   C93       1.0  0.4423  0.42691000000000007  0.46220000000000006  1.0000
  C   C94       1.0  0.32232  0.3560400000000001  0.4236700000000001  1.0000
  C   C95       1.0  0.25901  0.30607  0.33233000000000007  1.0000
  C   C96       1.0  0.14839000000000002  0.24073  0.2969700000000001  1.0000
  C   C97       1.0  0.09913999999999999  0.22507  0.353  1.0000
  C   C98       1.0  0.16236  0.27543  0.44429  1.0000
  C   C99       1.0  0.2732399999999999  0.34002999999999994  0.4794000000000001  1.0000
  C   C100      1.0  0.9812999999999998  0.15457  0.31563  1.0000
  N   N1        1.0  0.8980599999999999  0.47031  0.46034  1.0000
  N   N2        1.0  0.7388299999999999  0.49896  0.3706500000000001  1.0000
  N   N3        1.0  0.6483399999999999  0.61949  0.49158000000000013  1.0000
  N   N4        1.0  0.1015300000000001  0.010040000000000103  0.5395700000000002  1.0000
  N   N5        1.0  0.26120000000000004  0.12809000000000012  0.6295300000000003  1.0000
  N   N6        1.0  0.35168  0.12769999999999995  0.50851  1.0000
  N   N7        1.0  0.56178  0.9705599999999999  0.45988  1.0000
  N   N8        1.0  0.6321799999999999  0.99866  0.37031  1.0000
  N   N9        1.0  0.84344  0.11958999999999996  0.49165  1.0000
  N   N10       1.0  0.43823  0.51037  0.53985  1.0000
  N   N11       1.0  0.36809  0.62797  0.62977  1.0000
  N   N12       1.0  0.15659999999999996  0.62768  0.50843  1.0000
  O   O1        1.0  0.64864  0.4694200000000001  0.95873  1.0000
  O   O2        1.0  0.654  0.57121  0.90875  1.0000
  O   O3        1.0  0.72131  0.6862499999999999  0.35308  1.0000
  O   O4        1.0  0.57781  0.56667  0.23875  1.0000
  O   O5        1.0  0.83522  0.9385900000000001  0.28787  1.0000
  O   O6        1.0  0.77431  0.90212  0.14363  1.0000
  O   O7        1.0  0.56238  0.2823  0.63171  1.0000
  O   O8        1.0  0.71076  0.3715500000000002  0.7686400000000002  1.0000
  O   O9        1.0  0.35129  0.50897  0.04032  1.0000
  O   O10       1.0  0.34608  0.6608799999999999  0.09169000000000002  1.0000
  O   O11       1.0  0.27876  0.33414  0.6464  1.0000
  O   O12       1.0  0.4212999999999999  0.32721  0.76012  1.0000
  O   O13       1.0  0.16485  0.6507999999999998  0.71276  1.0000
  O   O14       1.0  0.2271700000000001  0.7594499999999998  0.8568000000000002  1.0000
  O   O15       1.0  0.4383799999999999  0.65134  0.36818  1.0000
  O   O16       1.0  0.28897  0.6029  0.23151000000000002  1.0000
  O   O17       1.0  0.30876999999999993  0.96966  0.95861  1.0000
  O   O18       1.0  0.26095000000000007  0.07136999999999999  0.90757  1.0000
  O   O19       1.0  0.6336899999999999  0.18634  0.3532700000000001  1.0000
  O   O20       1.0  0.66066  0.06622000000000003  0.23869000000000007  1.0000
  O   O21       1.0  0.4553  0.43842  0.28808  1.0000
  O   O22       1.0  0.3709999999999999  0.40279  0.14405  1.0000
  O   O23       1.0  0.06831999999999998  0.78158  0.6314300000000002  1.0000
  O   O24       1.0  0.058289999999999925  0.8716299999999996  0.76845  1.0000
  O   O25       1.0  0.68958  0.009330000000000003  0.04054  1.0000
  O   O26       1.0  0.74492  0.16145  0.09203  1.0000
  O   O27       1.0  0.36564  0.8345099999999999  0.64666  1.0000
  O   O28       1.0  0.34012000000000003  0.8268599999999998  0.76068  1.0000
  O   O29       1.0  0.54546  0.15040000000000014  0.7125800000000002  1.0000
  O   O30       1.0  0.62852  0.2594  0.85654  1.0000
  O   O31       1.0  0.9308999999999997  0.15151999999999993  0.36928  1.0000
  O   O32       1.0  0.94182  0.10286  0.23223  1.0000
