data_image0
_chemical_formula_structural       Zn8H48C80O28
_chemical_formula_sum              "Zn8 H48 C80 O28"
_cell_length_a       10.26775
_cell_length_b       16.009180000000004
_cell_length_c       23.60787
_cell_angle_alpha    90.0
_cell_angle_beta     90.0
_cell_angle_gamma    89.97636

_space_group_name_H-M_alt    "P 1"
_space_group_IT_number       1

loop_
  _space_group_symop_operation_xyz
  'x, y, z'

loop_
  _atom_site_type_symbol
  _atom_site_label
  _atom_site_symmetry_multiplicity
  _atom_site_fract_x
  _atom_site_fract_y
  _atom_site_fract_z
  _atom_site_occupancy
  Zn  Zn1       1.0  0.60775  0.30859  0.012949999999999996  1.0000
  Zn  Zn2       1.0  0.4120500000000001  0.1361  0.9899699999999998  1.0000
  Zn  Zn3       1.0  0.89224  0.69141  0.5129499999999999  1.0000
  Zn  Zn4       1.0  0.08794  0.8639000000000002  0.4899599999999999  1.0000
  Zn  Zn5       1.0  0.39236  0.80742  0.48685999999999996  1.0000
  Zn  Zn6       1.0  0.58837  0.6355  0.50974  1.0000
  Zn  Zn7       1.0  0.10763  0.19258000000000006  0.98686  1.0000
  Zn  Zn8       1.0  0.9116200000000001  0.3645  0.00974  1.0000
  H   H1        1.0  0.03976  0.10459  0.83139  1.0000
  H   H2        1.0  0.00649  0.05552  0.73229  1.0000
  H   H3        1.0  0.4465100000000001  0.042  0.8219599999999998  1.0000
  H   H4        1.0  0.09393  0.98926  0.64547  1.0000
  H   H5        1.0  0.5009  0.9292900000000002  0.63393  1.0000
  H   H6        1.0  0.5369  0.98248  0.7319299999999997  1.0000
  H   H7        1.0  0.69534  0.08165  0.9745899999999997  1.0000
  H   H8        1.0  0.56016  0.25997  0.8926499999999998  1.0000
  H   H9        1.0  0.55527  0.2647400000000001  0.7878  1.0000
  H   H10       1.0  0.6703  0.15573  0.7314399999999999  1.0000
  H   H11       1.0  0.7936800000000002  0.04331  0.78127  1.0000
  H   H12       1.0  0.80141  0.04037000000000002  0.8862199999999999  1.0000
  H   H13       1.0  0.46024000000000004  0.8954100000000003  0.33139  1.0000
  H   H14       1.0  0.4935  0.94448  0.23228999999999997  1.0000
  H   H15       1.0  0.05348  0.958  0.32195999999999997  1.0000
  H   H16       1.0  0.40606000000000003  0.01074  0.14547  1.0000
  H   H17       1.0  0.99909  0.07072  0.13393  1.0000
  H   H18       1.0  0.9630900000000001  0.01753  0.23192999999999997  1.0000
  H   H19       1.0  0.8046499999999999  0.91835  0.47457999999999995  1.0000
  H   H20       1.0  0.9398300000000002  0.74003  0.39265  1.0000
  H   H21       1.0  0.94472  0.73526  0.2878  1.0000
  H   H22       1.0  0.82969  0.84427  0.23143  1.0000
  H   H23       1.0  0.70631  0.9566900000000003  0.28127  1.0000
  H   H24       1.0  0.69858  0.95963  0.38622  1.0000
  H   H25       1.0  0.9603500000000001  0.60412  0.6683099999999998  1.0000
  H   H26       1.0  0.99308  0.55588  0.76774  1.0000
  H   H27       1.0  0.55381  0.54118  0.6772599999999999  1.0000
  H   H28       1.0  0.90558  0.48969  0.8541399999999998  1.0000
  H   H29       1.0  0.49879  0.42967  0.8658399999999999  1.0000
  H   H30       1.0  0.46257  0.4825800000000001  0.76775  1.0000
  H   H31       1.0  0.30484  0.58124  0.5254999999999999  1.0000
  H   H32       1.0  0.4399700000000001  0.75961  0.6073699999999999  1.0000
  H   H33       1.0  0.44475000000000003  0.76465  0.7122099999999998  1.0000
  H   H34       1.0  0.32962  0.65585  0.7686799999999998  1.0000
  H   H35       1.0  0.20629  0.54337  0.7189399999999999  1.0000
  H   H36       1.0  0.19878000000000004  0.54012  0.61399  1.0000
  H   H37       1.0  0.53964  0.39588  0.16831  1.0000
  H   H38       1.0  0.50691  0.4441200000000001  0.26774  1.0000
  H   H39       1.0  0.94618  0.45882  0.17725999999999995  1.0000
  H   H40       1.0  0.59441  0.51032  0.3541399999999999  1.0000
  H   H41       1.0  0.0012000000000000001  0.57033  0.36584  1.0000
  H   H42       1.0  0.03743  0.51743  0.26774999999999993  1.0000
  H   H43       1.0  0.19516  0.41877  0.0255  1.0000
  H   H44       1.0  0.06003  0.24039  0.10736  1.0000
  H   H45       1.0  0.05525000000000001  0.23535  0.21221  1.0000
  H   H46       1.0  0.17037  0.34416000000000013  0.26868  1.0000
  H   H47       1.0  0.29371  0.45663  0.21894  1.0000
  H   H48       1.0  0.30122  0.45988  0.11398  1.0000
  C   C1        1.0  0.25997  0.10331  0.8920499999999998  1.0000
  C   C2        1.0  0.24509000000000003  0.07435  0.8323399999999997  1.0000
  C   C3        1.0  0.11997999999999999  0.07929  0.80672  1.0000
  C   C4        1.0  0.1021  0.05215  0.75204  1.0000
  C   C5        1.0  0.20775999999999997  0.0191  0.72022  1.0000
  C   C6        1.0  0.33495  0.01597  0.74555  1.0000
  C   C7        1.0  0.35086  0.04391  0.80212  1.0000
  C   C8        1.0  0.19036  0.98831  0.66454  1.0000
  C   C9        1.0  0.29397  0.95551  0.6341199999999999  1.0000
  C   C10       1.0  0.42063  0.9542900000000002  0.65872  1.0000
  C   C11       1.0  0.44027  0.98373  0.7129399999999998  1.0000
  C   C12       1.0  0.27152  0.91863  0.57673  1.0000
  C   C13       1.0  0.81695  0.18907  0.9788999999999998  1.0000
  C   C14       1.0  0.68835  0.1474  0.96108  1.0000
  C   C15       1.0  0.68046  0.14962  0.89639  1.0000
  C   C16       1.0  0.61158  0.21266  0.8683099999999999  1.0000
  C   C17       1.0  0.60856  0.21509  0.8090999999999998  1.0000
  C   C18       1.0  0.67384  0.15429  0.77748  1.0000
  C   C19       1.0  0.7428  0.09118  0.8054299999999999  1.0000
  C   C20       1.0  0.74634  0.08891  0.86458  1.0000
  C   C21       1.0  0.24003  0.89669  0.3920499999999999  1.0000
  C   C22       1.0  0.25491  0.92565  0.33232999999999996  1.0000
  C   C23       1.0  0.38001000000000007  0.92071  0.30671999999999994  1.0000
  C   C24       1.0  0.3978999999999999  0.94785  0.25204  1.0000
  C   C25       1.0  0.29223  0.9809000000000002  0.22021999999999997  1.0000
  C   C26       1.0  0.16505  0.9840400000000002  0.24555  1.0000
  C   C27       1.0  0.14914  0.95609  0.30212  1.0000
  C   C28       1.0  0.30964  0.01169  0.16454  1.0000
  C   C29       1.0  0.20602000000000004  0.04449  0.13412  1.0000
  C   C30       1.0  0.07937  0.04572  0.15871999999999997  1.0000
  C   C31       1.0  0.059730000000000005  0.01627  0.21294  1.0000
  C   C32       1.0  0.22847  0.08137  0.07673  1.0000
  C   C33       1.0  0.68304  0.81094  0.4788999999999999  1.0000
  C   C34       1.0  0.81165  0.8526  0.46108  1.0000
  C   C35       1.0  0.81954  0.85039  0.39639  1.0000
  C   C36       1.0  0.8884200000000001  0.78734  0.3683  1.0000
  C   C37       1.0  0.89143  0.78491  0.3091  1.0000
  C   C38       1.0  0.82615  0.8457100000000002  0.27747999999999995  1.0000
  C   C39       1.0  0.75719  0.90882  0.30543  1.0000
  C   C40       1.0  0.75365  0.91109  0.36458  1.0000
  C   C41       1.0  0.74168  0.60169  0.60736  1.0000
  C   C42       1.0  0.75538  0.5733600000000002  0.66722  1.0000
  C   C43       1.0  0.8802  0.57887  0.69302  1.0000
  C   C44       1.0  0.8977  0.55223  0.7478  1.0000
  C   C45       1.0  0.7917600000000001  0.5193000000000002  0.7794399999999998  1.0000
  C   C46       1.0  0.66465  0.51591  0.7540399999999998  1.0000
  C   C47       1.0  0.64923  0.54326  0.69731  1.0000
  C   C48       1.0  0.8091700000000001  0.48867  0.8350899999999999  1.0000
  C   C49       1.0  0.70563  0.4558800000000001  0.8654599999999999  1.0000
  C   C50       1.0  0.57894  0.4546300000000001  0.84096  1.0000
  C   C51       1.0  0.55924  0.4839  0.78669  1.0000
  C   C52       1.0  0.72891  0.4191300000000001  0.9227499999999998  1.0000
  C   C53       1.0  0.18332  0.6887300000000002  0.52105  1.0000
  C   C54       1.0  0.31187  0.647  0.53898  1.0000
  C   C55       1.0  0.31983  0.64925  0.60368  1.0000
  C   C56       1.0  0.38872  0.7123  0.63174  1.0000
  C   C57       1.0  0.39159000000000005  0.71491  0.69095  1.0000
  C   C58       1.0  0.3262  0.65425  0.7226299999999998  1.0000
  C   C59       1.0  0.25729  0.5911  0.6947199999999998  1.0000
  C   C60       1.0  0.25389  0.58867  0.6355699999999999  1.0000
  C   C61       1.0  0.75831  0.39831  0.10736  1.0000
  C   C62       1.0  0.74461  0.42664  0.16722  1.0000
  C   C63       1.0  0.61979  0.42113  0.19302  1.0000
  C   C64       1.0  0.6023  0.44777  0.2478  1.0000
  C   C65       1.0  0.70823  0.4807  0.27943999999999997  1.0000
  C   C66       1.0  0.8353399999999999  0.4841  0.25404  1.0000
  C   C67       1.0  0.85076  0.45674  0.19731  1.0000
  C   C68       1.0  0.69082  0.51133  0.33509  1.0000
  C   C69       1.0  0.7943599999999998  0.54412  0.36546  1.0000
  C   C70       1.0  0.92106  0.54537  0.34096  1.0000
  C   C71       1.0  0.9407500000000001  0.5161100000000002  0.28668999999999994  1.0000
  C   C72       1.0  0.7710900000000002  0.58088  0.4227499999999999  1.0000
  C   C73       1.0  0.31668  0.31127  0.02105  1.0000
  C   C74       1.0  0.18812  0.3530000000000001  0.03898  1.0000
  C   C75       1.0  0.18016  0.35075  0.10367999999999998  1.0000
  C   C76       1.0  0.11127  0.2877  0.13174  1.0000
  C   C77       1.0  0.1084  0.28509  0.19095  1.0000
  C   C78       1.0  0.17379  0.34575  0.22262999999999997  1.0000
  C   C79       1.0  0.2427  0.40891  0.19472  1.0000
  C   C80       1.0  0.24611  0.41133  0.13556999999999997  1.0000
  O   O1        1.0  0.36846  0.08713  0.9169699999999998  1.0000
  O   O2        1.0  0.16328  0.14163  0.9134699999999998  1.0000
  O   O3        1.0  0.15426  0.92085  0.5575  1.0000
  O   O4        1.0  0.36993  0.88729  0.55162  1.0000
  O   O5        1.0  0.58272  0.18746  0.9887899999999998  1.0000
  O   O6        1.0  0.8048200000000001  0.25841  0.00571  1.0000
  O   O7        1.0  0.92262  0.15444  0.96609  1.0000
  O   O8        1.0  0.13153  0.91287  0.41697  1.0000
  O   O9        1.0  0.33671  0.85837  0.4134699999999999  1.0000
  O   O10       1.0  0.34573  0.07915  0.0575  1.0000
  O   O11       1.0  0.13007  0.11271  0.051619999999999985  1.0000
  O   O12       1.0  0.91727  0.81254  0.48879  1.0000
  O   O13       1.0  0.69518  0.7416  0.50571  1.0000
  O   O14       1.0  0.57737  0.84556  0.46609  1.0000
  O   O15       1.0  0.63568  0.5831  0.58131  1.0000
  O   O16       1.0  0.83727  0.64209  0.58686  1.0000
  O   O17       1.0  0.8471199999999999  0.41991  0.9408999999999998  1.0000
  O   O18       1.0  0.63043  0.38917  0.94864  1.0000
  O   O19       1.0  0.41775  0.68694  0.51135  1.0000
  O   O20       1.0  0.19538000000000003  0.7578700000000003  0.49399  1.0000
  O   O21       1.0  0.07756  0.65431  0.5340199999999999  1.0000
  O   O22       1.0  0.86431  0.4169100000000001  0.08131  1.0000
  O   O23       1.0  0.66272  0.35791  0.08686  1.0000
  O   O24       1.0  0.65287  0.5801  0.4409  1.0000
  O   O25       1.0  0.8695600000000001  0.61083  0.4486399999999999  1.0000
  O   O26       1.0  0.08225  0.3130600000000001  0.011339999999999998  1.0000
  O   O27       1.0  0.30461  0.24213  0.99399  1.0000
  O   O28       1.0  0.42244  0.34569  0.03402  1.0000
