data_image0
_chemical_formula_structural       Mn8H56C104N8O32
_chemical_formula_sum              "Mn8 H56 C104 N8 O32"
_cell_length_a       13.01471
_cell_length_b       14.03038
_cell_length_c       18.48639
_cell_angle_alpha    89.99997
_cell_angle_beta     95.42269
_cell_angle_gamma    89.92875

_space_group_name_H-M_alt    "P 1"
_space_group_IT_number       1

loop_
  _space_group_symop_operation_xyz
  'x, y, z'

loop_
  _atom_site_type_symbol
  _atom_site_label
  _atom_site_symmetry_multiplicity
  _atom_site_fract_x
  _atom_site_fract_y
  _atom_site_fract_z
  _atom_site_occupancy
  Mn  Mn1       1.0  0.98917  0.05002  0.21568999999999994  1.0000
  Mn  Mn2       1.0  0.04992  0.19635  0.36184  1.0000
  Mn  Mn3       1.0  0.51139  0.54936  0.28308  1.0000
  Mn  Mn4       1.0  0.44991  0.6969499999999997  0.1374  1.0000
  Mn  Mn5       1.0  0.01082999999999999  0.9499799999999998  0.78432  1.0000
  Mn  Mn6       1.0  0.9500699999999997  0.80365  0.63817  1.0000
  Mn  Mn7       1.0  0.48860999999999977  0.4506399999999999  0.71692  1.0000
  Mn  Mn8       1.0  0.5500899999999999  0.30305  0.86261  1.0000
  H   H1        1.0  0.27647999999999995  0.8918899999999997  0.2602  1.0000
  H   H2        1.0  0.38701  0.70831  0.43538  1.0000
  H   H3        1.0  0.20183999999999996  0.95537  0.4758899999999999  1.0000
  H   H4        1.0  0.28651  0.7188  0.7483  1.0000
  H   H5        1.0  0.17358  0.8984899999999999  0.57072  1.0000
  H   H6        1.0  0.39771  0.6771999999999999  0.54031  1.0000
  H   H7        1.0  0.9691899999999998  0.38814  0.27964999999999995  1.0000
  H   H8        1.0  0.85553  0.52958  0.30226  1.0000
  H   H9        1.0  0.80564  0.55526  0.42799  1.0000
  H   H10       1.0  0.8666199999999997  0.4398499999999999  0.52547  1.0000
  H   H11       1.0  0.9302699999999998  0.3440699999999999  0.60235  1.0000
  H   H12       1.0  0.98392  0.20626999999999995  0.68349  1.0000
  H   H13       1.0  0.06362999999999999  0.06389  0.6309399999999998  1.0000
  H   H14       1.0  0.09326999999999999  0.06736999999999999  0.4974799999999999  1.0000
  H   H15       1.0  0.22378  0.3928899999999999  0.23919  1.0000
  H   H16       1.0  0.11356  0.20884999999999995  0.06445  1.0000
  H   H17       1.0  0.29791  0.45540999999999987  0.02312  1.0000
  H   H18       1.0  0.21280999999999997  0.21787999999999996  0.75176  1.0000
  H   H19       1.0  0.32597  0.39813  0.9288699999999999  1.0000
  H   H20       1.0  0.10252  0.17702999999999994  0.96004  1.0000
  H   H21       1.0  0.53088  0.8881799999999997  0.22029  1.0000
  H   H22       1.0  0.6443099999999999  0.029449999999999994  0.19779  1.0000
  H   H23       1.0  0.69422  0.055199999999999985  0.072  1.0000
  H   H24       1.0  0.63355  0.93985  0.97452  1.0000
  H   H25       1.0  0.5697699999999999  0.8441399999999998  0.89756  1.0000
  H   H26       1.0  0.5159099999999999  0.7064  0.81646  1.0000
  H   H27       1.0  0.43649  0.5642699999999998  0.86907  1.0000
  H   H28       1.0  0.40735  0.56763  0.0026099999999999995  1.0000
  H   H29       1.0  0.72352  0.10811  0.7398  1.0000
  H   H30       1.0  0.6129799999999999  0.29169  0.5646199999999999  1.0000
  H   H31       1.0  0.7981599999999998  0.04463  0.52412  1.0000
  H   H32       1.0  0.71349  0.2812  0.2517  1.0000
  H   H33       1.0  0.8264199999999998  0.10150999999999998  0.42929  1.0000
  H   H34       1.0  0.6022899999999998  0.32279999999999986  0.45969  1.0000
  H   H35       1.0  0.03081  0.61187  0.7203499999999999  1.0000
  H   H36       1.0  0.14447  0.4704199999999999  0.69774  1.0000
  H   H37       1.0  0.19436  0.4447399999999999  0.57202  1.0000
  H   H38       1.0  0.13337999999999997  0.56015  0.47452999999999995  1.0000
  H   H39       1.0  0.06973  0.65593  0.39766  1.0000
  H   H40       1.0  0.01608  0.7937299999999998  0.31652  1.0000
  H   H41       1.0  0.93637  0.9361099999999998  0.36906  1.0000
  H   H42       1.0  0.9067299999999999  0.9326299999999997  0.50252  1.0000
  H   H43       1.0  0.77622  0.6071099999999998  0.76081  1.0000
  H   H44       1.0  0.88644  0.7911499999999999  0.93555  1.0000
  H   H45       1.0  0.7020899999999998  0.54459  0.9768799999999999  1.0000
  H   H46       1.0  0.78719  0.78212  0.24824  1.0000
  H   H47       1.0  0.67403  0.6018699999999998  0.07114  1.0000
  H   H48       1.0  0.89748  0.82297  0.03996  1.0000
  H   H49       1.0  0.46911999999999987  0.11181999999999999  0.77971  1.0000
  H   H50       1.0  0.35569  0.9705499999999999  0.80221  1.0000
  H   H51       1.0  0.30578  0.9447999999999998  0.92801  1.0000
  H   H52       1.0  0.36645  0.06014999999999999  0.02549  1.0000
  H   H53       1.0  0.43023  0.15585999999999997  0.10244  1.0000
  H   H54       1.0  0.48409  0.2936  0.18355  1.0000
  H   H55       1.0  0.5635099999999998  0.43573  0.13093  1.0000
  H   H56       1.0  0.59265  0.43236999999999987  0.9973899999999999  1.0000
  C   C1        1.0  0.16699999999999995  0.01409  0.33765999999999996  1.0000
  C   C2        1.0  0.23204999999999992  0.9314799999999998  0.3660399999999999  1.0000
  C   C3        1.0  0.28222  0.8748499999999998  0.31778  1.0000
  C   C4        1.0  0.3407599999999999  0.7966899999999998  0.34458  1.0000
  C   C5        1.0  0.34307999999999994  0.7715699999999999  0.41811  1.0000
  C   C6        1.0  0.29119  0.8257899999999998  0.46713  1.0000
  C   C7        1.0  0.2393099999999999  0.90821  0.43994  1.0000
  C   C8        1.0  0.40242999999999984  0.7384599999999999  0.29638  1.0000
  C   C9        1.0  0.28748999999999997  0.7410299999999999  0.69201  1.0000
  C   C10       1.0  0.22596999999999998  0.8162899999999998  0.66387  1.0000
  C   C11       1.0  0.22616999999999995  0.8422899999999999  0.59069  1.0000
  C   C12       1.0  0.29008  0.7964199999999998  0.54431  1.0000
  C   C13       1.0  0.34902  0.71879  0.57313  1.0000
  C   C14       1.0  0.3463799999999999  0.6905799999999997  0.64549  1.0000
  C   C15       1.0  0.40263  0.6037099999999997  0.67336  1.0000
  C   C16       1.0  0.15407  0.8635499999999999  0.71031  1.0000
  C   C17       1.0  0.9438999999999997  0.4024699999999999  0.33307  1.0000
  C   C18       1.0  0.8824999999999998  0.4810699999999999  0.34597  1.0000
  C   C19       1.0  0.85439  0.4951399999999999  0.41622999999999993  1.0000
  C   C20       1.0  0.8881399999999998  0.4303099999999999  0.47055  1.0000
  C   C21       1.0  0.94794  0.35182999999999987  0.45334  1.0000
  C   C22       1.0  0.9820199999999998  0.27672999999999986  0.50674  1.0000
  C   C23       1.0  0.9658099999999997  0.28147  0.5805699999999999  1.0000
  C   C24       1.0  0.9955800000000001  0.20496999999999996  0.62598  1.0000
  C   C25       1.0  0.040859999999999994  0.12507  0.59694  1.0000
  C   C26       1.0  0.05676999999999999  0.12624  0.52359  1.0000
  C   C27       1.0  0.33296999999999993  0.51451  0.16149  1.0000
  C   C28       1.0  0.26781  0.4319999999999999  0.13325  1.0000
  C   C29       1.0  0.21781999999999996  0.37557  0.18166  1.0000
  C   C30       1.0  0.15948999999999997  0.29732999999999987  0.15501999999999996  1.0000
  C   C31       1.0  0.15733  0.2720899999999999  0.08157999999999999  1.0000
  C   C32       1.0  0.20897  0.32603  0.03244  1.0000
  C   C33       1.0  0.26066  0.4085399999999999  0.05934  1.0000
  C   C34       1.0  0.09791999999999997  0.23892999999999995  0.20306999999999997  1.0000
  C   C35       1.0  0.21201  0.24006999999999995  0.80803  1.0000
  C   C36       1.0  0.27331  0.31561  0.83588  1.0000
  C   C37       1.0  0.27355  0.34182  0.90897  1.0000
  C   C38       1.0  0.20984  0.29612  0.95545  1.0000
  C   C39       1.0  0.1511  0.21829999999999994  0.927  1.0000
  C   C40       1.0  0.15362999999999993  0.18947  0.85478  1.0000
  C   C41       1.0  0.0976  0.10204999999999997  0.82786  1.0000
  C   C42       1.0  0.34394  0.36398999999999987  0.7891599999999999  1.0000
  C   C43       1.0  0.5562  0.9025099999999998  0.16689  1.0000
  C   C44       1.0  0.6175599999999998  0.9810099999999999  0.15403  1.0000
  C   C45       1.0  0.64563  0.9951099999999999  0.08377  1.0000
  C   C46       1.0  0.61205  0.9303299999999998  0.029429999999999998  1.0000
  C   C47       1.0  0.5523599999999999  0.8519199999999998  0.04660999999999999  1.0000
  C   C48       1.0  0.51846  0.7768399999999998  0.9932399999999999  1.0000
  C   C49       1.0  0.53444  0.7815599999999998  0.91939  1.0000
  C   C50       1.0  0.50459  0.7051299999999998  0.874  1.0000
  C   C51       1.0  0.45948  0.6252799999999997  0.9031  1.0000
  C   C52       1.0  0.44384  0.62639  0.97646  1.0000
  C   C53       1.0  0.8329999999999997  0.98591  0.66235  1.0000
  C   C54       1.0  0.7679399999999997  0.06852  0.6339699999999999  1.0000
  C   C55       1.0  0.71778  0.12515  0.68223  1.0000
  C   C56       1.0  0.6592399999999998  0.20331  0.65543  1.0000
  C   C57       1.0  0.6569199999999998  0.22843  0.58189  1.0000
  C   C58       1.0  0.70881  0.17420999999999995  0.53288  1.0000
  C   C59       1.0  0.7606899999999998  0.09178999999999998  0.5600699999999998  1.0000
  C   C60       1.0  0.59757  0.26154  0.70363  1.0000
  C   C61       1.0  0.7125099999999999  0.2589699999999999  0.30799  1.0000
  C   C62       1.0  0.7740299999999998  0.18371  0.33613  1.0000
  C   C63       1.0  0.77382  0.15770999999999993  0.40931  1.0000
  C   C64       1.0  0.70992  0.20357999999999998  0.4557  1.0000
  C   C65       1.0  0.65098  0.28120999999999996  0.42687999999999987  1.0000
  C   C66       1.0  0.6536199999999999  0.30942  0.35452  1.0000
  C   C67       1.0  0.59737  0.39628999999999986  0.3266499999999999  1.0000
  C   C68       1.0  0.8459299999999997  0.13645  0.2897  1.0000
  C   C69       1.0  0.05609  0.59753  0.66693  1.0000
  C   C70       1.0  0.11749999999999998  0.51893  0.65404  1.0000
  C   C71       1.0  0.14561  0.5048599999999998  0.58377  1.0000
  C   C72       1.0  0.11185999999999999  0.56969  0.52946  1.0000
  C   C73       1.0  0.052059999999999995  0.6481699999999996  0.54666  1.0000
  C   C74       1.0  0.017979999999999982  0.7232699999999997  0.4932599999999999  1.0000
  C   C75       1.0  0.034189999999999984  0.71853  0.41942999999999997  1.0000
  C   C76       1.0  0.004419999999999985  0.7950299999999999  0.3740199999999999  1.0000
  C   C77       1.0  0.9591299999999998  0.8749299999999998  0.40306  1.0000
  C   C78       1.0  0.94323  0.8737599999999998  0.47641  1.0000
  C   C79       1.0  0.66703  0.48548999999999987  0.83851  1.0000
  C   C80       1.0  0.73219  0.568  0.8667499999999999  1.0000
  C   C81       1.0  0.78218  0.62443  0.81834  1.0000
  C   C82       1.0  0.8405099999999999  0.70267  0.84498  1.0000
  C   C83       1.0  0.8426699999999998  0.7279099999999997  0.9184199999999999  1.0000
  C   C84       1.0  0.7910299999999998  0.67397  0.96756  1.0000
  C   C85       1.0  0.73934  0.59147  0.94066  1.0000
  C   C86       1.0  0.90208  0.7610699999999998  0.79694  1.0000
  C   C87       1.0  0.78799  0.7599299999999999  0.19197  1.0000
  C   C88       1.0  0.7266899999999997  0.6843899999999998  0.16413  1.0000
  C   C89       1.0  0.72644  0.6581799999999998  0.09103  1.0000
  C   C90       1.0  0.7901599999999998  0.70388  0.04455  1.0000
  C   C91       1.0  0.8488999999999999  0.7816999999999997  0.073  1.0000
  C   C92       1.0  0.84637  0.8105299999999998  0.14522  1.0000
  C   C93       1.0  0.90239  0.8979499999999998  0.17215  1.0000
  C   C94       1.0  0.65606  0.63601  0.21084  1.0000
  C   C95       1.0  0.4438  0.09748999999999997  0.8331099999999999  1.0000
  C   C96       1.0  0.38244  0.01899  0.84597  1.0000
  C   C97       1.0  0.35436999999999996  0.00489  0.91624  1.0000
  C   C98       1.0  0.3879499999999999  0.06967  0.9705699999999999  1.0000
  C   C99       1.0  0.44764  0.14808  0.95339  1.0000
  C   C100      1.0  0.4815399999999999  0.22316999999999995  0.006769999999999998  1.0000
  C   C101      1.0  0.46556  0.21843999999999994  0.08062  1.0000
  C   C102      1.0  0.4954100000000001  0.29487  0.126  1.0000
  C   C103      1.0  0.54052  0.37472  0.09690999999999998  1.0000
  C   C104      1.0  0.55616  0.3736099999999999  0.02354  1.0000
  N   N1        1.0  0.97565  0.3387099999999999  0.3850399999999999  1.0000
  N   N2        1.0  0.028879999999999996  0.20008999999999993  0.47936  1.0000
  N   N3        1.0  0.5245199999999998  0.8388999999999998  0.11487  1.0000
  N   N4        1.0  0.47185  0.7001899999999999  0.02066  1.0000
  N   N5        1.0  0.02435  0.6612899999999999  0.61496  1.0000
  N   N6        1.0  0.9711199999999998  0.7999099999999998  0.52064  1.0000
  N   N7        1.0  0.47547999999999996  0.1611  0.88514  1.0000
  N   N8        1.0  0.52815  0.2998099999999999  0.97935  1.0000
  O   O1        1.0  0.15092999999999995  0.08151  0.3821599999999999  1.0000
  O   O2        1.0  0.13085  0.010249999999999997  0.27138  1.0000
  O   O3        1.0  0.40022999999999986  0.7617999999999998  0.22908999999999996  1.0000
  O   O4        1.0  0.45523999999999987  0.6706299999999997  0.32676  1.0000
  O   O5        1.0  0.44314  0.54767  0.62915  1.0000
  O   O6        1.0  0.4070399999999999  0.5854599999999998  0.74136  1.0000
  O   O7        1.0  0.06676  0.89516  0.67689  1.0000
  O   O8        1.0  0.17254999999999993  0.8717099999999998  0.7777599999999999  1.0000
  O   O9        1.0  0.34930999999999995  0.58139  0.1166  1.0000
  O   O10       1.0  0.36902  0.51127  0.22789  1.0000
  O   O11       1.0  0.09978999999999998  0.26193  0.27034  1.0000
  O   O12       1.0  0.04552  0.17099999999999996  0.1727  1.0000
  O   O13       1.0  0.05680999999999997  0.04742  0.8727199999999999  1.0000
  O   O14       1.0  0.09343999999999997  0.08171  0.76015  1.0000
  O   O15       1.0  0.43298999999999993  0.3930199999999999  0.82157  1.0000
  O   O16       1.0  0.32256999999999997  0.37636  0.7224299999999998  1.0000
  O   O17       1.0  0.8490699999999998  0.9184899999999999  0.61784  1.0000
  O   O18       1.0  0.86915  0.9897499999999998  0.72863  1.0000
  O   O19       1.0  0.5997699999999998  0.2382  0.7709199999999999  1.0000
  O   O20       1.0  0.54476  0.32937  0.67324  1.0000
  O   O21       1.0  0.55686  0.4523299999999999  0.37085  1.0000
  O   O22       1.0  0.59296  0.41453999999999996  0.25864  1.0000
  O   O23       1.0  0.93324  0.10484  0.32311  1.0000
  O   O24       1.0  0.82745  0.12829  0.22223999999999997  1.0000
  O   O25       1.0  0.6506899999999998  0.41860999999999987  0.8834099999999999  1.0000
  O   O26       1.0  0.6309799999999998  0.4887299999999999  0.77211  1.0000
  O   O27       1.0  0.90021  0.7380699999999998  0.72967  1.0000
  O   O28       1.0  0.9544799999999999  0.829  0.8273  1.0000
  O   O29       1.0  0.94319  0.9525799999999998  0.12728  1.0000
  O   O30       1.0  0.90656  0.9182899999999998  0.23986  1.0000
  O   O31       1.0  0.5670099999999999  0.60699  0.17843  1.0000
  O   O32       1.0  0.6774299999999998  0.62364  0.27758  1.0000
