data_image0
_chemical_formula_structural       Y8H24C84O48
_chemical_formula_sum              "Y8 H24 C84 O48"
_cell_length_a       9.88008
_cell_length_b       10.12089
_cell_length_c       27.48252
_cell_angle_alpha    89.87278
_cell_angle_beta     89.92818000000001
_cell_angle_gamma    91.60038999999999

_space_group_name_H-M_alt    "P 1"
_space_group_IT_number       1

loop_
  _space_group_symop_operation_xyz
  'x, y, z'

loop_
  _atom_site_type_symbol
  _atom_site_label
  _atom_site_symmetry_multiplicity
  _atom_site_fract_x
  _atom_site_fract_y
  _atom_site_fract_z
  _atom_site_occupancy
  Y   Y1        1.0  0.55873  0.03806999999999999  0.57998  1.0000
  Y   Y2        1.0  0.53214  0.77336  0.7565299999999998  1.0000
  Y   Y3        1.0  0.44213  0.45726999999999995  0.07945  1.0000
  Y   Y4        1.0  0.46903  0.7279  0.25581  1.0000
  Y   Y5        1.0  0.44127000000000005  0.9619299999999998  0.4200199999999999  1.0000
  Y   Y6        1.0  0.46786000000000005  0.22664  0.24348  1.0000
  Y   Y7        1.0  0.55787  0.5427199999999999  0.9205499999999998  1.0000
  Y   Y8        1.0  0.53097  0.2721  0.7441899999999998  1.0000
  H   H1        1.0  0.9628  0.18562  0.5861699999999999  1.0000
  H   H2        1.0  0.21253  0.18795  0.59838  1.0000
  H   H3        1.0  0.1164  0.8253  0.8042499999999998  1.0000
  H   H4        1.0  0.87226  0.87772  0.8035  1.0000
  H   H5        1.0  0.92554  0.65029  0.5107999999999999  1.0000
  H   H6        1.0  0.82374  0.30646999999999996  0.4881599999999999  1.0000
  H   H7        1.0  0.03719000000000001  0.31403  0.08616  1.0000
  H   H8        1.0  0.78746  0.31323  0.09846999999999997  1.0000
  H   H9        1.0  0.88468  0.67252  0.30439  1.0000
  H   H10       1.0  0.12912  0.6210799999999999  0.3029999999999999  1.0000
  H   H11       1.0  0.07538  0.84913  0.012039999999999997  1.0000
  H   H12       1.0  0.17579  0.19337999999999997  0.9875599999999998  1.0000
  H   H13       1.0  0.0372  0.8143799999999999  0.41382999999999986  1.0000
  H   H14       1.0  0.78748  0.81204  0.4016299999999999  1.0000
  H   H15       1.0  0.8836000000000002  0.17469  0.19574999999999995  1.0000
  H   H16       1.0  0.12775000000000003  0.12226999999999999  0.19651  1.0000
  H   H17       1.0  0.07446  0.34971  0.48919999999999997  1.0000
  H   H18       1.0  0.17626  0.69353  0.51184  1.0000
  H   H19       1.0  0.96282  0.6859699999999999  0.91385  1.0000
  H   H20       1.0  0.21254000000000003  0.68677  0.90153  1.0000
  H   H21       1.0  0.11533  0.32748  0.69561  1.0000
  H   H22       1.0  0.87088  0.37892  0.6969999999999998  1.0000
  H   H23       1.0  0.9246200000000001  0.15087  0.98797  1.0000
  H   H24       1.0  0.8242100000000001  0.80663  0.01244  1.0000
  C   C1        1.0  0.9169899999999999  0.09097  0.65393  1.0000
  C   C2        1.0  0.00502  0.14220999999999998  0.61882  1.0000
  C   C3        1.0  0.14584  0.13988  0.6249899999999999  1.0000
  C   C4        1.0  0.20147  0.07941  0.66542  1.0000
  C   C5        1.0  0.11416  0.015579999999999998  0.70076  1.0000
  C   C6        1.0  0.16316  0.93612  0.7396899999999997  1.0000
  C   C7        1.0  0.07612  0.8853699999999999  0.77513  1.0000
  C   C8        1.0  0.93794  0.9123799999999997  0.7740799999999999  1.0000
  C   C9        1.0  0.8852400000000001  0.98704  0.7365799999999998  1.0000
  C   C10       1.0  0.9698  0.03212  0.6970799999999999  1.0000
  C   C11       1.0  0.7702300000000001  0.08693  0.6396699999999997  1.0000
  C   C12       1.0  0.34884  0.10644  0.67324  1.0000
  C   C13       1.0  0.30499  0.8918499999999999  0.7440499999999998  1.0000
  C   C14       1.0  0.7453700000000001  0.03263  0.7446299999999998  1.0000
  C   C15       1.0  0.9668500000000001  0.75075  0.50775  1.0000
  C   C16       1.0  0.8772800000000001  0.8538999999999999  0.50611  1.0000
  C   C17       1.0  0.73076  0.8138399999999999  0.51486  1.0000
  C   C18       1.0  0.92746  0.98691  0.49962999999999996  1.0000
  C   C19       1.0  0.8405700000000002  0.09629  0.4926199999999999  1.0000
  C   C20       1.0  0.69311  0.08057999999999997  0.4814099999999999  1.0000
  C   C21       1.0  0.8926700000000001  0.22493999999999995  0.49172  1.0000
  C   C22       1.0  0.08305000000000001  0.40914  0.15368  1.0000
  C   C23       1.0  0.99509  0.35799999999999993  0.11868999999999999  1.0000
  C   C24       1.0  0.8542900000000001  0.3609399999999999  0.12495999999999997  1.0000
  C   C25       1.0  0.79869  0.42115  0.16541999999999996  1.0000
  C   C26       1.0  0.88611  0.48444999999999994  0.20067999999999994  1.0000
  C   C27       1.0  0.83738  0.56322  0.23977  1.0000
  C   C28       1.0  0.9247600000000001  0.61313  0.27511  1.0000
  C   C29       1.0  0.06315  0.58667  0.27373  1.0000
  C   C30       1.0  0.11562  0.5129799999999999  0.23600999999999997  1.0000
  C   C31       1.0  0.030460000000000004  0.46805  0.19678  1.0000
  C   C32       1.0  0.2299  0.41289  0.13955999999999996  1.0000
  C   C33       1.0  0.65137  0.3936299999999999  0.1734  1.0000
  C   C34       1.0  0.6956  0.6078799999999999  0.24407999999999996  1.0000
  C   C35       1.0  0.2559  0.46751999999999994  0.24361  1.0000
  C   C36       1.0  0.033679999999999995  0.7489699999999998  0.008539999999999999  1.0000
  C   C37       1.0  0.12283  0.6455199999999999  0.00677  1.0000
  C   C38       1.0  0.26928  0.6843  0.01575  1.0000
  C   C39       1.0  0.07251  0.51283  0.99986  1.0000
  C   C40       1.0  0.15925  0.40332  0.99286  1.0000
  C   C41       1.0  0.30687  0.41922999999999994  0.9821299999999997  1.0000
  C   C42       1.0  0.10688  0.27486  0.9913299999999999  1.0000
  C   C43       1.0  0.08302000000000002  0.90903  0.34608  1.0000
  C   C44       1.0  0.99499  0.85779  0.38118999999999986  1.0000
  C   C45       1.0  0.85416  0.8601199999999999  0.3750099999999999  1.0000
  C   C46       1.0  0.7985300000000001  0.92059  0.33457999999999993  1.0000
  C   C47       1.0  0.8858400000000001  0.9844199999999999  0.2992399999999999  1.0000
  C   C48       1.0  0.83684  0.06388  0.26031  1.0000
  C   C49       1.0  0.9238800000000001  0.11462999999999997  0.22487  1.0000
  C   C50       1.0  0.06207  0.08760999999999998  0.22591999999999995  1.0000
  C   C51       1.0  0.11476  0.01296  0.26342  1.0000
  C   C52       1.0  0.03021  0.96788  0.30292  1.0000
  C   C53       1.0  0.22978  0.91307  0.3603299999999999  1.0000
  C   C54       1.0  0.65117  0.89356  0.32676  1.0000
  C   C55       1.0  0.69502  0.10814999999999998  0.25595  1.0000
  C   C56       1.0  0.25464  0.96736  0.25536999999999993  1.0000
  C   C57       1.0  0.03314999999999999  0.24924999999999997  0.49225  1.0000
  C   C58       1.0  0.12272  0.1461  0.49388999999999994  1.0000
  C   C59       1.0  0.26924  0.18614999999999995  0.4851399999999999  1.0000
  C   C60       1.0  0.07254  0.01308  0.50037  1.0000
  C   C61       1.0  0.15943  0.90371  0.50739  1.0000
  C   C62       1.0  0.3069  0.91942  0.51859  1.0000
  C   C63       1.0  0.10733  0.77506  0.5082799999999998  1.0000
  C   C64       1.0  0.91695  0.59086  0.84633  1.0000
  C   C65       1.0  0.0049199999999999956  0.6419899999999998  0.8813099999999998  1.0000
  C   C66       1.0  0.14571  0.63906  0.87504  1.0000
  C   C67       1.0  0.20132  0.57885  0.8345799999999998  1.0000
  C   C68       1.0  0.11388999999999996  0.51555  0.7993199999999998  1.0000
  C   C69       1.0  0.16262  0.43678  0.76024  1.0000
  C   C70       1.0  0.07524  0.38687  0.7249  1.0000
  C   C71       1.0  0.9368600000000001  0.4133299999999999  0.7262699999999997  1.0000
  C   C72       1.0  0.88438  0.48700999999999994  0.7639899999999997  1.0000
  C   C73       1.0  0.9695500000000001  0.53195  0.8032299999999998  1.0000
  C   C74       1.0  0.7701  0.5871  0.8604399999999998  1.0000
  C   C75       1.0  0.34864  0.6063699999999999  0.8265999999999998  1.0000
  C   C76       1.0  0.3044  0.39211999999999997  0.75593  1.0000
  C   C77       1.0  0.7441000000000001  0.53248  0.7564  1.0000
  C   C78       1.0  0.96632  0.25103  0.9914599999999998  1.0000
  C   C79       1.0  0.87717  0.35448999999999997  0.9932399999999999  1.0000
  C   C80       1.0  0.7307100000000002  0.3157  0.9842599999999998  1.0000
  C   C81       1.0  0.9274900000000001  0.48717999999999995  0.00014  1.0000
  C   C82       1.0  0.84075  0.5966799999999999  0.007139999999999998  1.0000
  C   C83       1.0  0.69313  0.58077  0.01787  1.0000
  C   C84       1.0  0.8931200000000001  0.72515  0.00867  1.0000
  O   O1        1.0  0.72753  0.17927  0.61219  1.0000
  O   O2        1.0  0.6938399999999999  0.98583  0.6500899999999997  1.0000
  O   O3        1.0  0.4267  0.1344  0.6378399999999999  1.0000
  O   O4        1.0  0.39263  0.11423999999999998  0.7174499999999999  1.0000
  O   O5        1.0  0.3665800000000001  0.84039  0.70714  1.0000
  O   O6        1.0  0.36014000000000007  0.8927899999999999  0.7862699999999998  1.0000
  O   O7        1.0  0.71988  0.15356  0.73637  1.0000
  O   O8        1.0  0.65742  0.9536299999999998  0.7645199999999998  1.0000
  O   O9        1.0  0.67909  0.72023  0.49247999999999986  1.0000
  O   O10       1.0  0.67199  0.88099  0.54982  1.0000
  O   O11       1.0  0.65938  0.020070000000000005  0.4426099999999999  1.0000
  O   O12       1.0  0.60676  0.13353  0.5097699999999998  1.0000
  O   O13       1.0  0.27233  0.32004999999999995  0.11228999999999999  1.0000
  O   O14       1.0  0.30648  0.5134499999999999  0.14993  1.0000
  O   O15       1.0  0.57378  0.36499  0.13805999999999996  1.0000
  O   O16       1.0  0.60748  0.38568  0.21761999999999998  1.0000
  O   O17       1.0  0.63435  0.6592999999999999  0.20699999999999993  1.0000
  O   O18       1.0  0.63991  0.6072999999999998  0.28622  1.0000
  O   O19       1.0  0.28015  0.34602999999999995  0.23609999999999995  1.0000
  O   O20       1.0  0.34525000000000006  0.54646  0.26242  1.0000
  O   O21       1.0  0.32149  0.77977  0.99435  1.0000
  O   O22       1.0  0.32776  0.61345  0.04980999999999999  1.0000
  O   O23       1.0  0.34122  0.48552999999999996  0.9445099999999998  1.0000
  O   O24       1.0  0.39231  0.3612  0.00952  1.0000
  O   O25       1.0  0.27247  0.8207299999999998  0.38781  1.0000
  O   O26       1.0  0.30616  0.01417  0.3499199999999999  1.0000
  O   O27       1.0  0.5733  0.8656  0.3621599999999999  1.0000
  O   O28       1.0  0.60737  0.88576  0.28255  1.0000
  O   O29       1.0  0.63342  0.15961  0.29285999999999995  1.0000
  O   O30       1.0  0.63986  0.10721  0.21372999999999995  1.0000
  O   O31       1.0  0.28012  0.84644  0.26363  1.0000
  O   O32       1.0  0.34258  0.04635999999999999  0.23547999999999994  1.0000
  O   O33       1.0  0.3209199999999999  0.27976999999999996  0.5075199999999999  1.0000
  O   O34       1.0  0.32802  0.11900999999999999  0.45017999999999997  1.0000
  O   O35       1.0  0.34062  0.97993  0.55739  1.0000
  O   O36       1.0  0.39324000000000003  0.8664699999999999  0.49023  1.0000
  O   O37       1.0  0.72767  0.67994  0.8877099999999998  1.0000
  O   O38       1.0  0.69352  0.48654999999999987  0.8500699999999998  1.0000
  O   O39       1.0  0.42623000000000005  0.635  0.8619399999999998  1.0000
  O   O40       1.0  0.39253  0.61432  0.7823799999999997  1.0000
  O   O41       1.0  0.36566  0.3407  0.7929999999999999  1.0000
  O   O42       1.0  0.36009  0.39269999999999994  0.7137799999999997  1.0000
  O   O43       1.0  0.71986  0.6539699999999999  0.7639099999999998  1.0000
  O   O44       1.0  0.65475  0.45354  0.7375799999999998  1.0000
  O   O45       1.0  0.67851  0.22023999999999996  0.005669999999999998  1.0000
  O   O46       1.0  0.67224  0.38654  0.9502  1.0000
  O   O47       1.0  0.65878  0.51448  0.05548999999999999  1.0000
  O   O48       1.0  0.60769  0.6388  0.9904799999999998  1.0000
