data_image0
_chemical_formula_structural       Cu6H36C96N12O24
_chemical_formula_sum              "Cu6 H36 C96 N12 O24"
_cell_length_a       12.47261
_cell_length_b       25.79765
_cell_length_c       25.79782
_cell_angle_alpha    117.59704
_cell_angle_beta     99.27189999999999
_cell_angle_gamma    99.2683

_space_group_name_H-M_alt    "P 1"
_space_group_IT_number       1

loop_
  _space_group_symop_operation_xyz
  'x, y, z'

loop_
  _atom_site_type_symbol
  _atom_site_label
  _atom_site_symmetry_multiplicity
  _atom_site_fract_x
  _atom_site_fract_y
  _atom_site_fract_z
  _atom_site_occupancy
  Cu  Cu1       1.0  0.04853  0.99986  0.46234  1.0000
  Cu  Cu2       1.0  0.048550000000000024  0.46224  0.99982  1.0000
  Cu  Cu3       1.0  0.58642  0.53807  0.53806  1.0000
  Cu  Cu4       1.0  0.4135699999999998  0.46195  0.46191999999999994  1.0000
  Cu  Cu5       1.0  0.95141  0.53763  0.00011999999999999999  1.0000
  Cu  Cu6       1.0  0.95145  0.00017000000000001029  0.53776  1.0000
  H   H1        1.0  0.19319  0.13234  0.70508  1.0000
  H   H2        1.0  0.3614699999999999  0.13566  0.57354  1.0000
  H   H3        1.0  0.061350000000000016  0.57278  0.86796  1.0000
  H   H4        1.0  0.22721  0.43784  0.8639  1.0000
  H   H5        1.0  0.48850999999999994  0.29478  0.42718  1.0000
  H   H6        1.0  0.78935  0.42645  0.56248  1.0000
  H   H7        1.0  0.51149  0.57282  0.70523  1.0000
  H   H8        1.0  0.21064999999999995  0.43754  0.57356  1.0000
  H   H9        1.0  0.80679  0.29493  0.86764  1.0000
  H   H10       1.0  0.63846  0.42647  0.8643  1.0000
  H   H11       1.0  0.9385899999999999  0.13201  0.4272  1.0000
  H   H12       1.0  0.77275  0.13608  0.56214  1.0000
  H   H13       1.0  0.8067599999999999  0.86766  0.29495  1.0000
  H   H14       1.0  0.6384299999999999  0.86431  0.42648  1.0000
  H   H15       1.0  0.9386399999999999  0.42717  0.13201  1.0000
  H   H16       1.0  0.7728  0.56211  0.13606  1.0000
  H   H17       1.0  0.51147  0.70522  0.57282  1.0000
  H   H18       1.0  0.21063999999999997  0.57355  0.4375200000000001  1.0000
  H   H19       1.0  0.48850999999999994  0.42719999999999997  0.29476  1.0000
  H   H20       1.0  0.78935  0.5624900000000002  0.42643  1.0000
  H   H21       1.0  0.19317  0.70503  0.13231  1.0000
  H   H22       1.0  0.3615299999999999  0.5735  0.13566  1.0000
  H   H23       1.0  0.061379999999999976  0.86798  0.5728  1.0000
  H   H24       1.0  0.22722  0.86392  0.43787  1.0000
  H   H25       1.0  0.5256599999999999  0.21822000000000005  0.65779  1.0000
  H   H26       1.0  0.3075  0.43934  0.78142  1.0000
  H   H27       1.0  0.8682099999999998  0.34257999999999994  0.56074  1.0000
  H   H28       1.0  0.13181  0.43927  0.65745  1.0000
  H   H29       1.0  0.4742999999999999  0.3422  0.7817499999999998  1.0000
  H   H30       1.0  0.69247  0.21857  0.56066  1.0000
  H   H31       1.0  0.47428999999999993  0.78176  0.34221  1.0000
  H   H32       1.0  0.6925  0.5606399999999998  0.21855  1.0000
  H   H33       1.0  0.1317599999999999  0.65743  0.43927  1.0000
  H   H34       1.0  0.8681999999999997  0.56075  0.34256  1.0000
  H   H35       1.0  0.52566  0.65777  0.21822  1.0000
  H   H36       1.0  0.30752  0.78144  0.43935  1.0000
  C   C1        1.0  0.26789  0.12987  0.63464  1.0000
  C   C2        1.0  0.26599  0.15141999999999994  0.69507  1.0000
  C   C3        1.0  0.35757  0.1975  0.74211  1.0000
  C   C4        1.0  0.4517399999999999  0.22201000000000004  0.72849  1.0000
  C   C5        1.0  0.45267  0.19917000000000004  0.66771  1.0000
  C   C6        1.0  0.36161999999999994  0.15352  0.62091  1.0000
  C   C7        1.0  0.1686  0.08223  0.58484  1.0000
  C   C8        1.0  0.3556199999999999  0.22036  0.80392  1.0000
  C   C9        1.0  0.13945  0.505  0.87056  1.0000
  C   C10       1.0  0.11515999999999997  0.54366  0.84894  1.0000
  C   C11       1.0  0.1599799999999999  0.5445099999999999  0.8026999999999999  1.0000
  C   C12       1.0  0.22980999999999996  0.50646  0.77795  1.0000
  C   C13       1.0  0.25381999999999993  0.46848999999999996  0.80057  1.0000
  C   C14       1.0  0.20913999999999994  0.46749  0.84638  1.0000
  C   C15       1.0  0.08947999999999998  0.5031  0.91878  1.0000
  C   C16       1.0  0.13478000000000004  0.58347  0.78003  1.0000
  C   C17       1.0  0.6341199999999999  0.36557999999999996  0.49520999999999993  1.0000
  C   C18       1.0  0.5714399999999998  0.30505999999999994  0.45636999999999994  1.0000
  C   C19       1.0  0.61554  0.25796  0.45539999999999997  1.0000
  C   C20       1.0  0.72347  0.27155  0.49352  1.0000
  C   C21       1.0  0.78531  0.33236  0.53157  1.0000
  C   C22       1.0  0.7414499999999998  0.37918  0.53272  1.0000
  C   C23       1.0  0.5852799999999999  0.4155  0.49712999999999996  1.0000
  C   C24       1.0  0.55142  0.19609999999999997  0.41636999999999996  1.0000
  C   C25       1.0  0.36589  0.5047999999999999  0.63444  1.0000
  C   C26       1.0  0.42857  0.54364  0.69496  1.0000
  C   C27       1.0  0.3844799999999999  0.54462  0.7420600000000002  1.0000
  C   C28       1.0  0.27655  0.5065  0.72847  1.0000
  C   C29       1.0  0.21471  0.46845  0.66766  1.0000
  C   C30       1.0  0.25856  0.46729  0.62083  1.0000
  C   C31       1.0  0.41474  0.50291  0.58453  1.0000
  C   C32       1.0  0.44857  0.58364  0.80393  1.0000
  C   C33       1.0  0.7320899999999998  0.36538  0.87012  1.0000
  C   C34       1.0  0.7339899999999998  0.30495000000000005  0.84858  1.0000
  C   C35       1.0  0.64241  0.25791  0.8024999999999999  1.0000
  C   C36       1.0  0.5482199999999999  0.27152  0.77799  1.0000
  C   C37       1.0  0.54729  0.3323  0.80081  1.0000
  C   C38       1.0  0.63835  0.37909999999999994  0.84646  1.0000
  C   C39       1.0  0.8313899999999997  0.41517  0.9177600000000001  1.0000
  C   C40       1.0  0.6444  0.1961  0.77965  1.0000
  C   C41       1.0  0.8605  0.12942  0.49499  1.0000
  C   C42       1.0  0.8848099999999998  0.15104  0.45634  1.0000
  C   C43       1.0  0.8400199999999999  0.19729999999999998  0.45551  1.0000
  C   C44       1.0  0.7702  0.22205999999999995  0.49355000000000004  1.0000
  C   C45       1.0  0.74616  0.19942  0.53152  1.0000
  C   C46       1.0  0.7908199999999999  0.1536  0.53251  1.0000
  C   C47       1.0  0.9104  0.08118  0.49689  1.0000
  C   C48       1.0  0.86522  0.21994999999999998  0.41653  1.0000
  C   C49       1.0  0.7320699999999998  0.87015  0.36540999999999996  1.0000
  C   C50       1.0  0.7339699999999998  0.8485899999999998  0.30497  1.0000
  C   C51       1.0  0.64241  0.8025  0.25792  1.0000
  C   C52       1.0  0.54821  0.77798  0.27151  1.0000
  C   C53       1.0  0.5472799999999999  0.80081  0.3323  1.0000
  C   C54       1.0  0.6383199999999999  0.84647  0.37910999999999995  1.0000
  C   C55       1.0  0.8313699999999997  0.9177999999999997  0.41522999999999993  1.0000
  C   C56       1.0  0.64442  0.7796599999999999  0.19612  1.0000
  C   C57       1.0  0.8605599999999998  0.49497  0.12942  1.0000
  C   C58       1.0  0.8848599999999998  0.45631  0.15105  1.0000
  C   C59       1.0  0.84004  0.45547  0.1973  1.0000
  C   C60       1.0  0.77023  0.49352999999999997  0.22205  1.0000
  C   C61       1.0  0.7461999999999998  0.53149  0.19940999999999998  1.0000
  C   C62       1.0  0.7908799999999999  0.53248  0.1536  1.0000
  C   C63       1.0  0.9104599999999999  0.49683  0.08117  1.0000
  C   C64       1.0  0.8652099999999999  0.41651  0.21997  1.0000
  C   C65       1.0  0.36588  0.6344299999999999  0.50478  1.0000
  C   C66       1.0  0.42855  0.69494  0.54363  1.0000
  C   C67       1.0  0.3844399999999999  0.74205  0.54461  1.0000
  C   C68       1.0  0.27651  0.72845  0.50649  1.0000
  C   C69       1.0  0.21467  0.66765  0.46843  1.0000
  C   C70       1.0  0.2585399999999999  0.62082  0.46728  1.0000
  C   C71       1.0  0.41474  0.58453  0.50286  1.0000
  C   C72       1.0  0.44856  0.8039  0.58363  1.0000
  C   C73       1.0  0.63411  0.49522  0.36556  1.0000
  C   C74       1.0  0.5714399999999998  0.45637  0.30504  1.0000
  C   C75       1.0  0.6155499999999998  0.45539  0.25794  1.0000
  C   C76       1.0  0.72348  0.49349999999999994  0.27153  1.0000
  C   C77       1.0  0.78531  0.53157  0.33234  1.0000
  C   C78       1.0  0.7414499999999998  0.53273  0.37917  1.0000
  C   C79       1.0  0.5852399999999999  0.49711999999999995  0.41546  1.0000
  C   C80       1.0  0.55144  0.41637  0.19608  1.0000
  C   C81       1.0  0.26788  0.63457  0.12981  1.0000
  C   C82       1.0  0.26597  0.695  0.15137  1.0000
  C   C83       1.0  0.35752  0.74205  0.19747  1.0000
  C   C84       1.0  0.4517299999999999  0.72846  0.22199  1.0000
  C   C85       1.0  0.45267  0.66768  0.19915999999999998  1.0000
  C   C86       1.0  0.36162999999999995  0.62087  0.1535  1.0000
  C   C87       1.0  0.16861999999999994  0.58473  0.08215  1.0000
  C   C88       1.0  0.35553  0.80386  0.22032  1.0000
  C   C89       1.0  0.13944999999999994  0.87057  0.505  1.0000
  C   C90       1.0  0.11515999999999994  0.84895  0.54366  1.0000
  C   C91       1.0  0.15996999999999997  0.8027  0.5445  1.0000
  C   C92       1.0  0.22977999999999996  0.77794  0.50645  1.0000
  C   C93       1.0  0.25381999999999993  0.80058  0.4684900000000001  1.0000
  C   C94       1.0  0.20913999999999994  0.8463899999999999  0.4675  1.0000
  C   C95       1.0  0.0895199999999999  0.91881  0.50313  1.0000
  C   C96       1.0  0.13478  0.78004  0.58347  1.0000
  N   N1        1.0  0.35362999999999994  0.24009000000000005  0.8546  1.0000
  N   N2        1.0  0.11329  0.61431  0.76021  1.0000
  N   N3        1.0  0.49905  0.14531  0.38548  1.0000
  N   N4        1.0  0.50087  0.61452  0.85474  1.0000
  N   N5        1.0  0.6464399999999999  0.14543  0.75994  1.0000
  N   N6        1.0  0.8867099999999999  0.23976  0.38569  1.0000
  N   N7        1.0  0.64645  0.75996  0.14544  1.0000
  N   N8        1.0  0.8866499999999998  0.38568  0.23981  1.0000
  N   N9        1.0  0.50095  0.8546899999999998  0.61453  1.0000
  N   N10       1.0  0.49906  0.38548  0.14528  1.0000
  N   N11       1.0  0.35353  0.85454  0.24002999999999997  1.0000
  N   N12       1.0  0.11328000000000002  0.76024  0.61432  1.0000
  O   O1        1.0  0.17527  0.06368  0.53038  1.0000
  O   O2        1.0  0.08473999999999997  0.06411999999999998  0.60073  1.0000
  O   O3        1.0  0.11578000000000001  0.46746  0.9373800000000001  1.0000
  O   O4        1.0  0.023900000000000057  0.53715  0.93733  1.0000
  O   O5        1.0  0.6461499999999998  0.47004  0.53334  1.0000
  O   O6        1.0  0.48605  0.39949  0.4625  1.0000
  O   O7        1.0  0.35387  0.46671  0.52999  1.0000
  O   O8        1.0  0.51396  0.53756  0.60056  1.0000
  O   O9        1.0  0.82471  0.4696299999999999  0.93632  1.0000
  O   O10       1.0  0.9152499999999999  0.3992699999999999  0.9358599999999999  1.0000
  O   O11       1.0  0.8842299999999998  0.06264000000000002  0.53259  1.0000
  O   O12       1.0  0.9758199999999998  0.06255  0.46276  1.0000
  O   O13       1.0  0.8247199999999998  0.93635  0.46969  1.0000
  O   O14       1.0  0.9152499999999999  0.93591  0.39934  1.0000
  O   O15       1.0  0.8841299999999999  0.5324500000000001  0.06256  1.0000
  O   O16       1.0  0.9760299999999998  0.46277999999999997  0.06262  1.0000
  O   O17       1.0  0.35391999999999985  0.5299899999999999  0.46657999999999994  1.0000
  O   O18       1.0  0.5138999999999999  0.60054  0.53755  1.0000
  O   O19       1.0  0.64606  0.53337  0.47  1.0000
  O   O20       1.0  0.48606999999999995  0.46243  0.39942  1.0000
  O   O21       1.0  0.17529  0.53028  0.06365  1.0000
  O   O22       1.0  0.08475999999999996  0.60058  0.06397  1.0000
  O   O23       1.0  0.11579999999999983  0.9374099999999999  0.46749  1.0000
  O   O24       1.0  0.02399999999999999  0.93738  0.53722  1.0000
