data_image0
_chemical_formula_structural       Mg6H78C144N12O26
_chemical_formula_sum              "Mg6 H78 C144 N12 O26"
_cell_length_a       16.79857
_cell_length_b       32.34958
_cell_length_c       32.3497
_cell_angle_alpha    120.11734999999999
_cell_angle_beta     90.0
_cell_angle_gamma    90.0

_space_group_name_H-M_alt    "P 1"
_space_group_IT_number       1

loop_
  _space_group_symop_operation_xyz
  'x, y, z'

loop_
  _atom_site_type_symbol
  _atom_site_label
  _atom_site_symmetry_multiplicity
  _atom_site_fract_x
  _atom_site_fract_y
  _atom_site_fract_z
  _atom_site_occupancy
  Mg  Mg1       1.0  0.5  0.7005500000000002  0.29945  1.0000
  Mg  Mg2       1.0  0.5  0.5987600000000001  0.29938  1.0000
  Mg  Mg3       1.0  0.5  0.70062  0.40123999999999993  1.0000
  Mg  Mg4       1.0  0.5  0.29944999999999994  0.7005499999999999  1.0000
  Mg  Mg5       1.0  0.5  0.40124  0.70062  1.0000
  Mg  Mg6       1.0  0.5  0.29938000000000003  0.59876  1.0000
  H   H1        1.0  0.6802499999999998  0.8066  0.33714  1.0000
  H   H2        1.0  0.7857599999999998  0.87046  0.36883  1.0000
  H   H3        1.0  0.68043  0.53052  0.19329  1.0000
  H   H4        1.0  0.78595  0.49825  0.12943  1.0000
  H   H5        1.0  0.68045  0.66291  0.4696099999999999  1.0000
  H   H6        1.0  0.7857599999999998  0.63131  0.5018  1.0000
  H   H7        1.0  0.6802499999999998  0.19340000000000004  0.66285  1.0000
  H   H8        1.0  0.7857599999999998  0.12954  0.6311599999999999  1.0000
  H   H9        1.0  0.68043  0.46948  0.80671  1.0000
  H   H10       1.0  0.78595  0.50175  0.8705699999999998  1.0000
  H   H11       1.0  0.68045  0.3370900000000001  0.53039  1.0000
  H   H12       1.0  0.7857599999999998  0.36869000000000024  0.4982  1.0000
  H   H13       1.0  0.31955  0.46961000000000014  0.66291  1.0000
  H   H14       1.0  0.21424  0.5018  0.63131  1.0000
  H   H15       1.0  0.3197499999999999  0.3371399999999999  0.8065999999999998  1.0000
  H   H16       1.0  0.21424  0.36883  0.87046  1.0000
  H   H17       1.0  0.31957  0.19329  0.53052  1.0000
  H   H18       1.0  0.21405  0.1294299999999999  0.4982499999999999  1.0000
  H   H19       1.0  0.31955  0.53039  0.33709  1.0000
  H   H20       1.0  0.21424  0.49820000000000003  0.36869  1.0000
  H   H21       1.0  0.3197499999999999  0.66286  0.1934  1.0000
  H   H22       1.0  0.21424  0.63117  0.12954  1.0000
  H   H23       1.0  0.31957  0.80671  0.46947999999999995  1.0000
  H   H24       1.0  0.21405  0.8705699999999998  0.50175  1.0000
  H   H25       1.0  0.3197499999999999  0.19340000000000004  0.66285  1.0000
  H   H26       1.0  0.21424  0.12954  0.6311599999999999  1.0000
  H   H27       1.0  0.31957  0.46948  0.80671  1.0000
  H   H28       1.0  0.21405  0.50175  0.8705699999999998  1.0000
  H   H29       1.0  0.31955  0.3370900000000001  0.53039  1.0000
  H   H30       1.0  0.21424  0.36869000000000024  0.4982  1.0000
  H   H31       1.0  0.3197499999999999  0.8066  0.33714  1.0000
  H   H32       1.0  0.21424  0.87046  0.36883  1.0000
  H   H33       1.0  0.31957  0.53052  0.19329  1.0000
  H   H34       1.0  0.21405  0.49825  0.12943  1.0000
  H   H35       1.0  0.31955  0.66291  0.4696099999999999  1.0000
  H   H36       1.0  0.21424  0.63131  0.5018  1.0000
  H   H37       1.0  0.68045  0.53039  0.33709  1.0000
  H   H38       1.0  0.7857599999999998  0.49820000000000003  0.36869  1.0000
  H   H39       1.0  0.6802499999999998  0.66286  0.1934  1.0000
  H   H40       1.0  0.7857599999999998  0.63117  0.12954  1.0000
  H   H41       1.0  0.68043  0.80671  0.46947999999999995  1.0000
  H   H42       1.0  0.78595  0.8705699999999998  0.50175  1.0000
  H   H43       1.0  0.68045  0.46961000000000014  0.66291  1.0000
  H   H44       1.0  0.7857599999999998  0.5018  0.63131  1.0000
  H   H45       1.0  0.6802499999999998  0.3371399999999999  0.8065999999999998  1.0000
  H   H46       1.0  0.7857599999999998  0.36883  0.87046  1.0000
  H   H47       1.0  0.68043  0.19329  0.53052  1.0000
  H   H48       1.0  0.78595  0.1294299999999999  0.4982499999999999  1.0000
  H   H49       1.0  0.9191299999999998  0.81659  0.4082899999999999  1.0000
  H   H50       1.0  0.69715  0.9513999999999999  0.47570999999999997  1.0000
  H   H51       1.0  0.9191299999999998  0.5917100000000001  0.18341  1.0000
  H   H52       1.0  0.69715  0.52429  0.0486  1.0000
  H   H53       1.0  0.9191699999999998  0.5916199999999999  0.4083799999999999  1.0000
  H   H54       1.0  0.6971899999999998  0.5242499999999999  0.4757499999999999  1.0000
  H   H55       1.0  0.9191299999999998  0.18341  0.5917  1.0000
  H   H56       1.0  0.69715  0.048599999999999956  0.52429  1.0000
  H   H57       1.0  0.9191299999999998  0.40828999999999993  0.8165899999999999  1.0000
  H   H58       1.0  0.69715  0.47571  0.9514  1.0000
  H   H59       1.0  0.9191699999999998  0.40838  0.59162  1.0000
  H   H60       1.0  0.6971899999999998  0.47575  0.52425  1.0000
  H   H61       1.0  0.08082999999999997  0.40838  0.59162  1.0000
  H   H62       1.0  0.3028099999999999  0.47575  0.52425  1.0000
  H   H63       1.0  0.08087  0.40828999999999993  0.8165899999999999  1.0000
  H   H64       1.0  0.30285  0.47571  0.9514  1.0000
  H   H65       1.0  0.08087  0.18341  0.5917  1.0000
  H   H66       1.0  0.30285  0.048599999999999956  0.52429  1.0000
  H   H67       1.0  0.08082999999999997  0.5916199999999999  0.4083799999999999  1.0000
  H   H68       1.0  0.3028099999999999  0.5242499999999999  0.4757499999999999  1.0000
  H   H69       1.0  0.08087  0.5917100000000001  0.18341  1.0000
  H   H70       1.0  0.30285  0.52429  0.0486  1.0000
  H   H71       1.0  0.08087  0.81659  0.4082899999999999  1.0000
  H   H72       1.0  0.30285  0.9513999999999999  0.47570999999999997  1.0000
  H   H73       1.0  0.9366899999999998  0.0  0.5  1.0000
  H   H74       1.0  0.9366899999999998  0.5  0.0  1.0000
  H   H75       1.0  0.93673  0.5  0.5  1.0000
  H   H76       1.0  0.06326  0.5  0.5  1.0000
  H   H77       1.0  0.06331  0.5  0.0  1.0000
  H   H78       1.0  0.06331  0.0  0.5  1.0000
  C   C1        1.0  0.70366  0.8211799999999999  0.37317  1.0000
  C   C2        1.0  0.7622499999999998  0.85655  0.3908  1.0000
  C   C3        1.0  0.7037799999999997  0.55195  0.17874999999999996  1.0000
  C   C4        1.0  0.76237  0.53417  0.14338  1.0000
  C   C5        1.0  0.7037499999999998  0.62685  0.4481  1.0000
  C   C6        1.0  0.7622499999999998  0.60923  0.46586  1.0000
  C   C7        1.0  0.70366  0.17881  0.62683  1.0000
  C   C8        1.0  0.7622499999999998  0.14344999999999994  0.6091999999999999  1.0000
  C   C9        1.0  0.7037799999999997  0.4480500000000001  0.82125  1.0000
  C   C10       1.0  0.76237  0.46583  0.85661  1.0000
  C   C11       1.0  0.7037499999999998  0.3731500000000001  0.5519  1.0000
  C   C12       1.0  0.7622499999999998  0.39076  0.53414  1.0000
  C   C13       1.0  0.2962499999999999  0.4481  0.62685  1.0000
  C   C14       1.0  0.23775  0.46586  0.60923  1.0000
  C   C15       1.0  0.29634  0.37317  0.82118  1.0000
  C   C16       1.0  0.23775  0.39079999999999987  0.8565499999999998  1.0000
  C   C17       1.0  0.29622  0.17874999999999996  0.55195  1.0000
  C   C18       1.0  0.23763  0.14338  0.53417  1.0000
  C   C19       1.0  0.2962499999999999  0.5519  0.37315  1.0000
  C   C20       1.0  0.23775  0.5341400000000002  0.3907599999999999  1.0000
  C   C21       1.0  0.29634  0.62683  0.17882  1.0000
  C   C22       1.0  0.23775  0.6092000000000002  0.14345  1.0000
  C   C23       1.0  0.29622  0.82125  0.44805  1.0000
  C   C24       1.0  0.23763  0.8566200000000003  0.46583  1.0000
  C   C25       1.0  0.29633  0.17881  0.62683  1.0000
  C   C26       1.0  0.23775  0.14344999999999994  0.6091999999999999  1.0000
  C   C27       1.0  0.29622  0.4480500000000001  0.82125  1.0000
  C   C28       1.0  0.23763  0.46583  0.85661  1.0000
  C   C29       1.0  0.2962499999999999  0.3731500000000001  0.5519  1.0000
  C   C30       1.0  0.23775  0.39076  0.53414  1.0000
  C   C31       1.0  0.29633  0.8211799999999999  0.37317  1.0000
  C   C32       1.0  0.23775  0.85655  0.3908  1.0000
  C   C33       1.0  0.29622  0.55195  0.17874999999999996  1.0000
  C   C34       1.0  0.23763  0.53417  0.14338  1.0000
  C   C35       1.0  0.2962499999999999  0.62685  0.4481  1.0000
  C   C36       1.0  0.23775  0.60923  0.46586  1.0000
  C   C37       1.0  0.7037499999999998  0.5519  0.37315  1.0000
  C   C38       1.0  0.7622499999999998  0.5341400000000002  0.3907599999999999  1.0000
  C   C39       1.0  0.70366  0.62683  0.17882  1.0000
  C   C40       1.0  0.7622499999999998  0.6092000000000002  0.14345  1.0000
  C   C41       1.0  0.7037799999999997  0.82125  0.44805  1.0000
  C   C42       1.0  0.76237  0.8566200000000003  0.46583  1.0000
  C   C43       1.0  0.7037499999999998  0.4481  0.62685  1.0000
  C   C44       1.0  0.7622499999999998  0.46586  0.60923  1.0000
  C   C45       1.0  0.70366  0.37317  0.82118  1.0000
  C   C46       1.0  0.7622499999999998  0.39079999999999987  0.8565499999999998  1.0000
  C   C47       1.0  0.7037799999999997  0.17874999999999996  0.55195  1.0000
  C   C48       1.0  0.76237  0.14338  0.53417  1.0000
  C   C49       1.0  0.82887  0.95964  0.47984  1.0000
  C   C50       1.0  0.8551699999999998  0.9118400000000002  0.45595  1.0000
  C   C51       1.0  0.61062  0.76492  0.38244  1.0000
  C   C52       1.0  0.93521  0.89681  0.44842  1.0000
  C   C53       1.0  0.67414  0.80325  0.40162  1.0000
  C   C54       1.0  0.79194  0.87444  0.43725  1.0000
  C   C55       1.0  0.95946  0.8468  0.42341  1.0000
  C   C56       1.0  0.7477599999999998  0.97537  0.48769  1.0000
  C   C57       1.0  0.82887  0.5201600000000002  0.04036  1.0000
  C   C58       1.0  0.8551699999999998  0.54405  0.08815999999999999  1.0000
  C   C59       1.0  0.61062  0.61755  0.23508  1.0000
  C   C60       1.0  0.93521  0.55158  0.10319  1.0000
  C   C61       1.0  0.67414  0.59838  0.19675  1.0000
  C   C62       1.0  0.79194  0.5627500000000002  0.12556  1.0000
  C   C63       1.0  0.95946  0.5765899999999999  0.15319999999999995  1.0000
  C   C64       1.0  0.7477599999999998  0.51231  0.024629999999999996  1.0000
  C   C65       1.0  0.8289099999999999  0.5201600000000002  0.47984  1.0000
  C   C66       1.0  0.85513  0.54404  0.45595999999999987  1.0000
  C   C67       1.0  0.61069  0.61754  0.38246  1.0000
  C   C68       1.0  0.93518  0.55156  0.44844  1.0000
  C   C69       1.0  0.67417  0.59837  0.4016299999999999  1.0000
  C   C70       1.0  0.79185  0.56274  0.4372599999999999  1.0000
  C   C71       1.0  0.95946  0.57653  0.42347  1.0000
  C   C72       1.0  0.74782  0.51229  0.4877  1.0000
  C   C73       1.0  0.82887  0.040360000000000056  0.52016  1.0000
  C   C74       1.0  0.8551699999999998  0.08816000000000006  0.54405  1.0000
  C   C75       1.0  0.61062  0.23508  0.61755  1.0000
  C   C76       1.0  0.93521  0.10318999999999999  0.55158  1.0000
  C   C77       1.0  0.67414  0.19674999999999995  0.59838  1.0000
  C   C78       1.0  0.79194  0.12556  0.56275  1.0000
  C   C79       1.0  0.95946  0.15319999999999995  0.57659  1.0000
  C   C80       1.0  0.7477599999999998  0.024629999999999996  0.51231  1.0000
  C   C81       1.0  0.82887  0.47984  0.95964  1.0000
  C   C82       1.0  0.8551699999999998  0.45594999999999997  0.9118399999999999  1.0000
  C   C83       1.0  0.61062  0.3824400000000001  0.76491  1.0000
  C   C84       1.0  0.93521  0.44842  0.89681  1.0000
  C   C85       1.0  0.67414  0.40162  0.80325  1.0000
  C   C86       1.0  0.79194  0.4372499999999999  0.8744299999999998  1.0000
  C   C87       1.0  0.95946  0.42341  0.8468  1.0000
  C   C88       1.0  0.7477599999999998  0.48768999999999996  0.9753699999999998  1.0000
  C   C89       1.0  0.8289099999999999  0.47984  0.52016  1.0000
  C   C90       1.0  0.85513  0.45596  0.54404  1.0000
  C   C91       1.0  0.61069  0.3824599999999999  0.6175299999999998  1.0000
  C   C92       1.0  0.93518  0.44844  0.55156  1.0000
  C   C93       1.0  0.67417  0.40163  0.59837  1.0000
  C   C94       1.0  0.79185  0.43726  0.56273  1.0000
  C   C95       1.0  0.95946  0.42347  0.57652  1.0000
  C   C96       1.0  0.74782  0.48770000000000013  0.51229  1.0000
  C   C97       1.0  0.17108999999999994  0.47984  0.52016  1.0000
  C   C98       1.0  0.14487  0.45596  0.54404  1.0000
  C   C99       1.0  0.38930999999999993  0.3824599999999999  0.6175299999999998  1.0000
  C   C100      1.0  0.06481  0.44844  0.55156  1.0000
  C   C101      1.0  0.32583  0.40163  0.59837  1.0000
  C   C102      1.0  0.20813999999999994  0.43726  0.56273  1.0000
  C   C103      1.0  0.04054  0.42347  0.57652  1.0000
  C   C104      1.0  0.25218  0.48770000000000013  0.51229  1.0000
  C   C105      1.0  0.17113  0.47984  0.95964  1.0000
  C   C106      1.0  0.14482  0.45594999999999997  0.9118399999999999  1.0000
  C   C107      1.0  0.38938  0.3824400000000001  0.76491  1.0000
  C   C108      1.0  0.06479  0.44842  0.89681  1.0000
  C   C109      1.0  0.32586  0.40162  0.80325  1.0000
  C   C110      1.0  0.20805999999999994  0.4372499999999999  0.8744299999999998  1.0000
  C   C111      1.0  0.04054  0.42341  0.8468  1.0000
  C   C112      1.0  0.2522399999999999  0.48768999999999996  0.9753699999999998  1.0000
  C   C113      1.0  0.17113  0.040360000000000056  0.52016  1.0000
  C   C114      1.0  0.14482  0.08816000000000006  0.54405  1.0000
  C   C115      1.0  0.38938  0.23508  0.61755  1.0000
  C   C116      1.0  0.06479  0.10318999999999999  0.55158  1.0000
  C   C117      1.0  0.32586  0.19674999999999995  0.59838  1.0000
  C   C118      1.0  0.20805999999999994  0.12556  0.56275  1.0000
  C   C119      1.0  0.04054  0.15319999999999995  0.57659  1.0000
  C   C120      1.0  0.2522399999999999  0.024629999999999996  0.51231  1.0000
  C   C121      1.0  0.17108999999999994  0.5201600000000002  0.47984  1.0000
  C   C122      1.0  0.14487  0.54404  0.45595999999999987  1.0000
  C   C123      1.0  0.38930999999999993  0.61754  0.38246  1.0000
  C   C124      1.0  0.06481  0.55156  0.44844  1.0000
  C   C125      1.0  0.32583  0.59837  0.4016299999999999  1.0000
  C   C126      1.0  0.20813999999999994  0.56274  0.4372599999999999  1.0000
  C   C127      1.0  0.04054  0.57653  0.42347  1.0000
  C   C128      1.0  0.25218  0.51229  0.4877  1.0000
  C   C129      1.0  0.17113  0.5201600000000002  0.04036  1.0000
  C   C130      1.0  0.14482  0.54405  0.08815999999999999  1.0000
  C   C131      1.0  0.38938  0.61755  0.23508  1.0000
  C   C132      1.0  0.06479  0.55158  0.10319  1.0000
  C   C133      1.0  0.32586  0.59838  0.19675  1.0000
  C   C134      1.0  0.20805999999999994  0.5627500000000002  0.12556  1.0000
  C   C135      1.0  0.04054  0.5765899999999999  0.15319999999999995  1.0000
  C   C136      1.0  0.2522399999999999  0.51231  0.024629999999999996  1.0000
  C   C137      1.0  0.17113  0.95964  0.47984  1.0000
  C   C138      1.0  0.14482  0.9118400000000002  0.45595  1.0000
  C   C139      1.0  0.38938  0.76492  0.38244  1.0000
  C   C140      1.0  0.06479  0.89681  0.44842  1.0000
  C   C141      1.0  0.32586  0.80325  0.40162  1.0000
  C   C142      1.0  0.20805999999999994  0.87444  0.43725  1.0000
  C   C143      1.0  0.04054  0.8468  0.42341  1.0000
  C   C144      1.0  0.2522399999999999  0.97537  0.48769  1.0000
  N   N1        1.0  0.8759199999999999  0.0  0.5  1.0000
  N   N2        1.0  0.8759199999999999  0.5  0.0  1.0000
  N   N3        1.0  0.8759699999999998  0.5  0.5  1.0000
  N   N4        1.0  0.12403  0.5  0.5  1.0000
  N   N5        1.0  0.12408  0.5  0.0  1.0000
  N   N6        1.0  0.12408  0.0  0.5  1.0000
  N   N7        1.0  0.0  0.9268300000000003  0.46343  1.0000
  N   N8        1.0  0.0  0.53657  0.07317  1.0000
  N   N9        1.0  0.0  0.53658  0.46342  1.0000
  N   N10       1.0  0.0  0.07316999999999999  0.53657  1.0000
  N   N11       1.0  0.0  0.46343  0.92683  1.0000
  N   N12       1.0  0.0  0.46342  0.53658  1.0000
  O   O1        1.0  0.58689  0.75067  0.34  1.0000
  O   O2        1.0  0.5869  0.58934  0.24925  1.0000
  O   O3        1.0  0.58696  0.6600100000000002  0.41071999999999986  1.0000
  O   O4        1.0  0.58689  0.24933000000000002  0.65999  1.0000
  O   O5        1.0  0.5869  0.4106600000000001  0.75075  1.0000
  O   O6        1.0  0.58696  0.33999  0.58927  1.0000
  O   O7        1.0  0.41304  0.41072  0.66001  1.0000
  O   O8        1.0  0.41310999999999987  0.34  0.75066  1.0000
  O   O9        1.0  0.4130999999999999  0.24924999999999997  0.5893299999999999  1.0000
  O   O10       1.0  0.41304  0.58928  0.33998999999999996  1.0000
  O   O11       1.0  0.41310999999999987  0.6599999999999999  0.24932999999999994  1.0000
  O   O12       1.0  0.4130999999999999  0.75075  0.41065999999999997  1.0000
  O   O13       1.0  0.41310999999999987  0.24933000000000002  0.65999  1.0000
  O   O14       1.0  0.4130999999999999  0.4106600000000001  0.75075  1.0000
  O   O15       1.0  0.41304  0.33999  0.58927  1.0000
  O   O16       1.0  0.41310999999999987  0.75067  0.34  1.0000
  O   O17       1.0  0.4130999999999999  0.58934  0.24925  1.0000
  O   O18       1.0  0.41304  0.6600100000000002  0.41071999999999986  1.0000
  O   O19       1.0  0.58696  0.58928  0.33998999999999996  1.0000
  O   O20       1.0  0.58689  0.6599999999999999  0.24932999999999994  1.0000
  O   O21       1.0  0.5869  0.75075  0.41065999999999997  1.0000
  O   O22       1.0  0.58696  0.41072  0.66001  1.0000
  O   O23       1.0  0.58689  0.34  0.75066  1.0000
  O   O24       1.0  0.5869  0.24924999999999997  0.5893299999999999  1.0000
  O   O25       1.0  0.5  0.6666600000000003  0.33334  1.0000
  O   O26       1.0  0.5  0.33333999999999997  0.6666599999999999  1.0000
