data_image0
_chemical_formula_structural       Mn12H108C176S12N4O72
_chemical_formula_sum              "Mn12 H108 C176 S12 N4 O72"
_cell_length_a       17.18849
_cell_length_b       16.94527
_cell_length_c       20.19195
_cell_angle_alpha    89.49425000000001
_cell_angle_beta     90.44731
_cell_angle_gamma    100.32356

_symmetry_space_group_name_H-M    'P 1'
_symmetry_Int_Tables_number       1

loop_
  _symmetry_equiv_pos_as_xyz
  'x,y,z'

loop_
  _atom_site_type_symbol
  _atom_site_label
  _atom_site_symmetry_multiplicity
  _atom_site_fract_x
  _atom_site_fract_y
  _atom_site_fract_z
  _atom_site_occupancy
  Mn  Mn1       1.0  0.7472199999999999  0.9639199999999999  0.66821  1.0000
  Mn  Mn2       1.0  0.56576  0.8631  0.63051  1.0000
  Mn  Mn3       1.0  0.92857  0.07287  0.64786  1.0000
  Mn  Mn4       1.0  0.7478699999999999  0.5348399999999998  0.16676  1.0000
  Mn  Mn5       1.0  0.9281299999999999  0.63917  0.12803  1.0000
  Mn  Mn6       1.0  0.56906  0.4246099999999999  0.1492  1.0000
  Mn  Mn7       1.0  0.2528  0.03603  0.33173  1.0000
  Mn  Mn8       1.0  0.43421  0.13687  0.36936  1.0000
  Mn  Mn9       1.0  0.07176  0.92691  0.35199  1.0000
  Mn  Mn10      1.0  0.2518  0.46525000000000005  0.8332399999999999  1.0000
  Mn  Mn11      1.0  0.07204  0.36083  0.87181  1.0000
  Mn  Mn12      1.0  0.43072  0.57513  0.85057  1.0000
  H   H1        1.0  0.78941  0.9747299999999999  0.50532  1.0000
  H   H2        1.0  0.84806  0.01611  0.39397999999999994  1.0000
  H   H3        1.0  0.61824  0.04964  0.32325  1.0000
  H   H4        1.0  0.56065  0.008130000000000002  0.43455999999999995  1.0000
  H   H5        1.0  0.91298  0.98024  0.25423  1.0000
  H   H6        1.0  0.93118  0.8409  0.22815  1.0000
  H   H7        1.0  0.6789  0.76503  0.21551999999999996  1.0000
  H   H8        1.0  0.6602  0.90461  0.24131  1.0000
  H   H9        1.0  0.64454  0.16474999999999995  0.63198  1.0000
  H   H10       1.0  0.58728  0.29045  0.61563  1.0000
  H   H11       1.0  0.81749  0.41805  0.558  1.0000
  H   H12       1.0  0.87413  0.29541  0.5790999999999998  1.0000
  H   H13       1.0  0.76091  0.52346  0.46352999999999994  1.0000
  H   H14       1.0  0.73792  0.52499  0.34062  1.0000
  H   H15       1.0  0.51013  0.37512  0.36533  1.0000
  H   H16       1.0  0.53181  0.37599  0.48907  1.0000
  H   H17       1.0  0.056590000000000015  0.89321  0.54035  1.0000
  H   H18       1.0  0.06785  0.75413  0.50661  1.0000
  H   H19       1.0  0.82684  0.66945  0.5664  1.0000
  H   H20       1.0  0.8144999999999999  0.81109  0.59635  1.0000
  H   H21       1.0  0.87677  0.5147  0.6271  1.0000
  H   H22       1.0  0.92915  0.45609  0.72664  1.0000
  H   H23       1.0  0.1668  0.56241  0.6711  1.0000
  H   H24       1.0  0.11472  0.61607  0.5674  1.0000
  H   H25       1.0  0.69634  0.67706  0.51888  1.0000
  H   H26       1.0  0.62083  0.65543  0.45636  1.0000
  H   H27       1.0  0.61162  0.60208  0.5338  1.0000
  H   H28       1.0  0.71077  0.51957  0.0051  1.0000
  H   H29       1.0  0.6542999999999999  0.47717999999999994  0.89347  1.0000
  H   H30       1.0  0.88697  0.4528399999999999  0.82711  1.0000
  H   H31       1.0  0.94312  0.49505000000000005  0.9384400000000002  1.0000
  H   H32       1.0  0.5914099999999999  0.51935  0.75285  1.0000
  H   H33       1.0  0.57602  0.66  0.72491  1.0000
  H   H34       1.0  0.8285999999999999  0.7311799999999998  0.7145599999999999  1.0000
  H   H35       1.0  0.8445900000000001  0.59035  0.74196  1.0000
  H   H36       1.0  0.85534  0.33616  0.1329  1.0000
  H   H37       1.0  0.91351  0.21151  0.11567  1.0000
  H   H38       1.0  0.6829299999999998  0.08352  0.05853  1.0000
  H   H39       1.0  0.62541  0.20482  0.08076  1.0000
  H   H40       1.0  0.74053  0.97988  0.9656099999999999  1.0000
  H   H41       1.0  0.76204  0.9760099999999999  0.84299  1.0000
  H   H42       1.0  0.99062  0.12592  0.86534  1.0000
  H   H43       1.0  0.9696999999999999  0.12845999999999994  0.98872  1.0000
  H   H44       1.0  0.44249999999999995  0.6068599999999997  0.03996  1.0000
  H   H45       1.0  0.43149  0.74627  0.00487  1.0000
  H   H46       1.0  0.6738  0.8293499999999999  0.06366  1.0000
  H   H47       1.0  0.68623  0.68749  0.09442  1.0000
  H   H48       1.0  0.62368  0.9814399999999999  0.12351  1.0000
  H   H49       1.0  0.57243  0.03886  0.22296000000000002  1.0000
  H   H50       1.0  0.33398  0.93716  0.166  1.0000
  H   H51       1.0  0.38454  0.8842  0.0625  1.0000
  H   H52       1.0  0.804  0.83822  0.0116  1.0000
  H   H53       1.0  0.8836199999999999  0.84902  0.9535999999999999  1.0000
  H   H54       1.0  0.8949899999999997  0.90211  0.030529999999999998  1.0000
  H   H55       1.0  0.21048  0.02558  0.4949  1.0000
  H   H56       1.0  0.15196  0.98384  0.60619  1.0000
  H   H57       1.0  0.38192  0.95091  0.67688  1.0000
  H   H58       1.0  0.43948  0.9925199999999998  0.56556  1.0000
  H   H59       1.0  0.08719  0.01994  0.7459199999999999  1.0000
  H   H60       1.0  0.06928  0.15915  0.7721699999999999  1.0000
  H   H61       1.0  0.32156999999999997  0.23491  0.78431  1.0000
  H   H62       1.0  0.3401  0.09533  0.75845  1.0000
  H   H63       1.0  0.35625999999999997  0.8340599999999998  0.36811  1.0000
  H   H64       1.0  0.4122  0.70769  0.38405  1.0000
  H   H65       1.0  0.18134  0.58179  0.44177999999999995  1.0000
  H   H66       1.0  0.12577  0.70505  0.42111  1.0000
  H   H67       1.0  0.23750999999999997  0.4758  0.53579  1.0000
  H   H68       1.0  0.26103  0.47466  0.65869  1.0000
  H   H69       1.0  0.48940000000000006  0.62316  0.63315  1.0000
  H   H70       1.0  0.46695  0.62214  0.50947  1.0000
  H   H71       1.0  0.9432199999999998  0.10642999999999997  0.45973  1.0000
  H   H72       1.0  0.93174  0.2455  0.49329999999999996  1.0000
  H   H73       1.0  0.17275  0.33042  0.43356  1.0000
  H   H74       1.0  0.18528999999999998  0.18887  0.40380999999999995  1.0000
  H   H75       1.0  0.12288  0.48512999999999995  0.37270999999999993  1.0000
  H   H76       1.0  0.07034999999999994  0.5438699999999997  0.27326  1.0000
  H   H77       1.0  0.83279  0.43773  0.32893  1.0000
  H   H78       1.0  0.88487  0.38388  0.43252  1.0000
  H   H79       1.0  0.30329  0.32397  0.48112  1.0000
  H   H80       1.0  0.37906999999999996  0.34422  0.54362  1.0000
  H   H81       1.0  0.3886399999999999  0.39843  0.4666199999999999  1.0000
  H   H82       1.0  0.28928  0.48050999999999994  0.9948499999999999  1.0000
  H   H83       1.0  0.3457  0.52321  0.10644999999999999  1.0000
  H   H84       1.0  0.11301000000000001  0.54739  0.17273  1.0000
  H   H85       1.0  0.05685000000000001  0.50487  0.06147  1.0000
  H   H86       1.0  0.4082  0.48091999999999996  0.24692  1.0000
  H   H87       1.0  0.42378999999999994  0.34024  0.27488  1.0000
  H   H88       1.0  0.1711  0.26917  0.28549  1.0000
  H   H89       1.0  0.15516  0.40972  0.25799  1.0000
  H   H90       1.0  0.14476  0.66395  0.86715  1.0000
  H   H91       1.0  0.08659  0.78857  0.8843799999999999  1.0000
  H   H92       1.0  0.31713  0.91664  0.9415299999999999  1.0000
  H   H93       1.0  0.3746699999999999  0.79538  0.91939  1.0000
  H   H94       1.0  0.25999  0.020519999999999993  0.033409999999999995  1.0000
  H   H95       1.0  0.23950999999999997  0.02554  0.15603999999999998  1.0000
  H   H96       1.0  0.011010000000000011  0.87521  0.1355  1.0000
  H   H97       1.0  0.03034  0.8724  0.01182  1.0000
  H   H98       1.0  0.55764  0.39316  0.95996  1.0000
  H   H99       1.0  0.56851  0.25381  0.99509  1.0000
  H   H100      1.0  0.32636  0.17072999999999994  0.93591  1.0000
  H   H101      1.0  0.31392  0.31259  0.90514  1.0000
  H   H102      1.0  0.37621  0.01861  0.8766  1.0000
  H   H103      1.0  0.42716999999999994  0.96117  0.7770899999999998  1.0000
  H   H104      1.0  0.66581  0.06276  0.83382  1.0000
  H   H105      1.0  0.6154299999999999  0.11577999999999994  0.93738  1.0000
  H   H106      1.0  0.19602  0.16157  0.98846  1.0000
  H   H107      1.0  0.11632  0.15131  0.04633  1.0000
  H   H108      1.0  0.10488  0.09792  0.96955  1.0000
  C   C1        1.0  0.6334  0.95186  0.53678  1.0000
  C   C2        1.0  0.67151  0.98776  0.47542  1.0000
  C   C3        1.0  0.75295  0.99167  0.46517  1.0000
  C   C4        1.0  0.78547  0.014700000000000001  0.40341999999999995  1.0000
  C   C5        1.0  0.73578  0.03363  0.35254  1.0000
  C   C6        1.0  0.65541  0.03351  0.36310999999999993  1.0000
  C   C7        1.0  0.62327  0.010589999999999999  0.42495  1.0000
  C   C8        1.0  0.7858399999999999  0.94964  0.24987  1.0000
  C   C9        1.0  0.8623199999999998  0.9326499999999998  0.24631999999999998  1.0000
  C   C10       1.0  0.87211  0.85489  0.23144  1.0000
  C   C11       1.0  0.80616  0.79428  0.22059  1.0000
  C   C12       1.0  0.72952  0.81232  0.2245  1.0000
  C   C13       1.0  0.71922  0.89006  0.23891  1.0000
  C   C14       1.0  0.81785  0.71264  0.20084  1.0000
  C   C15       1.0  0.79602  0.14797  0.61663  1.0000
  C   C16       1.0  0.76207  0.22217  0.60514  1.0000
  C   C17       1.0  0.68121  0.22057  0.6158  1.0000
  C   C18       1.0  0.6493299999999999  0.2899  0.60621  1.0000
  C   C19       1.0  0.69893  0.36023  0.5850199999999999  1.0000
  C   C20       1.0  0.77964  0.3628699999999999  0.57414  1.0000
  C   C21       1.0  0.81114  0.29368  0.58525  1.0000
  C   C22       1.0  0.64637  0.44987  0.48246000000000006  1.0000
  C   C23       1.0  0.70585  0.49200000000000005  0.44201  1.0000
  C   C24       1.0  0.69321  0.49253  0.37358  1.0000
  C   C25       1.0  0.62268  0.45002  0.34632  1.0000
  C   C26       1.0  0.5641  0.4076  0.38757  1.0000
  C   C27       1.0  0.57591  0.40785999999999994  0.45573  1.0000
  C   C28       1.0  0.6094299999999999  0.44892  0.27366  1.0000
  C   C29       1.0  0.92888  0.9412799999999998  0.59213  1.0000
  C   C30       1.0  0.93465  0.85974  0.56966  1.0000
  C   C31       1.0  0.0064900000000000105  0.84428  0.54494  1.0000
  C   C32       1.0  0.013050000000000018  0.7667  0.5269  1.0000
  C   C33       1.0  0.94785  0.70484  0.53519  1.0000
  C   C34       1.0  0.8758199999999999  0.7193399999999998  0.55977  1.0000
  C   C35       1.0  0.86902  0.7975099999999999  0.57614  1.0000
  C   C36       1.0  0.9930500000000001  0.5687599999999998  0.59162  1.0000
  C   C37       1.0  0.94013  0.52512  0.6366  1.0000
  C   C38       1.0  0.9699099999999999  0.49299  0.69322  1.0000
  C   C39       1.0  0.051750000000000004  0.50623  0.70575  1.0000
  C   C40       1.0  0.10369  0.5523  0.66079  1.0000
  C   C41       1.0  0.07472999999999998  0.5829699999999999  0.60347  1.0000
  C   C42       1.0  0.08625  0.46995  0.76395  1.0000
  C   C43       1.0  0.59146  0.71925  0.53872  1.0000
  C   C44       1.0  0.63231  0.66062  0.50994  1.0000
  C   C45       1.0  0.86272  0.54967  0.03926  1.0000
  C   C46       1.0  0.83029  0.51138  0.97781  1.0000
  C   C47       1.0  0.74828  0.50394  0.96596  1.0000
  C   C48       1.0  0.71704  0.4805499999999999  0.90407  1.0000
  C   C49       1.0  0.7680199999999999  0.46404  0.85416  1.0000
  C   C50       1.0  0.8488699999999998  0.46726  0.86625  1.0000
  C   C51       1.0  0.88017  0.49073  0.9283999999999999  1.0000
  C   C52       1.0  0.7186  0.54786  0.7496499999999999  1.0000
  C   C53       1.0  0.6427  0.56611  0.74476  1.0000
  C   C54       1.0  0.63442  0.6443  0.72883  1.0000
  C   C55       1.0  0.7012  0.70393  0.71835  1.0000
  C   C56       1.0  0.77725  0.68455  0.72315  1.0000
  C   C57       1.0  0.7861  0.60626  0.73856  1.0000
  C   C58       1.0  0.68921  0.78698  0.70098  1.0000
  C   C59       1.0  0.70353  0.35205  0.11808999999999999  1.0000
  C   C60       1.0  0.73768  0.27842  0.10617999999999998  1.0000
  C   C61       1.0  0.81887  0.28055  0.11642999999999999  1.0000
  C   C62       1.0  0.8512199999999998  0.2119  0.10637999999999999  1.0000
  C   C63       1.0  0.80172  0.14187999999999998  0.08501  1.0000
  C   C64       1.0  0.72065  0.13866  0.07455  1.0000
  C   C65       1.0  0.68868  0.2071  0.08622  1.0000
  C   C66       1.0  0.85491  0.05436  0.98321  1.0000
  C   C67       1.0  0.7951  0.0113  0.9435400000000002  1.0000
  C   C68       1.0  0.80701  0.009270000000000002  0.8754  1.0000
  C   C69       1.0  0.87739  0.0507  0.84742  1.0000
  C   C70       1.0  0.93648  0.09426  0.88781  1.0000
  C   C71       1.0  0.92512  0.09594  0.95592  1.0000
  C   C72       1.0  0.88788  0.04817  0.77454  1.0000
  C   C73       1.0  0.57127  0.55795  0.09188  1.0000
  C   C74       1.0  0.5650999999999999  0.6396  0.06885  1.0000
  C   C75       1.0  0.49294  0.65549  0.04406  1.0000
  C   C76       1.0  0.48654  0.73321  0.025189999999999997  1.0000
  C   C77       1.0  0.55223  0.7945799999999997  0.03286  1.0000
  C   C78       1.0  0.6245399999999999  0.7797099999999999  0.05752  1.0000
  C   C79       1.0  0.63123  0.70138  0.07455  1.0000
  C   C80       1.0  0.5067  0.92952  0.08759  1.0000
  C   C81       1.0  0.56042  0.9716899999999999  0.13273  1.0000
  C   C82       1.0  0.5314  0.00329  0.18899  1.0000
  C   C83       1.0  0.4498  0.99104  0.20093999999999998  1.0000
  C   C84       1.0  0.39697999999999994  0.9465599999999997  0.15594  1.0000
  C   C85       1.0  0.42511000000000004  0.91621  0.09879  1.0000
  C   C86       1.0  0.41848  0.02685  0.26052  1.0000
  C   C87       1.0  0.89624  0.77925  0.03859  1.0000
  C   C88       1.0  0.86858  0.84553  0.006489999999999999  1.0000
  C   C89       1.0  0.36656  0.04823  0.4632299999999999  1.0000
  C   C90       1.0  0.32842999999999994  0.012289999999999999  0.5246  1.0000
  C   C91       1.0  0.24697  0.00836  0.53491  1.0000
  C   C92       1.0  0.21454  0.9853099999999999  0.59668  1.0000
  C   C93       1.0  0.26435  0.96653  0.64753  1.0000
  C   C94       1.0  0.34473  0.9668  0.63695  1.0000
  C   C95       1.0  0.37679  0.98968  0.57508  1.0000
  C   C96       1.0  0.2144  0.05037  0.75017  1.0000
  C   C97       1.0  0.13795000000000002  0.06738  0.7538  1.0000
  C   C98       1.0  0.12828  0.14514  0.7687  1.0000
  C   C99       1.0  0.19419999999999996  0.20573  0.77942  1.0000
  C   C100      1.0  0.27086  0.18769  0.7753999999999999  1.0000
  C   C101      1.0  0.28108  0.10993  0.761  1.0000
  C   C102      1.0  0.18233999999999997  0.28731  0.79916  1.0000
  C   C103      1.0  0.20438  0.85194  0.38335  1.0000
  C   C104      1.0  0.23817999999999998  0.77758  0.39478  1.0000
  C   C105      1.0  0.31896  0.77851  0.38409  1.0000
  C   C106      1.0  0.3502  0.70872  0.39339  1.0000
  C   C107      1.0  0.30005  0.63867  0.41432  1.0000
  C   C108      1.0  0.2195  0.63672  0.42551999999999995  1.0000
  C   C109      1.0  0.18865  0.70632  0.41472  1.0000
  C   C110      1.0  0.35208  0.5490299999999999  0.51669  1.0000
  C   C111      1.0  0.29265  0.50718  0.55722  1.0000
  C   C112      1.0  0.30564  0.5068  0.6255199999999999  1.0000
  C   C113      1.0  0.3765  0.54887  0.65258  1.0000
  C   C114      1.0  0.43510999999999994  0.59097  0.61122  1.0000
  C   C115      1.0  0.42291  0.59069  0.54309  1.0000
  C   C116      1.0  0.3892  0.54905  0.72533  1.0000
  C   C117      1.0  0.07112  0.058399999999999994  0.40785999999999994  1.0000
  C   C118      1.0  0.06514  0.13996  0.43035999999999996  1.0000
  C   C119      1.0  0.9932799999999999  0.15538  0.45508999999999994  1.0000
  C   C120      1.0  0.9865899999999999  0.23296  0.47306  1.0000
  C   C121      1.0  0.05169  0.29493  0.46477999999999997  1.0000
  C   C122      1.0  0.12377999999999999  0.28052  0.44025999999999993  1.0000
  C   C123      1.0  0.1307  0.20234  0.42396  1.0000
  C   C124      1.0  0.00652  0.43096  0.40815999999999997  1.0000
  C   C125      1.0  0.05949  0.47468  0.36324  1.0000
  C   C126      1.0  0.029669999999999988  0.50692  0.30669  1.0000
  C   C127      1.0  0.9478400000000001  0.49378999999999995  0.29419  1.0000
  C   C128      1.0  0.8958999999999998  0.44772  0.33912999999999993  1.0000
  C   C129      1.0  0.92484  0.41688999999999987  0.39636999999999994  1.0000
  C   C130      1.0  0.91342  0.53005  0.23596999999999999  1.0000
  C   C131      1.0  0.40758  0.28082  0.46093999999999996  1.0000
  C   C132      1.0  0.36737  0.33975  0.4900399999999999  1.0000
  C   C133      1.0  0.13728  0.4502599999999999  0.96077  1.0000
  C   C134      1.0  0.16969  0.48866000000000004  0.02217  1.0000
  C   C135      1.0  0.25171999999999994  0.49618999999999996  0.03396  1.0000
  C   C136      1.0  0.28296999999999994  0.51975  0.09579999999999998  1.0000
  C   C137      1.0  0.23198  0.53631  0.14568  1.0000
  C   C138      1.0  0.15111999999999998  0.53297  0.13363  1.0000
  C   C139      1.0  0.11979000000000001  0.50934  0.07154  1.0000
  C   C140      1.0  0.28118  0.45231  0.25015  1.0000
  C   C141      1.0  0.35704  0.43398  0.25505  1.0000
  C   C142      1.0  0.3653  0.35577  0.27107  1.0000
  C   C143      1.0  0.29851  0.2961299999999999  0.28164  1.0000
  C   C144      1.0  0.22252999999999995  0.31565  0.27683  1.0000
  C   C145      1.0  0.2137  0.39392  0.2613  1.0000
  C   C146      1.0  0.31036  0.21303  0.29904  1.0000
  C   C147      1.0  0.29668  0.64814  0.88185  1.0000
  C   C148      1.0  0.2625  0.72174  0.89382  1.0000
  C   C149      1.0  0.18127  0.71956  0.8835899999999999  1.0000
  C   C150      1.0  0.14886999999999997  0.7881799999999998  0.8936799999999999  1.0000
  C   C151      1.0  0.19831999999999994  0.8582499999999997  0.9150499999999999  1.0000
  C   C152      1.0  0.2794  0.8615  0.9255099999999999  1.0000
  C   C153      1.0  0.31141  0.79307  0.9138499999999999  1.0000
  C   C154      1.0  0.14537  0.94637  0.01662  1.0000
  C   C155      1.0  0.20554999999999995  0.98946  0.05592  1.0000
  C   C156      1.0  0.19423999999999997  0.9918699999999999  0.12412999999999999  1.0000
  C   C157      1.0  0.12422  0.95025  0.15253  1.0000
  C   C158      1.0  0.0648  0.9067  0.11246999999999999  1.0000
  C   C159      1.0  0.07530999999999996  0.9049699999999998  0.04428  1.0000
  C   C160      1.0  0.11384  0.95215  0.22541  1.0000
  C   C161      1.0  0.42913  0.44239  0.9080400000000001  1.0000
  C   C162      1.0  0.43492  0.3606  0.9310999999999999  1.0000
  C   C163      1.0  0.5071  0.34463  0.95588  1.0000
  C   C164      1.0  0.5135  0.26689  0.97471  1.0000
  C   C165      1.0  0.44784  0.20551  0.9669499999999999  1.0000
  C   C166      1.0  0.37557999999999997  0.2204  0.9421999999999999  1.0000
  C   C167      1.0  0.36884999999999996  0.29876999999999987  0.92523  1.0000
  C   C168      1.0  0.49322999999999995  0.07049  0.91238  1.0000
  C   C169      1.0  0.4394599999999999  0.02831  0.8672799999999999  1.0000
  C   C170      1.0  0.4683800000000001  0.99667  0.81098  1.0000
  C   C171      1.0  0.54999  0.008839999999999999  0.79901  1.0000
  C   C172      1.0  0.60283  0.05337  0.84398  1.0000
  C   C173      1.0  0.5748  0.08378  0.90113  1.0000
  C   C174      1.0  0.58148  0.97309  0.73944  1.0000
  C   C175      1.0  0.10408  0.22085  0.9612  1.0000
  C   C176      1.0  0.13146  0.15452999999999995  0.9934599999999999  1.0000
  S   S1        1.0  0.77375  0.04922  0.27041  1.0000
  S   S2        1.0  0.6575799999999998  0.44799  0.57077  1.0000
  S   S3        1.0  0.9583099999999999  0.60486  0.5160799999999999  1.0000
  S   S4        1.0  0.72874  0.44813  0.77254  1.0000
  S   S5        1.0  0.8431599999999999  0.05472  0.07106  1.0000
  S   S6        1.0  0.54202  0.89459  0.01275  1.0000
  S   S7        1.0  0.22641999999999998  0.95084  0.72962  1.0000
  S   S8        1.0  0.34012000000000003  0.55037  0.42863000000000007  1.0000
  S   S9        1.0  0.0409  0.39488  0.4838  1.0000
  S   S10       1.0  0.2712  0.55213  0.22733999999999996  1.0000
  S   S11       1.0  0.15686999999999998  0.9455  0.92878  1.0000
  S   S12       1.0  0.458  0.10548  0.98719  1.0000
  N   N1        1.0  0.55676  0.76394  0.56396  1.0000
  N   N2        1.0  0.91936  0.72759  0.06705  1.0000
  N   N3        1.0  0.442  0.23581  0.43586  1.0000
  N   N4        1.0  0.08105  0.27254  0.93269  1.0000
  O   O1        1.0  0.65592  0.49627999999999994  0.23582999999999998  1.0000
  O   O2        1.0  0.1609  0.4764  0.7672199999999999  1.0000
  O   O3        1.0  0.67597  0.92411  0.58232  1.0000
  O   O4        1.0  0.75019  0.0837  0.6328899999999998  1.0000
  O   O5        1.0  0.7577  0.65916  0.18868  1.0000
  O   O6        1.0  0.86092  0.96059  0.60266  1.0000
  O   O7        1.0  0.89071  0.70291  0.19527  1.0000
  O   O8        1.0  0.03842  0.43255  0.80791  1.0000
  O   O9        1.0  0.55884  0.94078  0.54308  1.0000
  O   O10       1.0  0.87172  0.15484  0.60945  1.0000
  O   O11       1.0  0.5503999999999999  0.4004  0.24904999999999997  1.0000
  O   O12       1.0  0.9920299999999999  0.9933699999999999  0.60272  1.0000
  O   O13       1.0  0.85205  0.09943  0.27289  1.0000
  O   O14       1.0  0.71101  0.0714  0.22874  1.0000
  O   O15       1.0  0.5779799999999998  0.4337  0.59892  1.0000
  O   O16       1.0  0.7150199999999998  0.51922  0.58898  1.0000
  O   O17       1.0  0.021989999999999992  0.61063  0.46777  1.0000
  O   O18       1.0  0.8793499999999999  0.55936  0.50194  1.0000
  O   O19       1.0  0.8362  0.0028699999999999993  0.74006  1.0000
  O   O20       1.0  0.34397  0.01983  0.26597  1.0000
  O   O21       1.0  0.81653  0.57557  0.08103  1.0000
  O   O22       1.0  0.74966  0.41593  0.13452  1.0000
  O   O23       1.0  0.74958  0.84118  0.6903  1.0000
  O   O24       1.0  0.63959  0.53866  0.10093  1.0000
  O   O25       1.0  0.61726  0.79766  0.69694  1.0000
  O   O26       1.0  0.46954999999999997  0.06316999999999998  0.30225  1.0000
  O   O27       1.0  0.93772  0.5679  0.05089  1.0000
  O   O28       1.0  0.62771  0.3451  0.11113  1.0000
  O   O29       1.0  0.94877  0.09152  0.74753  1.0000
  O   O30       1.0  0.50824  0.5063  0.10425  1.0000
  O   O31       1.0  0.64952  0.40001  0.77715  1.0000
  O   O32       1.0  0.78937  0.42404  0.73074  1.0000
  O   O33       1.0  0.9223299999999998  0.06718  0.10070999999999998  1.0000
  O   O34       1.0  0.7846999999999998  0.98369  0.08773999999999998  1.0000
  O   O35       1.0  0.4794300000000002  0.88947  0.96284  1.0000
  O   O36       1.0  0.6210499999999999  0.9405599999999997  0.00017  1.0000
  O   O37       1.0  0.34066  0.50245  0.76185  1.0000
  O   O38       1.0  0.83875  0.5236  0.23267  1.0000
  O   O39       1.0  0.32396999999999987  0.07557999999999997  0.41751  1.0000
  O   O40       1.0  0.25014999999999993  0.9162299999999998  0.36707  1.0000
  O   O41       1.0  0.24241000000000001  0.34076999999999996  0.8114399999999999  1.0000
  O   O42       1.0  0.1392  0.03942  0.39735999999999994  1.0000
  O   O43       1.0  0.10946999999999998  0.2971699999999999  0.80464  1.0000
  O   O44       1.0  0.9613299999999999  0.56748  0.19208999999999998  1.0000
  O   O45       1.0  0.44114  0.05959  0.45707999999999993  1.0000
  O   O46       1.0  0.12867  0.84508  0.39054  1.0000
  O   O47       1.0  0.44908  0.59576  0.75079  1.0000
  O   O48       1.0  0.0081  0.00604  0.39716  1.0000
  O   O49       1.0  0.14809  0.9007  0.72716  1.0000
  O   O50       1.0  0.28916  0.92858  0.77124  1.0000
  O   O51       1.0  0.41966  0.5627  0.4005  1.0000
  O   O52       1.0  0.28108  0.48029  0.41078999999999993  1.0000
  O   O53       1.0  0.97693  0.38914  0.5318699999999998  1.0000
  O   O54       1.0  0.11969  0.44063  0.49811999999999995  1.0000
  O   O55       1.0  0.16368999999999997  0.9997399999999999  0.25979  1.0000
  O   O56       1.0  0.65601  0.9802099999999999  0.73404  1.0000
  O   O57       1.0  0.18349  0.42443  0.9189499999999999  1.0000
  O   O58       1.0  0.25048  0.5843  0.86543  1.0000
  O   O59       1.0  0.24999  0.15887  0.30968  1.0000
  O   O60       1.0  0.36112000000000005  0.46253  0.89869  1.0000
  O   O61       1.0  0.38231  0.2023  0.30308  1.0000
  O   O62       1.0  0.53049  0.93678  0.69765  1.0000
  O   O63       1.0  0.0623  0.43196  0.94908  1.0000
  O   O64       1.0  0.37252  0.65494  0.88878  1.0000
  O   O65       1.0  0.054580000000000004  0.90599  0.25235  1.0000
  O   O66       1.0  0.49229999999999996  0.49376999999999993  0.89583  1.0000
  O   O67       1.0  0.35053999999999996  0.6000499999999998  0.22293  1.0000
  O   O68       1.0  0.2106  0.57621  0.2692  1.0000
  O   O69       1.0  0.07764000000000003  0.93283  0.89924  1.0000
  O   O70       1.0  0.21539  0.01645  0.9119799999999999  1.0000
  O   O71       1.0  0.52057  0.11059  0.03712  1.0000
  O   O72       1.0  0.37899  0.05952  0.99983  1.0000
