data_image0
_chemical_formula_structural       Zn8H96C120N16O32
_chemical_formula_sum              "Zn8 H96 C120 N16 O32"
_cell_length_a       12.30358
_cell_length_b       20.111259999999998
_cell_length_c       20.11639
_cell_angle_alpha    102.56551000000002
_cell_angle_beta     94.50881999999999
_cell_angle_gamma    94.53243

_symmetry_space_group_name_H-M    'P 1'
_symmetry_Int_Tables_number       1

loop_
  _symmetry_equiv_pos_as_xyz
  'x,y,z'

loop_
  _atom_site_type_symbol
  _atom_site_label
  _atom_site_symmetry_multiplicity
  _atom_site_fract_x
  _atom_site_fract_y
  _atom_site_fract_z
  _atom_site_occupancy
  Zn  Zn1       1.0  0.6158  0.07489000000000001  0.56404  1.0000
  Zn  Zn2       1.0  0.8060199999999997  0.018549999999999994  0.52728  1.0000
  Zn  Zn3       1.0  0.40655  0.33506  0.60751  1.0000
  Zn  Zn4       1.0  0.50469  0.49058  0.7564  1.0000
  Zn  Zn5       1.0  0.11460999999999999  0.564  0.07505  1.0000
  Zn  Zn6       1.0  0.3047  0.52725  0.01849  1.0000
  Zn  Zn7       1.0  0.9075099999999999  0.60738  0.33501  1.0000
  Zn  Zn8       1.0  0.004500000000000001  0.75616  0.49027000000000004  1.0000
  H   H1        1.0  0.49671  0.20009  0.53691  1.0000
  H   H2        1.0  0.56371  0.2209  0.62162  1.0000
  H   H3        1.0  0.53755  0.14435000000000003  0.6976700000000001  1.0000
  H   H4        1.0  0.45324000000000003  0.06544  0.6686  1.0000
  H   H5        1.0  0.36211  0.035970000000000044  0.5535200000000001  1.0000
  H   H6        1.0  0.38202  0.09248  0.49722  1.0000
  H   H7        1.0  0.3117  0.25131  0.70413  1.0000
  H   H8        1.0  0.45644999999999986  0.25043  0.7185200000000002  1.0000
  H   H9        1.0  0.19758  0.14473  0.66427  1.0000
  H   H10       1.0  0.25766  0.06549  0.64807  1.0000
  H   H11       1.0  0.30143999999999993  0.20014  0.51793  1.0000
  H   H12       1.0  0.22172999999999998  0.22163999999999998  0.58897  1.0000
  H   H13       1.0  0.85732  0.87293  0.46882  1.0000
  H   H14       1.0  0.91268  0.8925099999999999  0.55584  1.0000
  H   H15       1.0  0.98361  0.028759999999999997  0.43  1.0000
  H   H16       1.0  0.89813  0.9509799999999999  0.39619  1.0000
  H   H17       1.0  0.029289999999999976  0.9981  0.60218  1.0000
  H   H18       1.0  0.060750000000000005  0.05557000000000003  0.54852  1.0000
  H   H19       1.0  0.97575  0.84334  0.37854  1.0000
  H   H20       1.0  0.11876999999999997  0.84068  0.39926000000000006  1.0000
  H   H21       1.0  0.17676  0.025729999999999996  0.45946  1.0000
  H   H22       1.0  0.23368  0.94509  0.44587  1.0000
  H   H23       1.0  0.19484  0.8677299999999999  0.51806  1.0000
  H   H24       1.0  0.10727000000000003  0.88956  0.5844800000000001  1.0000
  H   H25       1.0  0.67071  0.85637  0.34584000000000004  1.0000
  H   H26       1.0  0.26507  0.8615599999999999  0.32088  1.0000
  H   H27       1.0  0.38409999999999994  0.95013  0.40876  1.0000
  H   H28       1.0  0.6543999999999999  0.75587  0.2472  1.0000
  H   H29       1.0  0.53567  0.66747  0.15832  1.0000
  H   H30       1.0  0.2477  0.75543  0.22726  1.0000
  H   H31       1.0  0.93081  0.15375  0.40517  1.0000
  H   H32       1.0  0.98388  0.24975  0.35021  1.0000
  H   H33       1.0  0.6409399999999998  0.24695000000000003  0.4671600000000001  1.0000
  H   H34       1.0  0.94767  0.36187  0.32402  1.0000
  H   H35       1.0  0.66986  0.46091  0.39822  1.0000
  H   H36       1.0  0.60773  0.35987  0.44412  1.0000
  H   H37       1.0  0.12176  0.3356  0.62847  1.0000
  H   H38       1.0  0.9743699999999998  0.51146  0.80424  1.0000
  H   H39       1.0  0.17468  0.50803  0.80049  1.0000
  H   H40       1.0  0.9310499999999998  0.29033  0.5782  1.0000
  H   H41       1.0  0.7310299999999998  0.29487  0.5807  1.0000
  H   H42       1.0  0.78295  0.46382  0.7562100000000002  1.0000
  H   H43       1.0  0.78721  0.84879  0.62504  1.0000
  H   H44       1.0  0.4293499999999999  0.82683  0.7229300000000001  1.0000
  H   H45       1.0  0.48196000000000006  0.9279200000000001  0.67499  1.0000
  H   H46       1.0  0.8284699999999998  0.73707  0.6469800000000001  1.0000
  H   H47       1.0  0.7741499999999998  0.63396  0.69217  1.0000
  H   H48       1.0  0.47219999999999995  0.71496  0.74691  1.0000
  H   H49       1.0  0.99654  0.53693  0.20009  1.0000
  H   H50       1.0  0.06353  0.62164  0.22082  1.0000
  H   H51       1.0  0.03743  0.69769  0.14438  1.0000
  H   H52       1.0  0.9531699999999997  0.66869  0.0655  1.0000
  H   H53       1.0  0.86191  0.55357  0.03603  1.0000
  H   H54       1.0  0.8817799999999998  0.49722999999999995  0.09251  1.0000
  H   H55       1.0  0.81161  0.70418  0.25135  1.0000
  H   H56       1.0  0.9563999999999998  0.71857  0.25041  1.0000
  H   H57       1.0  0.6974399999999998  0.66431  0.14478  1.0000
  H   H58       1.0  0.75761  0.6481  0.06555  1.0000
  H   H59       1.0  0.8011999999999999  0.51789  0.20013  1.0000
  H   H60       1.0  0.7215699999999999  0.58892  0.22173  1.0000
  H   H61       1.0  0.3569399999999999  0.46887000000000006  0.8730800000000001  1.0000
  H   H62       1.0  0.41233999999999993  0.5559  0.8925500000000001  1.0000
  H   H63       1.0  0.4832999999999999  0.43006000000000005  0.02879  1.0000
  H   H64       1.0  0.39770999999999995  0.39625999999999995  0.95108  1.0000
  H   H65       1.0  0.5290899999999998  0.60227  0.99812  1.0000
  H   H66       1.0  0.56053  0.54856  0.05555000000000001  1.0000
  H   H67       1.0  0.47536999999999996  0.37853  0.84335  1.0000
  H   H68       1.0  0.6183799999999999  0.39931  0.8407  1.0000
  H   H69       1.0  0.67645  0.45947999999999994  0.025620000000000004  1.0000
  H   H70       1.0  0.7332899999999999  0.44587  0.9449600000000001  1.0000
  H   H71       1.0  0.69445  0.51802  0.8676500000000001  1.0000
  H   H72       1.0  0.60702  0.58451  0.8895100000000001  1.0000
  H   H73       1.0  0.1713  0.34554000000000007  0.8561200000000001  1.0000
  H   H74       1.0  0.76574  0.32147  0.86208  1.0000
  H   H75       1.0  0.8853400000000001  0.40906  0.9504200000000002  1.0000
  H   H76       1.0  0.15474000000000002  0.24737000000000006  0.7560000000000001  1.0000
  H   H77       1.0  0.03572  0.15844  0.66756  1.0000
  H   H78       1.0  0.74792  0.22740000000000002  0.75562  1.0000
  H   H79       1.0  0.42959  0.4053399999999999  0.1536  1.0000
  H   H80       1.0  0.48363999999999996  0.35067  0.24959  1.0000
  H   H81       1.0  0.13993999999999998  0.46685  0.24742  1.0000
  H   H82       1.0  0.44765  0.32397  0.36168  1.0000
  H   H83       1.0  0.17033  0.39833999999999997  0.46125  1.0000
  H   H84       1.0  0.10752  0.444  0.36019000000000007  1.0000
  H   H85       1.0  0.62195  0.62852  0.33597  1.0000
  H   H86       1.0  0.47433999999999993  0.8044400000000002  0.51164  1.0000
  H   H87       1.0  0.6747400000000001  0.80052  0.50826  1.0000
  H   H88       1.0  0.43140000000000006  0.57823  0.2905  1.0000
  H   H89       1.0  0.23118  0.58079  0.29492  1.0000
  H   H90       1.0  0.28314  0.75641  0.4638900000000001  1.0000
  H   H91       1.0  0.2862  0.62488  0.8493100000000001  1.0000
  H   H92       1.0  0.92914  0.72327  0.82629  1.0000
  H   H93       1.0  0.98049  0.67534  0.9274800000000001  1.0000
  H   H94       1.0  0.32858  0.64669  0.7377900000000001  1.0000
  H   H95       1.0  0.27572999999999986  0.69189  0.63453  1.0000
  H   H96       1.0  0.9731199999999999  0.74707  0.71441  1.0000
  C   C1        1.0  0.48897  0.1962  0.58981  1.0000
  C   C2        1.0  0.4622899999999999  0.11951000000000002  0.6664200000000001  1.0000
  C   C3        1.0  0.37244  0.08974999999999997  0.55032  1.0000
  C   C4        1.0  0.38206  0.22471999999999998  0.68666  1.0000
  C   C5        1.0  0.26882  0.11958  0.64593  1.0000
  C   C6        1.0  0.29214  0.19544  0.57055  1.0000
  C   C7        1.0  0.92914  0.8965300000000002  0.5041  1.0000
  C   C8        1.0  0.9707399999999998  0.9744900000000001  0.4310300000000001  1.0000
  C   C9        1.0  0.046590000000000006  0.0015700000000000106  0.55031  1.0000
  C   C10       1.0  0.04757000000000001  0.86793  0.4136600000000001  1.0000
  C   C11       1.0  0.16167999999999996  0.97153  0.46054  1.0000
  C   C12       1.0  0.12347  0.89476  0.53289  1.0000
  C   C13       1.0  0.60156  0.9588500000000002  0.43921000000000004  1.0000
  C   C14       1.0  0.53407  0.90743  0.38294  1.0000
  C   C15       1.0  0.58226  0.8572900000000001  0.33972  1.0000
  C   C16       1.0  0.51796  0.8071100000000001  0.28829  1.0000
  C   C17       1.0  0.40088  0.8076100000000002  0.28204  1.0000
  C   C18       1.0  0.35361  0.86021  0.32647  1.0000
  C   C19       1.0  0.4186299999999999  0.90903  0.37509000000000003  1.0000
  C   C20       1.0  0.5656000000000001  0.75577  0.2426  1.0000
  C   C21       1.0  0.5009599999999997  0.70714  0.19373  1.0000
  C   C22       1.0  0.38506000000000007  0.70665  0.18805000000000002  1.0000
  C   C23       1.0  0.33651  0.75615  0.23180000000000003  1.0000
  C   C24       1.0  0.31784999999999997  0.65167  0.13503  1.0000
  C   C25       1.0  0.75569  0.13848  0.47513  1.0000
  C   C26       1.0  0.78299  0.19503  0.44004  1.0000
  C   C27       1.0  0.88027  0.19582  0.40623  1.0000
  C   C28       1.0  0.9092999999999999  0.24884999999999996  0.3759  1.0000
  C   C29       1.0  0.8436499999999999  0.30437  0.37871  1.0000
  C   C30       1.0  0.74529  0.30386  0.41273000000000004  1.0000
  C   C31       1.0  0.7161899999999998  0.24781  0.4421300000000001  1.0000
  C   C32       1.0  0.8738899999999998  0.3609  0.35044  1.0000
  C   C33       1.0  0.8128  0.41665  0.35812  1.0000
  C   C34       1.0  0.71581  0.41631000000000007  0.39228  1.0000
  C   C35       1.0  0.68195  0.36072  0.41796  1.0000
  C   C36       1.0  0.8546799999999998  0.47819  0.33384  1.0000
  C   C37       1.0  0.27973  0.41732  0.71335  1.0000
  C   C38       1.0  0.15943999999999997  0.42019999999999996  0.71479  1.0000
  C   C39       1.0  0.08843999999999998  0.37318  0.66699  1.0000
  C   C40       1.0  0.9736699999999998  0.37464  0.66673  1.0000
  C   C41       1.0  0.93148  0.42485999999999996  0.71803  1.0000
  C   C42       1.0  0.006330000000000006  0.47289  0.76594  1.0000
  C   C43       1.0  0.11768  0.4711099999999999  0.76409  1.0000
  C   C44       1.0  0.8991  0.32792  0.61744  1.0000
  C   C45       1.0  0.78783  0.3303  0.61865  1.0000
  C   C46       1.0  0.7458299999999999  0.37902999999999987  0.67007  1.0000
  C   C47       1.0  0.81657  0.42535  0.71874  1.0000
  C   C48       1.0  0.6254099999999999  0.38134  0.6706  1.0000
  C   C49       1.0  0.66595  0.95358  0.61575  1.0000
  C   C50       1.0  0.6382199999999999  0.89435  0.6473  1.0000
  C   C51       1.0  0.70946  0.84413  0.64674  1.0000
  C   C52       1.0  0.68183  0.78579  0.6729400000000001  1.0000
  C   C53       1.0  0.57901  0.77968  0.70136  1.0000
  C   C54       1.0  0.5077  0.8321599999999999  0.70195  1.0000
  C   C55       1.0  0.53636  0.8879599999999999  0.67541  1.0000
  C   C56       1.0  0.7520399999999998  0.73252  0.6703800000000001  1.0000
  C   C57       1.0  0.7219699999999997  0.6755  0.69479  1.0000
  C   C58       1.0  0.61969  0.66893  0.72237  1.0000
  C   C59       1.0  0.55041  0.72056  0.7260300000000001  1.0000
  C   C60       1.0  0.5828999999999998  0.60423  0.74207  1.0000
  C   C61       1.0  0.98873  0.58984  0.19619  1.0000
  C   C62       1.0  0.9621  0.66651  0.11955000000000002  1.0000
  C   C63       1.0  0.8721699999999998  0.55034  0.08979  1.0000
  C   C64       1.0  0.88196  0.68672  0.22475  1.0000
  C   C65       1.0  0.7686799999999998  0.64598  0.11963000000000001  1.0000
  C   C66       1.0  0.79197  0.57057  0.1955  1.0000
  C   C67       1.0  0.4287599999999999  0.50417  0.89664  1.0000
  C   C68       1.0  0.47032999999999997  0.43111  0.9745500000000001  1.0000
  C   C69       1.0  0.54629  0.55038  0.00157  1.0000
  C   C70       1.0  0.54714  0.41368999999999995  0.8679300000000001  1.0000
  C   C71       1.0  0.6613199999999998  0.46056000000000014  0.9714500000000001  1.0000
  C   C72       1.0  0.6231499999999999  0.53291  0.89474  1.0000
  C   C73       1.0  0.10302000000000001  0.43903  0.95875  1.0000
  C   C74       1.0  0.03509  0.38292  0.9075  1.0000
  C   C75       1.0  0.08286999999999996  0.33964  0.85726  1.0000
  C   C76       1.0  0.018239999999999965  0.28837  0.80716  1.0000
  C   C77       1.0  0.90116  0.2822700000000001  0.8077700000000001  1.0000
  C   C78       1.0  0.8542499999999997  0.32682000000000005  0.8605000000000002  1.0000
  C   C79       1.0  0.9196299999999997  0.37531  0.90927  1.0000
  C   C80       1.0  0.06593999999999997  0.24274  0.75587  1.0000
  C   C81       1.0  0.0012899999999999858  0.19389  0.70731  1.0000
  C   C82       1.0  0.88547  0.18819000000000002  0.70695  1.0000
  C   C83       1.0  0.8367499999999998  0.23198000000000002  0.75636  1.0000
  C   C84       1.0  0.81879  0.13498  0.65198  1.0000
  C   C85       1.0  0.25379  0.47495  0.13859  1.0000
  C   C86       1.0  0.28174  0.43992  0.19509000000000004  1.0000
  C   C87       1.0  0.37923999999999997  0.40632  0.19575000000000004  1.0000
  C   C88       1.0  0.40881  0.37611000000000006  0.24878  1.0000
  C   C89       1.0  0.3434499999999999  0.37878  0.30443  1.0000
  C   C90       1.0  0.24494999999999995  0.41265  0.30405  1.0000
  C   C91       1.0  0.21530999999999995  0.44194000000000006  0.24805  1.0000
  C   C92       1.0  0.37392999999999993  0.35045  0.36089000000000004  1.0000
  C   C93       1.0  0.3130299999999999  0.35812  0.4167100000000001  1.0000
  C   C94       1.0  0.21608999999999995  0.39238000000000006  0.41657  1.0000
  C   C95       1.0  0.18185  0.41795  0.36103  1.0000
  C   C96       1.0  0.35449  0.33378  0.4783  1.0000
  C   C97       1.0  0.77971  0.7132500000000002  0.41728000000000004  1.0000
  C   C98       1.0  0.65939  0.7148200000000001  0.42036000000000007  1.0000
  C   C99       1.0  0.5883899999999997  0.66701  0.37342  1.0000
  C   C100      1.0  0.4736699999999999  0.66677  0.37487  1.0000
  C   C101      1.0  0.4316  0.71815  0.42507000000000006  1.0000
  C   C102      1.0  0.50637  0.7660700000000003  0.47316  1.0000
  C   C103      1.0  0.61771  0.76415  0.47135000000000005  1.0000
  C   C104      1.0  0.39925  0.61747  0.32804  1.0000
  C   C105      1.0  0.2879900000000001  0.61877  0.33035  1.0000
  C   C106      1.0  0.24610999999999997  0.67032  0.37906  1.0000
  C   C107      1.0  0.31677  0.71895  0.42544000000000004  1.0000
  C   C108      1.0  0.12577  0.67082  0.38131  1.0000
  C   C109      1.0  0.16453999999999994  0.6158  0.95362  1.0000
  C   C110      1.0  0.137  0.64735  0.8943600000000002  1.0000
  C   C111      1.0  0.20860999999999996  0.64668  0.8443400000000001  1.0000
  C   C112      1.0  0.18165  0.6729  0.78594  1.0000
  C   C113      1.0  0.07905  0.70144  0.7795  1.0000
  C   C114      1.0  0.007300000000000026  0.70214  0.8318000000000001  1.0000
  C   C115      1.0  0.035310000000000015  0.6755999999999999  0.8877000000000002  1.0000
  C   C116      1.0  0.25235  0.67024  0.73293  1.0000
  C   C117      1.0  0.22304999999999997  0.6947  0.67583  1.0000
  C   C118      1.0  0.12097  0.72244  0.66888  1.0000
  C   C119      1.0  0.05121999999999999  0.72615  0.7202900000000001  1.0000
  C   C120      1.0  0.08467999999999999  0.7421  0.6040100000000002  1.0000
  N   N1        1.0  0.4755699999999999  0.12291999999999999  0.59342  1.0000
  N   N2        1.0  0.39319  0.23160000000000003  0.6144900000000001  1.0000
  N   N3        1.0  0.36744  0.1531  0.69067  1.0000
  N   N4        1.0  0.27676  0.12350000000000001  0.5738700000000001  1.0000
  N   N5        1.0  0.9472999999999999  0.97007  0.50228  1.0000
  N   N6        1.0  0.026290000000000018  0.86027  0.48436000000000007  1.0000
  N   N7        1.0  0.06695999999999998  0.9398  0.41121  1.0000
  N   N8        1.0  0.14346999999999993  0.96688  0.53126  1.0000
  N   N9        1.0  0.9751899999999999  0.59347  0.12296  1.0000
  N   N10       1.0  0.8930599999999999  0.61453  0.23161  1.0000
  N   N11       1.0  0.8672899999999998  0.69074  0.15315  1.0000
  N   N12       1.0  0.77655  0.57389  0.12357  1.0000
  N   N13       1.0  0.44691  0.5023900000000001  0.9701700000000001  1.0000
  N   N14       1.0  0.52591  0.48441  0.86033  1.0000
  N   N15       1.0  0.56652  0.41125  0.93979  1.0000
  N   N16       1.0  0.6432  0.53132  0.96685  1.0000
  O   O1        1.0  0.55034  0.004210000000000015  0.47538  1.0000
  O   O2        1.0  0.70399  0.95301  0.44774  1.0000
  O   O3        1.0  0.37085999999999997  0.61208  0.09375  1.0000
  O   O4        1.0  0.21381  0.64774  0.13501  1.0000
  O   O5        1.0  0.67099  0.14174  0.50814  1.0000
  O   O6        1.0  0.82014  0.09116000000000002  0.47095000000000004  1.0000
  O   O7        1.0  0.9259399999999999  0.47491  0.29222  1.0000
  O   O8        1.0  0.81467  0.53538  0.36042  1.0000
  O   O9        1.0  0.59549  0.99694  0.61564  1.0000
  O   O10       1.0  0.34182  0.47117  0.74315  1.0000
  O   O11       1.0  0.31285999999999997  0.36058  0.68382  1.0000
  O   O12       1.0  0.5664799999999999  0.35415  0.61437  1.0000
  O   O13       1.0  0.58698  0.40772  0.72654  1.0000
  O   O14       1.0  0.7571899999999999  0.9560300000000002  0.58974  1.0000
  O   O15       1.0  0.64471  0.55538  0.73701  1.0000
  O   O16       1.0  0.48649999999999993  0.59609  0.76144  1.0000
  O   O17       1.0  0.05223  0.47534  0.00415  1.0000
  O   O18       1.0  0.20551  0.44744  0.9528  1.0000
  O   O19       1.0  0.87234  0.09401  0.61234  1.0000
  O   O20       1.0  0.71469  0.13469  0.64828  1.0000
  O   O21       1.0  0.16898999999999997  0.50784  0.14196  1.0000
  O   O22       1.0  0.31799  0.47087  0.09114  1.0000
  O   O23       1.0  0.4218299999999999  0.28968  0.47484  1.0000
  O   O24       1.0  0.31772  0.36323999999999995  0.53566  1.0000
  O   O25       1.0  0.09426  0.61578  0.99704  1.0000
  O   O26       1.0  0.84149  0.74277  0.47136000000000006  1.0000
  O   O27       1.0  0.81353  0.68395  0.36064  1.0000
  O   O28       1.0  0.06741  0.61435  0.35425  1.0000
  O   O29       1.0  0.08653  0.7266  0.40744  1.0000
  O   O30       1.0  0.2557  0.58969  0.95599  1.0000
  O   O31       1.0  0.14654  0.73698  0.55528  1.0000
  O   O32       1.0  0.98821  0.76148  0.59581  1.0000
