data_image0
_chemical_formula_structural       Gd8H72C168S12O72
_chemical_formula_sum              "Gd8 H72 C168 S12 O72"
_cell_length_a       15.36984
_cell_length_b       18.73198
_cell_length_c       30.256840000000004
_cell_angle_alpha    95.58212999999999
_cell_angle_beta     90.19124000000001
_cell_angle_gamma    114.22403

_symmetry_space_group_name_H-M    'P 1'
_symmetry_Int_Tables_number       1

loop_
  _symmetry_equiv_pos_as_xyz
  'x,y,z'

loop_
  _atom_site_type_symbol
  _atom_site_label
  _atom_site_symmetry_multiplicity
  _atom_site_fract_x
  _atom_site_fract_y
  _atom_site_fract_z
  _atom_site_occupancy
  Gd  Gd1       1.0  0.34685999999999995  0.59065  0.64861  1.0000
  Gd  Gd2       1.0  0.4681599999999999  0.82625  0.65532  1.0000
  Gd  Gd3       1.0  0.24456  0.59122  0.14854  1.0000
  Gd  Gd4       1.0  0.3588899999999999  0.82682  0.15519  1.0000
  Gd  Gd5       1.0  0.75544  0.40878999999999993  0.85146  1.0000
  Gd  Gd6       1.0  0.64112  0.17319  0.84482  1.0000
  Gd  Gd7       1.0  0.65315  0.40935000000000005  0.35139  1.0000
  Gd  Gd8       1.0  0.53185  0.17375  0.34469  1.0000
  H   H1        1.0  0.4106299999999999  0.83308  0.80852  1.0000
  H   H2        1.0  0.41613  0.6054800000000001  0.77771  1.0000
  H   H3        1.0  0.40912000000000004  0.58517  0.85794  1.0000
  H   H4        1.0  0.3864799999999999  0.57893  0.93547  1.0000
  H   H5        1.0  0.3453099999999999  0.81498  0.00752  1.0000
  H   H6        1.0  0.3438999999999999  0.58592  0.01476  1.0000
  H   H7        1.0  0.73501  0.83885  0.65116  1.0000
  H   H8        1.0  0.64748  0.58854  0.64968  1.0000
  H   H9        1.0  0.9058999999999997  0.8605799999999999  0.64955  1.0000
  H   H10       1.0  0.06060000000000001  0.86007  0.64756  1.0000
  H   H11       1.0  0.20988999999999988  0.83834  0.64875  1.0000
  H   H12       1.0  0.04843999999999999  0.58961  0.65334  1.0000
  H   H13       1.0  0.09351  0.34067  0.59716  1.0000
  H   H14       1.0  0.14428999999999995  0.39961  0.73879  1.0000
  H   H15       1.0  0.98644  0.29164  0.75177  1.0000
  H   H16       1.0  0.8293399999999997  0.18321  0.7517  1.0000
  H   H17       1.0  0.7094599999999998  0.05551  0.59721  1.0000
  H   H18       1.0  0.6741999999999998  0.0655  0.73849  1.0000
  H   H19       1.0  0.4245899999999999  0.83282  0.3090000000000001  1.0000
  H   H20       1.0  0.18986000000000006  0.60592  0.27776  1.0000
  H   H21       1.0  0.17594999999999988  0.58592  0.35797  1.0000
  H   H22       1.0  0.19208  0.57915  0.43518  1.0000
  H   H23       1.0  0.4689599999999999  0.81478  0.50851  1.0000
  H   H24       1.0  0.2410899999999999  0.58546  0.5147  1.0000
  H   H25       1.0  0.10460000000000003  0.83913  0.15163  1.0000
  H   H26       1.0  0.9419099999999998  0.58875  0.14964  1.0000
  H   H27       1.0  0.9554099999999998  0.86095  0.15015  1.0000
  H   H28       1.0  0.8006799999999997  0.86041  0.14765  1.0000
  H   H29       1.0  0.62964  0.8388  0.14837000000000003  1.0000
  H   H30       1.0  0.54205  0.5899  0.15301  1.0000
  H   H31       1.0  0.24593999999999994  0.34128  0.0973  1.0000
  H   H32       1.0  0.25507  0.39965  0.23892  1.0000
  H   H33       1.0  0.30343  0.29068  0.25196  1.0000
  H   H34       1.0  0.3514499999999999  0.18214000000000002  0.25164  1.0000
  H   H35       1.0  0.34546  0.05627  0.09705  1.0000
  H   H36       1.0  0.38914  0.06464  0.23846  1.0000
  H   H37       1.0  0.57542  0.16718  0.691  1.0000
  H   H38       1.0  0.8101399999999997  0.39408000000000004  0.7222500000000002  1.0000
  H   H39       1.0  0.8240499999999997  0.41408  0.64203  1.0000
  H   H40       1.0  0.8079299999999998  0.42085  0.56482  1.0000
  H   H41       1.0  0.5310499999999998  0.18522  0.4915  1.0000
  H   H42       1.0  0.7589099999999998  0.41454  0.48531  1.0000
  H   H43       1.0  0.89541  0.16087  0.84837  1.0000
  H   H44       1.0  0.05809999999999996  0.41125  0.85037  1.0000
  H   H45       1.0  0.044600000000000015  0.13905000000000003  0.84985  1.0000
  H   H46       1.0  0.19932999999999995  0.13959  0.85236  1.0000
  H   H47       1.0  0.37037000000000003  0.16120000000000007  0.8516400000000002  1.0000
  H   H48       1.0  0.45795  0.4101  0.847  1.0000
  H   H49       1.0  0.7540699999999998  0.65872  0.9027  1.0000
  H   H50       1.0  0.74493  0.60035  0.76108  1.0000
  H   H51       1.0  0.6965799999999998  0.70932  0.74804  1.0000
  H   H52       1.0  0.6485599999999998  0.8178599999999999  0.74836  1.0000
  H   H53       1.0  0.65455  0.94373  0.90296  1.0000
  H   H54       1.0  0.6108699999999998  0.93536  0.76154  1.0000
  H   H55       1.0  0.5893799999999998  0.16693  0.19149000000000005  1.0000
  H   H56       1.0  0.58388  0.39453  0.22229  1.0000
  H   H57       1.0  0.5908799999999997  0.41483  0.14206  1.0000
  H   H58       1.0  0.6135199999999997  0.42108  0.06453  1.0000
  H   H59       1.0  0.6546999999999997  0.18503000000000003  0.9924900000000001  1.0000
  H   H60       1.0  0.65611  0.41408  0.98524  1.0000
  H   H61       1.0  0.265  0.16115000000000002  0.34884  1.0000
  H   H62       1.0  0.35252999999999995  0.41147000000000006  0.35033  1.0000
  H   H63       1.0  0.09410999999999999  0.13943000000000003  0.3504500000000001  1.0000
  H   H64       1.0  0.9393999999999998  0.13993  0.35244  1.0000
  H   H65       1.0  0.79012  0.16167  0.35125  1.0000
  H   H66       1.0  0.9515699999999998  0.41039  0.34666  1.0000
  H   H67       1.0  0.9064999999999999  0.65933  0.40284  1.0000
  H   H68       1.0  0.85572  0.60039  0.26121  1.0000
  H   H69       1.0  0.013570000000000026  0.70837  0.24823000000000006  1.0000
  H   H70       1.0  0.17066999999999993  0.81679  0.2483  1.0000
  H   H71       1.0  0.29054  0.94449  0.40279  1.0000
  H   H72       1.0  0.32580999999999993  0.9345100000000001  0.26151  1.0000
  C   C1        1.0  0.41809999999999997  0.7320700000000001  0.7408  1.0000
  C   C2        1.0  0.41482999999999987  0.72046  0.7886  1.0000
  C   C3        1.0  0.41049999999999986  0.77965  0.81975  1.0000
  C   C4        1.0  0.41448999999999997  0.6509000000000001  0.80255  1.0000
  C   C5        1.0  0.40341  0.76594  0.86396  1.0000
  C   C6        1.0  0.4102099999999999  0.63934  0.84744  1.0000
  C   C7        1.0  0.40269999999999995  0.69665  0.8786  1.0000
  C   C8        1.0  0.38712  0.69232  0.92625  1.0000
  C   C9        1.0  0.37547999999999987  0.75806  0.94726  1.0000
  C   C10       1.0  0.3780999999999999  0.63042  0.95094  1.0000
  C   C11       1.0  0.3543  0.76399  0.99154  1.0000
  C   C12       1.0  0.3541299999999999  0.63425  0.99521  1.0000
  C   C13       1.0  0.34183999999999987  0.70008  0.01556  1.0000
  C   C14       1.0  0.31441999999999987  0.70175  0.06256  1.0000
  C   C15       1.0  0.58034  0.70339  0.65195  1.0000
  C   C16       1.0  0.6815899999999998  0.71314  0.65088  1.0000
  C   C17       1.0  0.7546999999999998  0.7893  0.65092  1.0000
  C   C18       1.0  0.7041299999999998  0.64741  0.65011  1.0000
  C   C19       1.0  0.8503599999999998  0.80145  0.65013  1.0000
  C   C20       1.0  0.7998399999999999  0.66095  0.65035  1.0000
  C   C21       1.0  0.8737699999999998  0.73668  0.65015  1.0000
  C   C22       1.0  0.9692299999999997  0.7366999999999999  0.65034  1.0000
  C   C23       1.0  0.05724000000000001  0.80123  0.64918  1.0000
  C   C24       1.0  0.9674999999999997  0.6612299999999999  0.65177  1.0000
  C   C25       1.0  0.14079000000000005  0.78909  0.64976  1.0000
  C   C26       1.0  0.04981000000000003  0.64797  0.65237  1.0000
  C   C27       1.0  0.13787999999999995  0.71336  0.65139  1.0000
  C   C28       1.0  0.22874999999999995  0.7026  0.65166  1.0000
  C   C29       1.0  0.21858999999999998  0.44406000000000007  0.66046  1.0000
  C   C30       1.0  0.12719  0.37662  0.66752  1.0000
  C   C31       1.0  0.0695  0.3292  0.63056  1.0000
  C   C32       1.0  0.0972  0.36234  0.71095  1.0000
  C   C33       1.0  0.9830799999999997  0.26881  0.63837  1.0000
  C   C34       1.0  0.009159999999999995  0.30189  0.71806  1.0000
  C   C35       1.0  0.9508399999999998  0.25423  0.6815  1.0000
  C   C36       1.0  0.8574799999999998  0.18681000000000003  0.68155  1.0000
  C   C37       1.0  0.8210199999999997  0.15041  0.63848  1.0000
  C   C38       1.0  0.8043  0.15588  0.71799  1.0000
  C   C39       1.0  0.7364799999999998  0.08369  0.63054  1.0000
  C   C40       1.0  0.71777  0.08956  0.71076  1.0000
  C   C41       1.0  0.6847100000000002  0.05282000000000005  0.6675400000000002  1.0000
  C   C42       1.0  0.5966  0.9788199999999999  0.66093  1.0000
  C   C43       1.0  0.3149399999999999  0.73203  0.24087  1.0000
  C   C44       1.0  0.3069999999999999  0.72054  0.28874  1.0000
  C   C45       1.0  0.3707099999999999  0.77958  0.32007  1.0000
  C   C46       1.0  0.23718999999999993  0.65128  0.30263  1.0000
  C   C47       1.0  0.36342000000000013  0.7662200000000002  0.3643500000000001  1.0000
  C   C48       1.0  0.22946  0.63988  0.34754  1.0000
  C   C49       1.0  0.2942099999999999  0.69714  0.37885  1.0000
  C   C50       1.0  0.3047600000000001  0.6927800000000002  0.42658  1.0000
  C   C51       1.0  0.38182999999999984  0.7585899999999999  0.44789  1.0000
  C   C52       1.0  0.25184  0.63053  0.45097  1.0000
  C   C53       1.0  0.40899999999999986  0.76401  0.49219  1.0000
  C   C54       1.0  0.2794299999999999  0.63393  0.49529  1.0000
  C   C55       1.0  0.35754  0.69971  0.51587  1.0000
  C   C56       1.0  0.3867899999999999  0.70117  0.56281  1.0000
  C   C57       1.0  0.12358999999999995  0.70361  0.15148  1.0000
  C   C58       1.0  0.03214999999999999  0.71336  0.15092  1.0000
  C   C59       1.0  0.03531  0.7896  0.15124  1.0000
  C   C60       1.0  0.9439799999999999  0.6476  0.15014  1.0000
  C   C61       1.0  0.9518599999999998  0.8018  0.15049  1.0000
  C   C62       1.0  0.86189  0.66124  0.15043  1.0000
  C   C63       1.0  0.8637299999999998  0.73697  0.15030000000000002  1.0000
  C   C64       1.0  0.76836  0.73705  0.15028  1.0000
  C   C65       1.0  0.74506  0.8016100000000002  0.14902  1.0000
  C   C66       1.0  0.69455  0.66162  0.15156  1.0000
  C   C67       1.0  0.64942  0.7895200000000002  0.14937  1.0000
  C   C68       1.0  0.5989599999999999  0.64831  0.15199000000000004  1.0000
  C   C69       1.0  0.5765399999999998  0.71383  0.15099  1.0000
  C   C70       1.0  0.47523  0.70376  0.15162  1.0000
  C   C71       1.0  0.22527000000000003  0.4444000000000001  0.16057  1.0000
  C   C72       1.0  0.24865999999999994  0.37673  0.16768  1.0000
  C   C73       1.0  0.25836  0.32942  0.13069  1.0000
  C   C74       1.0  0.2643699999999999  0.36219  0.21113  1.0000
  C   C75       1.0  0.2838199999999999  0.26874  0.1385  1.0000
  C   C76       1.0  0.2911500000000001  0.30126000000000003  0.21823  1.0000
  C   C77       1.0  0.30122  0.25366  0.18161  1.0000
  C   C78       1.0  0.3267599999999999  0.18606000000000003  0.18148000000000006  1.0000
  C   C79       1.0  0.32716  0.15024000000000004  0.13833  1.0000
  C   C80       1.0  0.34912  0.15499  0.21793000000000007  1.0000
  C   C81       1.0  0.3457399999999999  0.08392  0.13038  1.0000
  C   C82       1.0  0.3697199999999999  0.08893  0.2107  1.0000
  C   C83       1.0  0.3665499999999999  0.05276000000000001  0.16742  1.0000
  C   C84       1.0  0.38124999999999987  0.979  0.1608  1.0000
  C   C85       1.0  0.6850699999999998  0.26797  0.75913  1.0000
  C   C86       1.0  0.69301  0.27946  0.71126  1.0000
  C   C87       1.0  0.6292999999999997  0.22042  0.67994  1.0000
  C   C88       1.0  0.7628199999999998  0.34872  0.69737  1.0000
  C   C89       1.0  0.6365899999999998  0.23378  0.63565  1.0000
  C   C90       1.0  0.7705500000000001  0.36012000000000005  0.65247  1.0000
  C   C91       1.0  0.7057999999999998  0.30286  0.62115  1.0000
  C   C92       1.0  0.6952499999999998  0.30722  0.57342  1.0000
  C   C93       1.0  0.61817  0.24142000000000002  0.55211  1.0000
  C   C94       1.0  0.74817  0.36948  0.54903  1.0000
  C   C95       1.0  0.59101  0.23599  0.50781  1.0000
  C   C96       1.0  0.7205799999999998  0.36608  0.50471  1.0000
  C   C97       1.0  0.6424699999999998  0.3003  0.48414  1.0000
  C   C98       1.0  0.61321  0.29883  0.4371900000000001  1.0000
  C   C99       1.0  0.87642  0.29639  0.84852  1.0000
  C   C100      1.0  0.96785  0.28665  0.84908  1.0000
  C   C101      1.0  0.9646999999999999  0.2104  0.84876  1.0000
  C   C102      1.0  0.056029999999999976  0.35241  0.8498600000000001  1.0000
  C   C103      1.0  0.048139999999999995  0.1982  0.84951  1.0000
  C   C104      1.0  0.13811999999999994  0.33877  0.84957  1.0000
  C   C105      1.0  0.13627999999999996  0.26303  0.8497  1.0000
  C   C106      1.0  0.23164999999999994  0.26296  0.84972  1.0000
  C   C107      1.0  0.2549499999999999  0.19839000000000004  0.8509800000000001  1.0000
  C   C108      1.0  0.30546  0.33838  0.84844  1.0000
  C   C109      1.0  0.35058  0.21048  0.85063  1.0000
  C   C110      1.0  0.4010499999999999  0.35170000000000007  0.84802  1.0000
  C   C111      1.0  0.4234699999999999  0.28617  0.84901  1.0000
  C   C112      1.0  0.5247799999999998  0.29624  0.84838  1.0000
  C   C113      1.0  0.77474  0.5556  0.83943  1.0000
  C   C114      1.0  0.7513399999999998  0.6232700000000001  0.83232  1.0000
  C   C115      1.0  0.7416499999999998  0.67058  0.86931  1.0000
  C   C116      1.0  0.7356399999999997  0.63781  0.78888  1.0000
  C   C117      1.0  0.71619  0.73127  0.86151  1.0000
  C   C118      1.0  0.7088599999999998  0.69874  0.78177  1.0000
  C   C119      1.0  0.6987899999999998  0.74634  0.8183900000000001  1.0000
  C   C120      1.0  0.6732499999999999  0.81394  0.81852  1.0000
  C   C121      1.0  0.67285  0.8497600000000001  0.8616800000000002  1.0000
  C   C122      1.0  0.6508899999999997  0.84502  0.78208  1.0000
  C   C123      1.0  0.6542699999999998  0.91608  0.86962  1.0000
  C   C124      1.0  0.6302899999999999  0.91108  0.78931  1.0000
  C   C125      1.0  0.6334599999999999  0.9472400000000001  0.83258  1.0000
  C   C126      1.0  0.61876  0.020999999999999998  0.8392  1.0000
  C   C127      1.0  0.5819099999999998  0.26794000000000007  0.2592  1.0000
  C   C128      1.0  0.5851699999999997  0.27954000000000007  0.21141  1.0000
  C   C129      1.0  0.5894999999999998  0.22036  0.18025  1.0000
  C   C130      1.0  0.5855199999999998  0.3491  0.19745  1.0000
  C   C131      1.0  0.5966  0.23406  0.13604  1.0000
  C   C132      1.0  0.5898  0.36067  0.15256000000000006  1.0000
  C   C133      1.0  0.59731  0.30336  0.12141  1.0000
  C   C134      1.0  0.6128899999999998  0.30768  0.07375  1.0000
  C   C135      1.0  0.62453  0.24194  0.05275  1.0000
  C   C136      1.0  0.62191  0.36959  0.04906  1.0000
  C   C137      1.0  0.64571  0.23601  0.00846  1.0000
  C   C138      1.0  0.6458699999999998  0.36575  0.00479  1.0000
  C   C139      1.0  0.6581699999999998  0.29992  0.98444  1.0000
  C   C140      1.0  0.6855899999999999  0.29825  0.93744  1.0000
  C   C141      1.0  0.41967  0.29662  0.34806  1.0000
  C   C142      1.0  0.31841999999999987  0.28687  0.34912  1.0000
  C   C143      1.0  0.2453099999999999  0.21070999999999998  0.34908  1.0000
  C   C144      1.0  0.29588  0.35258999999999996  0.3499  1.0000
  C   C145      1.0  0.14965000000000003  0.19856000000000004  0.34987000000000007  1.0000
  C   C146      1.0  0.20017  0.33906  0.34965  1.0000
  C   C147      1.0  0.12623999999999994  0.26333  0.34985000000000005  1.0000
  C   C148      1.0  0.030769999999999978  0.2633  0.34967  1.0000
  C   C149      1.0  0.94277  0.19877  0.35082  1.0000
  C   C150      1.0  0.03249999999999999  0.33878  0.34823  1.0000
  C   C151      1.0  0.8592099999999998  0.21090999999999996  0.35024  1.0000
  C   C152      1.0  0.95019  0.35203  0.34763000000000005  1.0000
  C   C153      1.0  0.86213  0.28665  0.34862  1.0000
  C   C154      1.0  0.77126  0.2974  0.34835  1.0000
  C   C155      1.0  0.78141  0.55595  0.33954  1.0000
  C   C156      1.0  0.8728199999999998  0.6233800000000002  0.33249  1.0000
  C   C157      1.0  0.9305099999999996  0.6708  0.36944  1.0000
  C   C158      1.0  0.90281  0.63767  0.28905  1.0000
  C   C159      1.0  0.01693000000000002  0.73119  0.36164  1.0000
  C   C160      1.0  0.9908499999999998  0.69812  0.28194  1.0000
  C   C161      1.0  0.04917000000000003  0.7457700000000002  0.3185  1.0000
  C   C162      1.0  0.14252  0.81319  0.31845  1.0000
  C   C163      1.0  0.17897999999999994  0.84959  0.3615300000000001  1.0000
  C   C164      1.0  0.19571  0.8441200000000001  0.2820100000000001  1.0000
  C   C165      1.0  0.26352  0.91631  0.36946  1.0000
  C   C166      1.0  0.2822400000000001  0.9104400000000002  0.2892500000000001  1.0000
  C   C167      1.0  0.3153  0.94718  0.33246  1.0000
  C   C168      1.0  0.40341  0.021190000000000004  0.33907  1.0000
  S   S1        1.0  0.38641  0.8276  0.90889  1.0000
  S   S2        1.0  0.8474399999999997  0.58862  0.65177  1.0000
  S   S3        1.0  0.89981  0.19867  0.59712  1.0000
  S   S4        1.0  0.4414  0.82808  0.40973  1.0000
  S   S5        1.0  0.7419799999999998  0.58915  0.15166  1.0000
  S   S6        1.0  0.2987299999999999  0.20023  0.09707  1.0000
  S   S7        1.0  0.5586099999999998  0.17192  0.59028  1.0000
  S   S8        1.0  0.25802999999999987  0.41085  0.84834  1.0000
  S   S9        1.0  0.70128  0.79977  0.90294  1.0000
  S   S10       1.0  0.61359  0.17241000000000004  0.09111  1.0000
  S   S11       1.0  0.15257  0.41139  0.34823  1.0000
  S   S12       1.0  0.10019999999999989  0.80133  0.40289  1.0000
  O   O1        1.0  0.43737999999999994  0.8006  0.72979  1.0000
  O   O2        1.0  0.4023299999999999  0.67245  0.7119800000000002  1.0000
  O   O3        1.0  0.47284999999999977  0.89958  0.91954  1.0000
  O   O4        1.0  0.2954  0.83302  0.90182  1.0000
  O   O5        1.0  0.3208799999999999  0.76701  0.08273  1.0000
  O   O6        1.0  0.28552  0.63727  0.08062  1.0000
  O   O7        1.0  0.5674699999999998  0.7662499999999999  0.66255  1.0000
  O   O8        1.0  0.5134399999999998  0.63495  0.64305  1.0000
  O   O9        1.0  0.82808  0.55423  0.69389  1.0000
  O   O10       1.0  0.8233199999999997  0.53648  0.61015  1.0000
  O   O11       1.0  0.3064  0.76381  0.64917  1.0000
  O   O12       1.0  0.22493999999999995  0.6339  0.65421  1.0000
  O   O13       1.0  0.24159999999999995  0.46154  0.62064  1.0000
  O   O14       1.0  0.2719699999999999  0.48728  0.69405  1.0000
  O   O15       1.0  0.9405299999999998  0.14681  0.57581  1.0000
  O   O16       1.0  0.8572400000000001  0.23681000000000002  0.56956  1.0000
  O   O17       1.0  0.57398  0.93819  0.62268  1.0000
  O   O18       1.0  0.5454900000000001  0.9529100000000001  0.69438  1.0000
  O   O19       1.0  0.36403  0.80049  0.22975  1.0000
  O   O20       1.0  0.2705099999999999  0.6723400000000002  0.2121  1.0000
  O   O21       1.0  0.4279499999999999  0.90059  0.41961  1.0000
  O   O22       1.0  0.53788  0.83304  0.4039  1.0000
  O   O23       1.0  0.44589999999999996  0.76647  0.58295  1.0000
  O   O24       1.0  0.35118999999999995  0.63664  0.58078  1.0000
  O   O25       1.0  0.19952999999999996  0.76683  0.16093  1.0000
  O   O26       1.0  0.12191999999999999  0.63509  0.14306  1.0000
  O   O27       1.0  0.7271199999999998  0.55472  0.19377  1.0000
  O   O28       1.0  0.71383  0.53749  0.1099  1.0000
  O   O29       1.0  0.4593899999999999  0.76533  0.14946  1.0000
  O   O30       1.0  0.40992999999999985  0.6353  0.15418  1.0000
  O   O31       1.0  0.21863999999999995  0.46146  0.12072  1.0000
  O   O32       1.0  0.21689999999999995  0.48829  0.19415  1.0000
  O   O33       1.0  0.2077899999999999  0.14953  0.07377000000000002  1.0000
  O   O34       1.0  0.38180999999999987  0.24056  0.07142  1.0000
  O   O35       1.0  0.3630499999999999  0.93828  0.12259000000000003  1.0000
  O   O36       1.0  0.40726999999999985  0.9533099999999999  0.19426000000000004  1.0000
  O   O37       1.0  0.6359799999999999  0.19951  0.77026  1.0000
  O   O38       1.0  0.7294999999999998  0.32766  0.7879  1.0000
  O   O39       1.0  0.5720599999999998  0.09941  0.5804  1.0000
  O   O40       1.0  0.46212  0.16697  0.5961  1.0000
  O   O41       1.0  0.5541099999999998  0.23354  0.41706  1.0000
  O   O42       1.0  0.6488099999999998  0.36337  0.41923  1.0000
  O   O43       1.0  0.80048  0.23317  0.83907  1.0000
  O   O44       1.0  0.8780799999999997  0.36491  0.85694  1.0000
  O   O45       1.0  0.27289  0.44529  0.80624  1.0000
  O   O46       1.0  0.28618  0.46252  0.89011  1.0000
  O   O47       1.0  0.54061  0.23467  0.85055  1.0000
  O   O48       1.0  0.5900799999999999  0.3647  0.84583  1.0000
  O   O49       1.0  0.78137  0.53855  0.87928  1.0000
  O   O50       1.0  0.78311  0.51171  0.80586  1.0000
  O   O51       1.0  0.7922199999999998  0.85047  0.92623  1.0000
  O   O52       1.0  0.6181999999999999  0.75944  0.92858  1.0000
  O   O53       1.0  0.6369599999999999  0.061720000000000004  0.87741  1.0000
  O   O54       1.0  0.59274  0.04669  0.80575  1.0000
  O   O55       1.0  0.5626299999999997  0.1994  0.27022  1.0000
  O   O56       1.0  0.59768  0.32756  0.28802  1.0000
  O   O57       1.0  0.52715  0.10042  0.08046  1.0000
  O   O58       1.0  0.7046099999999997  0.16698  0.09818  1.0000
  O   O59       1.0  0.6791199999999997  0.23298999999999997  0.91727  1.0000
  O   O60       1.0  0.7144899999999997  0.36273  0.91938  1.0000
  O   O61       1.0  0.43254  0.23375999999999997  0.33745  1.0000
  O   O62       1.0  0.48657  0.36505  0.35695  1.0000
  O   O63       1.0  0.17191999999999993  0.44577  0.30611  1.0000
  O   O64       1.0  0.17668  0.46352  0.38985  1.0000
  O   O65       1.0  0.6935999999999998  0.23618999999999998  0.35083  1.0000
  O   O66       1.0  0.77507  0.3661  0.3458  1.0000
  O   O67       1.0  0.7584  0.53846  0.37936  1.0000
  O   O68       1.0  0.7280399999999998  0.51272  0.3059500000000001  1.0000
  O   O69       1.0  0.059480000000000026  0.85319  0.4242  1.0000
  O   O70       1.0  0.14277000000000006  0.76319  0.43044  1.0000
  O   O71       1.0  0.4260099999999999  0.061810000000000004  0.37732  1.0000
  O   O72       1.0  0.4545100000000001  0.04709000000000002  0.30562000000000006  1.0000
