data_image0
_chemical_formula_structural       Gd4Cu12H96C144I12N12O24
_chemical_formula_sum              "Gd4 Cu12 H96 C144 I12 N12 O24"
_cell_length_a       9.89762
_cell_length_b       19.83141
_cell_length_c       24.05808
_cell_angle_alpha    110.23514999999999
_cell_angle_beta     101.70217
_cell_angle_gamma    90.17573

_space_group_name_H-M_alt    "P 1"
_space_group_IT_number       1

loop_
  _space_group_symop_operation_xyz
  'x, y, z'

loop_
  _atom_site_type_symbol
  _atom_site_label
  _atom_site_symmetry_multiplicity
  _atom_site_fract_x
  _atom_site_fract_y
  _atom_site_fract_z
  _atom_site_occupancy
  Gd  Gd1       1.0  0.24907000000000007  0.49684000000000006  0.9731200000000002  1.0000
  Gd  Gd2       1.0  0.27228  0.0019800000000000004  0.0255  1.0000
  Gd  Gd3       1.0  0.75098  0.5031499999999999  0.026900000000000004  1.0000
  Gd  Gd4       1.0  0.72777  0.9980200000000001  0.9745000000000001  1.0000
  Cu  Cu1       1.0  0.6429  0.3601  0.44149000000000005  1.0000
  Cu  Cu2       1.0  0.59197  0.47123  0.53041  1.0000
  Cu  Cu3       1.0  0.8455100000000001  0.33795  0.51391  1.0000
  Cu  Cu4       1.0  0.20095  0.13937  0.56074  1.0000
  Cu  Cu5       1.0  0.06312000000000004  0.02987000000000001  0.47107  1.0000
  Cu  Cu6       1.0  0.33475  0.16182000000000002  0.48851  1.0000
  Cu  Cu7       1.0  0.3570199999999999  0.6399999999999999  0.55844  1.0000
  Cu  Cu8       1.0  0.40808999999999995  0.5287499999999999  0.46961  1.0000
  Cu  Cu9       1.0  0.15441000000000005  0.66212  0.48612000000000005  1.0000
  Cu  Cu10      1.0  0.79906  0.86058  0.4392400000000001  1.0000
  Cu  Cu11      1.0  0.9367599999999999  0.97011  0.52888  1.0000
  Cu  Cu12      1.0  0.6651999999999999  0.83832  0.51147  1.0000
  H   H1        1.0  0.6492299999999999  0.54657  0.66545  1.0000
  H   H2        1.0  0.8597700000000001  0.58263  0.7491700000000001  1.0000
  H   H3        1.0  0.10394999999999999  0.53122  0.61195  1.0000
  H   H4        1.0  0.88375  0.50147  0.53464  1.0000
  H   H5        1.0  0.03361000000000008  0.5453200000000001  0.7979800000000002  1.0000
  H   H6        1.0  0.4646600000000001  0.61341  0.8641000000000001  1.0000
  H   H7        1.0  0.47380000000000005  0.62842  0.7652100000000001  1.0000
  H   H8        1.0  0.26167  0.60484  0.68471  1.0000
  H   H9        1.0  0.89431  0.37894  0.64776  1.0000
  H   H10       1.0  0.09794000000000005  0.40917  0.7335900000000001  1.0000
  H   H11       1.0  0.35384  0.3474100000000001  0.6008500000000001  1.0000
  H   H12       1.0  0.14146999999999996  0.32589999999999997  0.52149  1.0000
  H   H13       1.0  0.27792999999999995  0.40031  0.79717  1.0000
  H   H14       1.0  0.7133  0.46417  0.8517200000000001  1.0000
  H   H15       1.0  0.7198500000000001  0.44813000000000003  0.7444300000000001  1.0000
  H   H16       1.0  0.50662  0.41286000000000006  0.6652900000000002  1.0000
  H   H17       1.0  0.71996  0.79202  0.30699  1.0000
  H   H18       1.0  0.8372099999999999  0.74761  0.22043000000000004  1.0000
  H   H19       1.0  0.22215  0.7750099999999999  0.35197  1.0000
  H   H20       1.0  0.08934  0.82237  0.43266000000000004  1.0000
  H   H21       1.0  0.94137  0.66422  0.16218  1.0000
  H   H22       1.0  0.30777  0.6711699999999998  0.09414  1.0000
  H   H23       1.0  0.43054  0.75509  0.19645  1.0000
  H   H24       1.0  0.31009  0.7926199999999998  0.28111  1.0000
  H   H25       1.0  0.98394  0.95333  0.33636  1.0000
  H   H26       1.0  0.10841  0.9175899999999998  0.25156  1.0000
  H   H27       1.0  0.49189000000000005  0.9701599999999999  0.3867100000000001  1.0000
  H   H28       1.0  0.3513099999999999  0.9994199999999999  0.46525  1.0000
  H   H29       1.0  0.22981999999999997  0.9538499999999999  0.20137  1.0000
  H   H30       1.0  0.58863  0.8823800000000002  0.13107000000000002  1.0000
  H   H31       1.0  0.70219  0.8710599999999998  0.23064000000000004  1.0000
  H   H32       1.0  0.57618  0.89747  0.31346000000000007  1.0000
  H   H33       1.0  0.24793  0.12103999999999997  0.35382  1.0000
  H   H34       1.0  0.36462000000000006  0.09127  0.26748  1.0000
  H   H35       1.0  0.75405  0.1517  0.39902  1.0000
  H   H36       1.0  0.62219  0.17311  0.47893  1.0000
  H   H37       1.0  0.48006  0.09684999999999998  0.2026  1.0000
  H   H38       1.0  0.86016  0.03365  0.14715  1.0000
  H   H39       1.0  0.9750799999999997  0.05165  0.25449  1.0000
  H   H40       1.0  0.8428399999999999  0.08842  0.33441  1.0000
  H   H41       1.0  0.40937999999999997  0.7091699999999997  0.6912  1.0000
  H   H42       1.0  0.6131600000000001  0.75283  0.7774600000000002  1.0000
  H   H43       1.0  0.86713  0.7237300000000001  0.6452100000000001  1.0000
  H   H44       1.0  0.6533300000000001  0.6771699999999999  0.5649400000000001  1.0000
  H   H45       1.0  0.77559  0.8346899999999999  0.83551  1.0000
  H   H46       1.0  0.20958000000000007  0.82949  0.90306  1.0000
  H   H47       1.0  0.2306  0.7450500000000001  0.80096  1.0000
  H   H48       1.0  0.026010000000000026  0.70683  0.71636  1.0000
  H   H49       1.0  0.3508  0.45351999999999987  0.33462  1.0000
  H   H50       1.0  0.14027  0.41741  0.25089  1.0000
  H   H51       1.0  0.89602  0.46875999999999995  0.38805  1.0000
  H   H52       1.0  0.11616  0.4985599999999999  0.4654  1.0000
  H   H53       1.0  0.96649  0.45467999999999986  0.20206  1.0000
  H   H54       1.0  0.53542  0.3865999999999999  0.13594  1.0000
  H   H55       1.0  0.52627  0.3716  0.23484  1.0000
  H   H56       1.0  0.7384299999999998  0.3951799999999999  0.31533  1.0000
  H   H57       1.0  0.10569  0.62108  0.35228  1.0000
  H   H58       1.0  0.90207  0.59084  0.26642  1.0000
  H   H59       1.0  0.64612  0.65256  0.39916000000000007  1.0000
  H   H60       1.0  0.85849  0.67406  0.4785100000000001  1.0000
  H   H61       1.0  0.7221  0.5996799999999999  0.20285000000000003  1.0000
  H   H62       1.0  0.28672999999999993  0.53581  0.14828  1.0000
  H   H63       1.0  0.28016  0.55186  0.25557  1.0000
  H   H64       1.0  0.4933699999999999  0.5871599999999999  0.33472  1.0000
  H   H65       1.0  0.28003  0.20796999999999996  0.693  1.0000
  H   H66       1.0  0.16280000000000006  0.25238000000000005  0.7795600000000001  1.0000
  H   H67       1.0  0.7778599999999999  0.22498  0.64803  1.0000
  H   H68       1.0  0.91065  0.17762000000000006  0.5673400000000001  1.0000
  H   H69       1.0  0.05863000000000005  0.33577999999999997  0.8378300000000001  1.0000
  H   H70       1.0  0.69221  0.32882000000000006  0.9058600000000001  1.0000
  H   H71       1.0  0.56946  0.24491000000000002  0.8035500000000001  1.0000
  H   H72       1.0  0.6899100000000001  0.20738999999999996  0.7188900000000001  1.0000
  H   H73       1.0  0.01605000000000003  0.04665000000000001  0.66362  1.0000
  H   H74       1.0  0.8915799999999999  0.08242  0.74842  1.0000
  H   H75       1.0  0.50808  0.02980000000000001  0.61329  1.0000
  H   H76       1.0  0.64864  0.0005199999999999804  0.53473  1.0000
  H   H77       1.0  0.77028  0.04614999999999999  0.79861  1.0000
  H   H78       1.0  0.41162  0.11760999999999994  0.86899  1.0000
  H   H79       1.0  0.2978400000000001  0.12893000000000004  0.7694200000000002  1.0000
  H   H80       1.0  0.42379000000000006  0.10252000000000008  0.6865700000000001  1.0000
  H   H81       1.0  0.75207  0.87889  0.64616  1.0000
  H   H82       1.0  0.63541  0.9086899999999999  0.7325200000000002  1.0000
  H   H83       1.0  0.24596  0.84828  0.60099  1.0000
  H   H84       1.0  0.37779999999999997  0.8268599999999999  0.52106  1.0000
  H   H85       1.0  0.51998  0.9031699999999998  0.7973800000000001  1.0000
  H   H86       1.0  0.1398800000000001  0.9663299999999999  0.8528500000000002  1.0000
  H   H87       1.0  0.024950000000000017  0.9483399999999997  0.74551  1.0000
  H   H88       1.0  0.15717999999999993  0.9115899999999999  0.66559  1.0000
  H   H89       1.0  0.59064  0.29089999999999994  0.30885  1.0000
  H   H90       1.0  0.3869  0.24718  0.22258  1.0000
  H   H91       1.0  0.13287999999999997  0.27624  0.3548  1.0000
  H   H92       1.0  0.34662  0.32287000000000005  0.43509000000000003  1.0000
  H   H93       1.0  0.22447999999999999  0.16532  0.16452  1.0000
  H   H94       1.0  0.7905  0.17050000000000004  0.09694  1.0000
  H   H95       1.0  0.7694499999999999  0.25494  0.19904000000000002  1.0000
  H   H96       1.0  0.97402  0.29316999999999993  0.28364  1.0000
  C   C1        1.0  0.75257  0.5442  0.65595  1.0000
  C   C2        1.0  0.87054  0.5633  0.70222  1.0000
  C   C3        1.0  0.0022699999999999834  0.5587099999999999  0.68803  1.0000
  C   C4        1.0  0.00634  0.5367699999999999  0.62646  1.0000
  C   C5        1.0  0.88366  0.51919  0.58284  1.0000
  C   C6        1.0  0.13005  0.5749999999999998  0.73562  1.0000
  C   C7        1.0  0.12768999999999997  0.5658399999999999  0.79052  1.0000
  C   C8        1.0  0.2471300000000001  0.5798599999999999  0.8363600000000001  1.0000
  C   C9        1.0  0.37249000000000004  0.60376  0.8281100000000001  1.0000
  C   C10       1.0  0.37665999999999994  0.61167  0.7730000000000001  1.0000
  C   C11       1.0  0.25696  0.5975199999999999  0.72712  1.0000
  C   C12       1.0  0.23959999999999998  0.56246  0.89093  1.0000
  C   C13       1.0  0.9987600000000001  0.37354999999999994  0.63972  1.0000
  C   C14       1.0  0.11367000000000001  0.38956  0.68741  1.0000
  C   C15       1.0  0.24760000000000001  0.3826800000000001  0.6756500000000001  1.0000
  C   C16       1.0  0.25544999999999995  0.35731999999999997  0.61426  1.0000
  C   C17       1.0  0.13621  0.34376999999999996  0.56904  1.0000
  C   C18       1.0  0.37468  0.403  0.72441  1.0000
  C   C19       1.0  0.37331  0.41087  0.78468  1.0000
  C   C20       1.0  0.49438000000000004  0.43365  0.8305500000000001  1.0000
  C   C21       1.0  0.61992  0.4471  0.8160400000000001  1.0000
  C   C22       1.0  0.62313  0.43817  0.7562900000000001  1.0000
  C   C23       1.0  0.50202  0.41718999999999995  0.71119  1.0000
  C   C24       1.0  0.49056  0.44605  0.8949900000000001  1.0000
  C   C25       1.0  0.83155  0.78825  0.31464000000000003  1.0000
  C   C26       1.0  0.89778  0.76255  0.26666000000000006  1.0000
  C   C27       1.0  0.04186000000000005  0.75741  0.27820000000000006  1.0000
  C   C28       1.0  0.11122999999999998  0.7786799999999999  0.33935  1.0000
  C   C29       1.0  0.037710000000000056  0.8048  0.3849100000000001  1.0000
  C   C30       1.0  0.11594000000000003  0.73221  0.22823000000000002  1.0000
  C   C31       1.0  0.04803  0.68529  0.17051  1.0000
  C   C32       1.0  0.11722  0.6626999999999998  0.12266000000000002  1.0000
  C   C33       1.0  0.25553999999999993  0.6881499999999997  0.13181  1.0000
  C   C34       1.0  0.32383999999999996  0.73466  0.18898000000000004  1.0000
  C   C35       1.0  0.25552  0.75587  0.23689000000000002  1.0000
  C   C36       1.0  0.04498  0.6095899999999999  0.06296  1.0000
  C   C37       1.0  0.09667  0.9560499999999997  0.34512000000000004  1.0000
  C   C38       1.0  0.16707000000000002  0.937  0.29828000000000005  1.0000
  C   C39       1.0  0.31287  0.94189  0.31156000000000006  1.0000
  C   C40       1.0  0.37976000000000004  0.9641600000000002  0.3729200000000001  1.0000
  C   C41       1.0  0.30196000000000006  0.98163  0.41720000000000007  1.0000
  C   C42       1.0  0.3911  0.92532  0.26311  1.0000
  C   C43       1.0  0.33119000000000004  0.9332699999999999  0.20805000000000004  1.0000
  C   C44       1.0  0.40157  0.91783  0.16091  1.0000
  C   C45       1.0  0.53489  0.8937399999999999  0.16813  1.0000
  C   C46       1.0  0.59721  0.8875599999999999  0.22353000000000003  1.0000
  C   C47       1.0  0.52656  0.9031799999999998  0.27072  1.0000
  C   C48       1.0  0.33671  0.9340799999999998  0.1061  1.0000
  C   C49       1.0  0.36033999999999994  0.12639  0.3615900000000001  1.0000
  C   C50       1.0  0.42696  0.11048  0.31353  1.0000
  C   C51       1.0  0.57257  0.11684999999999998  0.32467  1.0000
  C   C52       1.0  0.64224  0.14202  0.38594  1.0000
  C   C53       1.0  0.56877  0.15558000000000002  0.43154  1.0000
  C   C54       1.0  0.65038  0.09615000000000004  0.27552000000000004  1.0000
  C   C55       1.0  0.5880799999999998  0.08711  0.21515  1.0000
  C   C56       1.0  0.66267  0.06413999999999999  0.16897  1.0000
  C   C57       1.0  0.80274  0.05106999999999999  0.18304  1.0000
  C   C58       1.0  0.8664099999999999  0.06111  0.24288  1.0000
  C   C59       1.0  0.7912099999999999  0.08281  0.2884  1.0000
  C   C60       1.0  0.5929699999999999  0.05154999999999999  0.10474000000000001  1.0000
  C   C61       1.0  0.51347  0.71232  0.68337  1.0000
  C   C62       1.0  0.62775  0.73756  0.73117  1.0000
  C   C63       1.0  0.76047  0.74194  0.7193300000000001  1.0000
  C   C64       1.0  0.76882  0.72049  0.65811  1.0000
  C   C65       1.0  0.6496  0.6948499999999996  0.61277  1.0000
  C   C66       1.0  0.8843799999999999  0.76704  0.7692100000000002  1.0000
  C   C67       1.0  0.8737900000000001  0.8138299999999998  0.8269500000000001  1.0000
  C   C68       1.0  0.99047  0.83674  0.8747300000000001  1.0000
  C   C69       1.0  0.11981000000000007  0.8119600000000001  0.8655000000000002  1.0000
  C   C70       1.0  0.13132000000000013  0.7652900000000001  0.8084000000000002  1.0000
  C   C71       1.0  0.015300000000000051  0.74358  0.7605600000000001  1.0000
  C   C72       1.0  0.9770499999999999  0.8899900000000001  0.9342000000000003  1.0000
  C   C73       1.0  0.24746  0.45586999999999994  0.34411  1.0000
  C   C74       1.0  0.12952  0.43673  0.29784  1.0000
  C   C75       1.0  0.99777  0.4412999999999999  0.31202  1.0000
  C   C76       1.0  0.9936699999999999  0.46324  0.37357  1.0000
  C   C77       1.0  0.11632  0.48085999999999995  0.41721  1.0000
  C   C78       1.0  0.87002  0.42501  0.26441  1.0000
  C   C79       1.0  0.8723999999999998  0.43416  0.20952  1.0000
  C   C80       1.0  0.75296  0.42013999999999996  0.16368  1.0000
  C   C81       1.0  0.62759  0.3962399999999999  0.17193  1.0000
  C   C82       1.0  0.6234099999999999  0.38834  0.22704  1.0000
  C   C83       1.0  0.74311  0.4024899999999999  0.27292  1.0000
  C   C84       1.0  0.76051  0.43754999999999994  0.10911  1.0000
  C   C85       1.0  0.0012200000000000273  0.62645  0.36030000000000006  1.0000
  C   C86       1.0  0.88632  0.6104399999999999  0.31261  1.0000
  C   C87       1.0  0.75239  0.6173099999999999  0.32436  1.0000
  C   C88       1.0  0.7445099999999999  0.6426600000000002  0.3857500000000001  1.0000
  C   C89       1.0  0.8637399999999998  0.65621  0.43097  1.0000
  C   C90       1.0  0.6253100000000001  0.59699  0.2756  1.0000
  C   C91       1.0  0.62671  0.5891199999999999  0.21533000000000002  1.0000
  C   C92       1.0  0.50565  0.56635  0.16946  1.0000
  C   C93       1.0  0.3801000000000001  0.5528899999999999  0.18396000000000007  1.0000
  C   C94       1.0  0.37687  0.56183  0.24372  1.0000
  C   C95       1.0  0.49798  0.5828099999999998  0.28881  1.0000
  C   C96       1.0  0.50947  0.55395  0.10502  1.0000
  C   C97       1.0  0.16844999999999993  0.21173  0.68536  1.0000
  C   C98       1.0  0.10223  0.23744999999999997  0.73333  1.0000
  C   C99       1.0  0.95814  0.24258999999999997  0.7218  1.0000
  C   C100      1.0  0.88877  0.22131999999999996  0.66065  1.0000
  C   C101      1.0  0.9622899999999999  0.19519000000000003  0.61509  1.0000
  C   C102      1.0  0.88407  0.26778  0.77178  1.0000
  C   C103      1.0  0.95197  0.31471  0.8295  1.0000
  C   C104      1.0  0.88278  0.3372900000000001  0.8773500000000002  1.0000
  C   C105      1.0  0.7444500000000001  0.31185000000000007  0.8681900000000001  1.0000
  C   C106      1.0  0.67615  0.26533999999999996  0.81102  1.0000
  C   C107      1.0  0.74449  0.24412999999999996  0.76311  1.0000
  C   C108      1.0  0.9550199999999999  0.39040999999999987  0.93704  1.0000
  C   C109      1.0  0.9033199999999999  0.04392000000000005  0.6548600000000001  1.0000
  C   C110      1.0  0.83293  0.06299000000000002  0.7017  1.0000
  C   C111      1.0  0.68713  0.05808999999999999  0.68843  1.0000
  C   C112      1.0  0.62021  0.03581  0.62708  1.0000
  C   C113      1.0  0.698  0.018330000000000006  0.58279  1.0000
  C   C114      1.0  0.60893  0.07466999999999997  0.7369  1.0000
  C   C115      1.0  0.66891  0.06673000000000004  0.7919700000000001  1.0000
  C   C116      1.0  0.59855  0.08219  0.83912  1.0000
  C   C117      1.0  0.46523000000000003  0.10627000000000004  0.8319000000000001  1.0000
  C   C118      1.0  0.40284  0.11243999999999998  0.7765  1.0000
  C   C119      1.0  0.47347000000000006  0.09681000000000005  0.7293100000000001  1.0000
  C   C120      1.0  0.6633199999999999  0.06595000000000002  0.8939400000000002  1.0000
  C   C121      1.0  0.6396699999999998  0.8735899999999999  0.63839  1.0000
  C   C122      1.0  0.5730599999999999  0.8894999999999998  0.68646  1.0000
  C   C123      1.0  0.42745  0.8831499999999999  0.67532  1.0000
  C   C124      1.0  0.35777  0.8579799999999999  0.61406  1.0000
  C   C125      1.0  0.43123  0.8444199999999998  0.56846  1.0000
  C   C126      1.0  0.34964000000000006  0.90387  0.7244700000000001  1.0000
  C   C127      1.0  0.41195999999999994  0.9129099999999999  0.78484  1.0000
  C   C128      1.0  0.33738  0.93587  0.83102  1.0000
  C   C129      1.0  0.19730000000000006  0.94893  0.8169600000000001  1.0000
  C   C130      1.0  0.13362000000000002  0.9388899999999999  0.75712  1.0000
  C   C131      1.0  0.20881999999999998  0.9171999999999998  0.71159  1.0000
  C   C132      1.0  0.4070800000000001  0.9484599999999999  0.8952500000000002  1.0000
  C   C133      1.0  0.4865499999999999  0.28775  0.31667  1.0000
  C   C134      1.0  0.37229  0.26246  0.26887  1.0000
  C   C135      1.0  0.23956000000000002  0.25807  0.28069000000000005  1.0000
  C   C136      1.0  0.23119  0.27951  0.34191  1.0000
  C   C137      1.0  0.35037999999999997  0.3052  0.38727  1.0000
  C   C138      1.0  0.11567000000000002  0.23296  0.23081000000000002  1.0000
  C   C139      1.0  0.12628  0.18618  0.17307  1.0000
  C   C140      1.0  0.009600000000000017  0.16326000000000002  0.12528000000000003  1.0000
  C   C141      1.0  0.88026  0.18803999999999998  0.1345  1.0000
  C   C142      1.0  0.86873  0.23470999999999997  0.19160000000000002  1.0000
  C   C143      1.0  0.98475  0.25642  0.23945  1.0000
  C   C144      1.0  0.023  0.11000999999999998  0.06581  1.0000
  I   I1        1.0  0.64272  0.4944200000000001  0.43344000000000005  1.0000
  I   I2        1.0  0.6060999999999999  0.33866  0.54253  1.0000
  I   I3        1.0  0.87203  0.3085399999999999  0.40364000000000005  1.0000
  I   I4        1.0  0.20808999999999994  0.005249999999999977  0.56731  1.0000
  I   I5        1.0  0.06735000000000003  0.16223  0.4593100000000001  1.0000
  I   I6        1.0  0.46924  0.19131999999999993  0.59884  1.0000
  I   I7        1.0  0.35729  0.5058399999999997  0.56662  1.0000
  I   I8        1.0  0.39374  0.6614299999999997  0.45743  1.0000
  I   I9        1.0  0.12785999999999995  0.69155  0.59638  1.0000
  I   I10       1.0  0.79186  0.9947400000000002  0.43266000000000004  1.0000
  I   I11       1.0  0.93261  0.83777  0.54068  1.0000
  I   I12       1.0  0.5307900000000001  0.8086799999999998  0.4011300000000001  1.0000
  N   N1        1.0  0.75784  0.52158  0.59665  1.0000
  N   N2        1.0  0.008110000000000077  0.35185  0.5807500000000001  1.0000
  N   N3        1.0  0.8995499999999998  0.81014  0.37343  1.0000
  N   N4        1.0  0.16239  0.9789  0.40422  1.0000
  N   N5        1.0  0.4290399999999999  0.1477  0.42045  1.0000
  N   N6        1.0  0.52285  0.69016  0.6245400000000001  1.0000
  N   N7        1.0  0.24216000000000001  0.47849999999999987  0.40341000000000005  1.0000
  N   N8        1.0  0.9918399999999999  0.64814  0.4192600000000001  1.0000
  N   N9        1.0  0.10045  0.18984  0.62657  1.0000
  N   N10       1.0  0.8375800000000001  0.021060000000000016  0.59577  1.0000
  N   N11       1.0  0.5709499999999998  0.85233  0.57954  1.0000
  N   N12       1.0  0.47712  0.30994  0.37550000000000006  1.0000
  O   O1        1.0  0.13384  0.5224499999999999  0.8884  1.0000
  O   O2        1.0  0.33927  0.5828099999999998  0.93803  1.0000
  O   O3        1.0  0.3804600000000001  0.42714  0.9077500000000002  1.0000
  O   O4        1.0  0.5992  0.47663999999999995  0.93596  1.0000
  O   O5        1.0  0.11634  0.57904  0.02406  1.0000
  O   O6        1.0  0.9136699999999999  0.5960799999999999  0.05283000000000001  1.0000
  O   O7        1.0  0.23399  0.97394  0.10885  1.0000
  O   O8        1.0  0.38766  0.9129399999999999  0.058390000000000004  1.0000
  O   O9        1.0  0.4705  0.07049  0.09256  1.0000
  O   O10       1.0  0.65957  0.020699999999999996  0.06332  1.0000
  O   O11       1.0  0.08663999999999994  0.9223499999999999  0.97256  1.0000
  O   O12       1.0  0.85573  0.9023899999999998  0.94445  1.0000
  O   O13       1.0  0.86621  0.4775999999999999  0.11167000000000002  1.0000
  O   O14       1.0  0.66089  0.41716  0.06200000000000001  1.0000
  O   O15       1.0  0.61957  0.57285  0.09226000000000001  1.0000
  O   O16       1.0  0.40082  0.5233599999999999  0.06406  1.0000
  O   O17       1.0  0.8836899999999999  0.42096  0.97595  1.0000
  O   O18       1.0  0.08634  0.40391999999999995  0.94717  1.0000
  O   O19       1.0  0.76608  0.026130000000000028  0.8912  1.0000
  O   O20       1.0  0.6123  0.08704000000000003  0.94162  1.0000
  O   O21       1.0  0.52956  0.9295000000000001  0.9074200000000001  1.0000
  O   O22       1.0  0.34047  0.97929  0.93667  1.0000
  O   O23       1.0  0.91339  0.07766999999999998  0.027450000000000002  1.0000
  O   O24       1.0  0.14431  0.09760999999999997  0.055550000000000016  1.0000
