data_image0
_chemical_formula_structural       Cu8H112C128N16O40
_chemical_formula_sum              "Cu8 H112 C128 N16 O40"
_cell_length_a       8.57582
_cell_length_b       8.60416
_cell_length_c       53.00589999999999
_cell_angle_alpha    90.01177999999999
_cell_angle_beta     90.0
_cell_angle_gamma    90.14118000000002

_symmetry_space_group_name_H-M    'P 1'
_symmetry_Int_Tables_number       1

loop_
  _symmetry_equiv_pos_as_xyz
  'x,y,z'

loop_
  _atom_site_type_symbol
  _atom_site_label
  _atom_site_symmetry_multiplicity
  _atom_site_fract_x
  _atom_site_fract_y
  _atom_site_fract_z
  _atom_site_occupancy
  Cu  Cu1       1.0  0.09578  0.58976  0.26586  1.0000
  Cu  Cu2       1.0  0.83923  0.82337  0.51289  1.0000
  Cu  Cu3       1.0  0.90045  0.91006  0.7656800000000001  1.0000
  Cu  Cu4       1.0  0.15943  0.67651  0.013  1.0000
  Cu  Cu5       1.0  0.59679  0.41167  0.23402  1.0000
  Cu  Cu6       1.0  0.34063  0.17657  0.9869800000000002  1.0000
  Cu  Cu7       1.0  0.40061  0.08956  0.73427  1.0000
  Cu  Cu8       1.0  0.65925  0.32317  0.48688  1.0000
  H   H1        1.0  0.18391  0.09731  0.29198  1.0000
  H   H2        1.0  0.38264  0.07494  0.28275  1.0000
  H   H3        1.0  0.09999  0.08924  0.24697  1.0000
  H   H4        1.0  0.42338  0.10379  0.23398  1.0000
  H   H5        1.0  0.34807  0.74468  0.53996  1.0000
  H   H6        1.0  0.3318  0.54332  0.53225  1.0000
  H   H7        1.0  0.33515  0.81431  0.4943  1.0000
  H   H8        1.0  0.34859  0.48668  0.48482  1.0000
  H   H9        1.0  0.22664  0.41688  0.31004000000000004  1.0000
  H   H10       1.0  0.20822  0.43405  0.35706  1.0000
  H   H11       1.0  0.8322200000000001  0.76247  0.34647000000000006  1.0000
  H   H12       1.0  0.87207  0.73623  0.30031  1.0000
  H   H13       1.0  0.08874000000000001  0.54273  0.39439  1.0000
  H   H14       1.0  0.8292600000000001  0.78202  0.3852  1.0000
  H   H15       1.0  0.06356  0.55408  0.43548  1.0000
  H   H16       1.0  0.02402  0.60373  0.4806  1.0000
  H   H17       1.0  0.6892200000000003  0.94218  0.4666100000000001  1.0000
  H   H18       1.0  0.71388  0.9051700000000003  0.4203  1.0000
  H   H19       1.0  0.9702100000000001  0.43705  0.22075000000000003  1.0000
  H   H20       1.0  0.00419  0.44758  0.17486  1.0000
  H   H21       1.0  0.3526  0.80706  0.1866  1.0000
  H   H22       1.0  0.30711  0.77918  0.2323  1.0000
  H   H23       1.0  0.29439  0.73786  0.14414  1.0000
  H   H24       1.0  0.03849  0.49217  0.13581  1.0000
  H   H25       1.0  0.3245  0.7819900000000001  0.10420000000000003  1.0000
  H   H26       1.0  0.33835  0.80234  0.05747  1.0000
  H   H27       1.0  0.00255  0.46077  0.04764  1.0000
  H   H28       1.0  0.9771  0.42176  0.09406  1.0000
  H   H29       1.0  0.81496  0.40201  0.79164  1.0000
  H   H30       1.0  0.6149100000000001  0.4210000000000001  0.78293  1.0000
  H   H31       1.0  0.89475  0.41185  0.74651  1.0000
  H   H32       1.0  0.56975  0.39785  0.73435  1.0000
  H   H33       1.0  0.6512  0.75643  0.03987000000000001  1.0000
  H   H34       1.0  0.66738  0.95796  0.03234  1.0000
  H   H35       1.0  0.66071  0.68758  0.9942400000000001  1.0000
  H   H36       1.0  0.64855  0.0154  0.98498  1.0000
  H   H37       1.0  0.77136  0.08218  0.81005  1.0000
  H   H38       1.0  0.79224  0.06594  0.85702  1.0000
  H   H39       1.0  0.16741  0.73702  0.84608  1.0000
  H   H40       1.0  0.12478  0.7615  0.8000000000000003  1.0000
  H   H41       1.0  0.91219  0.9572000000000002  0.89424  1.0000
  H   H42       1.0  0.17148  0.71772  0.8851  1.0000
  H   H43       1.0  0.93704  0.9459400000000001  0.93542  1.0000
  H   H44       1.0  0.9755499999999999  0.89551  0.98053  1.0000
  H   H45       1.0  0.30991  0.5566  0.96657  1.0000
  H   H46       1.0  0.28630000000000005  0.59424  0.9202800000000001  1.0000
  H   H47       1.0  0.02407  0.06518  0.72071  1.0000
  H   H48       1.0  0.9930299999999999  0.05324  0.67477  1.0000
  H   H49       1.0  0.64699  0.69115  0.6861700000000001  1.0000
  H   H50       1.0  0.6895  0.72052  0.73196  1.0000
  H   H51       1.0  0.70618  0.76091  0.6438  1.0000
  H   H52       1.0  0.96102  0.00802  0.63572  1.0000
  H   H53       1.0  0.67595  0.71797  0.604  1.0000
  H   H54       1.0  0.6615  0.69835  0.55727  1.0000
  H   H55       1.0  0.9973  0.04006  0.5475  1.0000
  H   H56       1.0  0.02317  0.07842  0.59392  1.0000
  H   H57       1.0  0.68331  0.90343  0.208  1.0000
  H   H58       1.0  0.88231  0.9266000000000001  0.21712000000000006  1.0000
  H   H59       1.0  0.5992700000000001  0.91439  0.25281  1.0000
  H   H60       1.0  0.92177  0.90232  0.26619  1.0000
  H   H61       1.0  0.84814  0.25761  0.9600400000000001  1.0000
  H   H62       1.0  0.83362  0.45891  0.96774  1.0000
  H   H63       1.0  0.8392900000000002  0.18726  0.00562  1.0000
  H   H64       1.0  0.85272  0.51496  0.01511  1.0000
  H   H65       1.0  0.72641  0.58339  0.18993  1.0000
  H   H66       1.0  0.70842  0.56583  0.1429  1.0000
  H   H67       1.0  0.33126  0.2368  0.15349000000000002  1.0000
  H   H68       1.0  0.37134000000000006  0.26263  0.19962  1.0000
  H   H69       1.0  0.5885500000000001  0.45726  0.10559  1.0000
  H   H70       1.0  0.32816  0.2176  0.11473000000000001  1.0000
  H   H71       1.0  0.56327  0.44633  0.06449  1.0000
  H   H72       1.0  0.52453  0.39579  0.019360000000000002  1.0000
  H   H73       1.0  0.18954  0.05584  0.03332  1.0000
  H   H74       1.0  0.2133  0.09368  0.07963  1.0000
  H   H75       1.0  0.47217000000000003  0.5647400000000001  0.27914  1.0000
  H   H76       1.0  0.5048  0.5529  0.32506000000000007  1.0000
  H   H77       1.0  0.85093  0.19299  0.3133  1.0000
  H   H78       1.0  0.80702  0.22233  0.26759  1.0000
  H   H79       1.0  0.79337  0.26224  0.35574  1.0000
  H   H80       1.0  0.53849  0.50767  0.36411  1.0000
  H   H81       1.0  0.82387  0.21856000000000003  0.3957200000000001  1.0000
  H   H82       1.0  0.83775  0.1983  0.44245000000000007  1.0000
  H   H83       1.0  0.5030200000000001  0.5391  0.4522800000000001  1.0000
  H   H84       1.0  0.47745  0.57796  0.40585  1.0000
  H   H85       1.0  0.3134  0.5961500000000001  0.70829  1.0000
  H   H86       1.0  0.11361  0.57594  0.71703  1.0000
  H   H87       1.0  0.3938  0.58793  0.75338  1.0000
  H   H88       1.0  0.06926  0.60223  0.7656500000000002  1.0000
  H   H89       1.0  0.15201  0.24277000000000004  0.45991  1.0000
  H   H90       1.0  0.16693  0.04162  0.46763  1.0000
  H   H91       1.0  0.16045  0.31346  0.50547  1.0000
  H   H92       1.0  0.14672  0.98593  0.51504  1.0000
  H   H93       1.0  0.27094  0.9174600000000002  0.6899000000000002  1.0000
  H   H94       1.0  0.29168  0.93373  0.64293  1.0000
  H   H95       1.0  0.66788  0.26344  0.6538400000000002  1.0000
  H   H96       1.0  0.62529  0.23881  0.69992  1.0000
  H   H97       1.0  0.41193  0.0424  0.60571  1.0000
  H   H98       1.0  0.6719  0.28259  0.61476  1.0000
  H   H99       1.0  0.43651  0.05351  0.56451  1.0000
  H   H100      1.0  0.47518  0.1037  0.51938  1.0000
  H   H101      1.0  0.81044  0.4435  0.53328  1.0000
  H   H102      1.0  0.78675  0.4062100000000001  0.57957  1.0000
  H   H103      1.0  0.52364  0.93441  0.77929  1.0000
  H   H104      1.0  0.49260999999999994  0.9468100000000002  0.82524  1.0000
  H   H105      1.0  0.14795  0.30837  0.81377  1.0000
  H   H106      1.0  0.19026  0.27865  0.7679900000000001  1.0000
  H   H107      1.0  0.20683  0.239  0.8561400000000001  1.0000
  H   H108      1.0  0.46083  0.9923  0.8642300000000003  1.0000
  H   H109      1.0  0.17615  0.28142  0.8959100000000002  1.0000
  H   H110      1.0  0.1626  0.30188  0.94265  1.0000
  H   H111      1.0  0.49775  0.9613700000000001  0.95244  1.0000
  H   H112      1.0  0.52283  0.92221  0.90599  1.0000
  C   C1        1.0  0.24221  0.87085  0.27762  1.0000
  C   C2        1.0  0.26175  0.0476  0.27756  1.0000
  C   C3        1.0  0.22061  0.12030000000000002  0.25182  1.0000
  C   C4        1.0  0.22668000000000005  0.29875  0.25379  1.0000
  C   C5        1.0  0.12227  0.67465  0.52643  1.0000
  C   C6        1.0  0.29985000000000006  0.6611400000000001  0.52625  1.0000
  C   C7        1.0  0.36947  0.6968900000000001  0.5001  1.0000
  C   C8        1.0  0.54795  0.69511  0.50239  1.0000
  C   C9        1.0  0.14263  0.49302999999999997  0.31914  1.0000
  C   C10       1.0  0.13055  0.50286  0.3452700000000001  1.0000
  C   C11       1.0  0.01951  0.60254  0.3563100000000001  1.0000
  C   C12       1.0  0.9234  0.68593  0.33955  1.0000
  C   C13       1.0  0.9434099999999999  0.67178  0.3137  1.0000
  C   C14       1.0  0.008460000000000002  0.61537  0.38368  1.0000
  C   C15       1.0  0.90836  0.70961  0.39617  1.0000
  C   C16       1.0  0.89339  0.72757  0.42338  1.0000
  C   C17       1.0  0.9795100000000001  0.64184  0.44112  1.0000
  C   C18       1.0  0.9586100000000001  0.66914  0.4667  1.0000
  C   C19       1.0  0.77188  0.8588  0.45884  1.0000
  C   C20       1.0  0.78639  0.83683  0.43296000000000007  1.0000
  C   C21       1.0  0.05287  0.51854  0.21244  1.0000
  C   C22       1.0  0.07289  0.52595  0.18652000000000002  1.0000
  C   C23       1.0  0.18045  0.63238  0.17614000000000005  1.0000
  C   C24       1.0  0.2664  0.7235  0.19321  1.0000
  C   C25       1.0  0.24149  0.7088600000000002  0.21902  1.0000
  C   C26       1.0  0.20508  0.65283  0.14915  1.0000
  C   C27       1.0  0.12679  0.57782  0.1306  1.0000
  C   C28       1.0  0.14719  0.59957  0.10357000000000001  1.0000
  C   C29       1.0  0.25112  0.70748  0.09259000000000003  1.0000
  C   C30       1.0  0.25946  0.72041  0.06653  1.0000
  C   C31       1.0  0.07204  0.52865  0.06091  1.0000
  C   C32       1.0  0.05814000000000001  0.50866  0.08684000000000001  1.0000
  C   C33       1.0  0.75057  0.62727  0.77761  1.0000
  C   C34       1.0  0.73484  0.45045  0.77746  1.0000
  C   C35       1.0  0.77487  0.37933  0.7515900000000001  1.0000
  C   C36       1.0  0.76975  0.20089  0.75365  1.0000
  C   C37       1.0  0.87666  0.82622  0.02631  1.0000
  C   C38       1.0  0.6988400000000001  0.8403  0.02617  1.0000
  C   C39       1.0  0.6272300000000001  0.80508  0.00014  1.0000
  C   C40       1.0  0.44854  0.80585  0.002540000000000001  1.0000
  C   C41       1.0  0.85584  0.006150000000000001  0.81905  1.0000
  C   C42       1.0  0.8692100000000003  0.9966899999999999  0.8451700000000002  1.0000
  C   C43       1.0  0.98065  0.89709  0.8561300000000002  1.0000
  C   C44       1.0  0.07585  0.81344  0.83926  1.0000
  C   C45       1.0  0.05448  0.8270400000000001  0.8134100000000002  1.0000
  C   C46       1.0  0.9923700000000001  0.88447  0.88352  1.0000
  C   C47       1.0  0.09236  0.79029  0.89605  1.0000
  C   C48       1.0  0.10694  0.77215  0.92329  1.0000
  C   C49       1.0  0.02069  0.85777  0.9410400000000001  1.0000
  C   C50       1.0  0.04084  0.8299  0.96663  1.0000
  C   C51       1.0  0.22728  0.64003  0.9587900000000001  1.0000
  C   C52       1.0  0.21352  0.66257  0.93291  1.0000
  C   C53       1.0  0.94245  0.98298  0.71232  1.0000
  C   C54       1.0  0.92414  0.9747300000000001  0.68638  1.0000
  C   C55       1.0  0.81805  0.86723  0.6759  1.0000
  C   C56       1.0  0.73192  0.7757  0.69288  1.0000
  C   C57       1.0  0.75515  0.79111  0.7187200000000002  1.0000
  C   C58       1.0  0.79479  0.84646  0.6488900000000001  1.0000
  C   C59       1.0  0.8732200000000002  0.92206  0.63042  1.0000
  C   C60       1.0  0.85311  0.90053  0.60339  1.0000
  C   C61       1.0  0.74914  0.79269  0.5924  1.0000
  C   C62       1.0  0.74037  0.78024  0.56635  1.0000
  C   C63       1.0  0.9277100000000003  0.9721199999999999  0.56075  1.0000
  C   C64       1.0  0.9420200000000001  0.99167  0.58668  1.0000
  C   C65       1.0  0.74303  0.13064  0.22217000000000006  1.0000
  C   C66       1.0  0.76157  0.9542700000000001  0.22227000000000002  1.0000
  C   C67       1.0  0.7200200000000001  0.88358  0.24811000000000002  1.0000
  C   C68       1.0  0.7275400000000001  0.70527  0.24636  1.0000
  C   C69       1.0  0.62347  0.32689  0.97371  1.0000
  C   C70       1.0  0.80139  0.34116  0.97384  1.0000
  C   C71       1.0  0.8732900000000001  0.30497  0.9998000000000001  1.0000
  C   C72       1.0  0.05188  0.3058100000000001  0.9973800000000002  1.0000
  C   C73       1.0  0.64227  0.50711  0.18081  1.0000
  C   C74       1.0  0.63032  0.49707000000000007  0.15469  1.0000
  C   C75       1.0  0.51892  0.39725  0.14366  1.0000
  C   C76       1.0  0.42255  0.31366  0.16041000000000005  1.0000
  C   C77       1.0  0.44257  0.32786  0.18627  1.0000
  C   C78       1.0  0.50794  0.38449  0.11628  1.0000
  C   C79       1.0  0.40756  0.29016  0.10378  1.0000
  C   C80       1.0  0.39294  0.27202  0.07657  1.0000
  C   C81       1.0  0.47942999999999997  0.35797  0.05884  1.0000
  C   C82       1.0  0.45918  0.33005  0.03327  1.0000
  C   C83       1.0  0.2723  0.13956  0.0411  1.0000
  C   C84       1.0  0.2861  0.16214  0.06697  1.0000
  C   C85       1.0  0.5543  0.48316000000000003  0.28746  1.0000
  C   C86       1.0  0.57342  0.47487  0.31338  1.0000
  C   C87       1.0  0.68007  0.36803  0.32376  1.0000
  C   C88       1.0  0.76571  0.27712  0.30669  1.0000
  C   C89       1.0  0.7417  0.29261  0.28087  1.0000
  C   C90       1.0  0.70439  0.34722  0.35075000000000006  1.0000
  C   C91       1.0  0.62647  0.42212  0.36932  1.0000
  C   C92       1.0  0.64692  0.40044  0.39634000000000014  1.0000
  C   C93       1.0  0.75064  0.29285  0.4073200000000001  1.0000
  C   C94       1.0  0.759  0.27997  0.43338  1.0000
  C   C95       1.0  0.57207  0.47126  0.439  1.0000
  C   C96       1.0  0.55818  0.49119999999999997  0.41308000000000006  1.0000
  C   C97       1.0  0.25132  0.37044  0.72243  1.0000
  C   C98       1.0  0.23359  0.54726  0.72251  1.0000
  C   C99       1.0  0.27387  0.61977  0.74829  1.0000
  C   C100      1.0  0.2693  0.7984  0.74623  1.0000
  C   C101      1.0  0.37662  0.17399  0.47367  1.0000
  C   C102      1.0  0.19878  0.15944  0.47374  1.0000
  C   C103      1.0  0.12653  0.19572  0.49967  1.0000
  C   C104      1.0  0.9480300000000002  0.19461  0.49702  1.0000
  C   C105      1.0  0.35563  0.99362  0.68089  1.0000
  C   C106      1.0  0.36899  0.00305  0.65477  1.0000
  C   C107      1.0  0.48072  0.10284000000000001  0.6438  1.0000
  C   C108      1.0  0.5762  0.18673000000000003  0.66066  1.0000
  C   C109      1.0  0.55481  0.17310000000000003  0.68651  1.0000
  C   C110      1.0  0.49236  0.11541000000000001  0.61641  1.0000
  C   C111      1.0  0.5925  0.20976  0.60385  1.0000
  C   C112      1.0  0.60698  0.22774  0.5766  1.0000
  C   C113      1.0  0.52043  0.14179  0.55887  1.0000
  C   C114      1.0  0.54072  0.16944  0.53327  1.0000
  C   C115      1.0  0.72768  0.35981  0.54107  1.0000
  C   C116      1.0  0.71382  0.33753  0.56696  1.0000
  C   C117      1.0  0.44243  0.01673  0.7876700000000001  1.0000
  C   C118      1.0  0.42413  0.02519  0.81361  1.0000
  C   C119      1.0  0.31845  0.13268  0.82406  1.0000
  C   C120      1.0  0.23263  0.22396  0.80707  1.0000
  C   C121      1.0  0.25584  0.20837  0.78123  1.0000
  C   C122      1.0  0.29515  0.15356  0.85106  1.0000
  C   C123      1.0  0.37328  0.0781  0.8695200000000001  1.0000
  C   C124      1.0  0.35330000000000006  0.09974  0.8965400000000002  1.0000
  C   C125      1.0  0.24956999999999996  0.20734000000000002  0.9075200000000002  1.0000
  C   C126      1.0  0.24129000000000003  0.22024  0.93357  1.0000
  C   C127      1.0  0.4284  0.02897  0.93916  1.0000
  C   C128      1.0  0.4422  0.009  0.91324  1.0000
  N   N1        1.0  0.05247  0.57751  0.30355  1.0000
  N   N2        1.0  0.85825  0.77697  0.47542000000000006  1.0000
  N   N3        1.0  0.13508  0.60959  0.22843  1.0000
  N   N4        1.0  0.17046000000000003  0.63396  0.05084000000000002  1.0000
  N   N5        1.0  0.94512  0.92139  0.80336  1.0000
  N   N6        1.0  0.14053  0.7215  0.9753700000000002  1.0000
  N   N7        1.0  0.86008  0.89151  0.72823  1.0000
  N   N8        1.0  0.8289500000000002  0.86712  0.55067  1.0000
  N   N9        1.0  0.55175  0.42257  0.1964  1.0000
  N   N10       1.0  0.35923  0.22135  0.02453  1.0000
  N   N11       1.0  0.63643  0.39246  0.27145  1.0000
  N   N12       1.0  0.67022  0.3662  0.44907  1.0000
  N   N13       1.0  0.44517000000000007  0.07858  0.6965700000000001  1.0000
  N   N14       1.0  0.64086  0.27784  0.5245  1.0000
  N   N15       1.0  0.36042  0.10804  0.7717400000000001  1.0000
  N   N16       1.0  0.33011  0.13394  0.94923  1.0000
  O   O1        1.0  0.10882  0.82132  0.26884  1.0000
  O   O2        1.0  0.34696  0.78308  0.28543  1.0000
  O   O3        1.0  0.31597  0.06209  0.23207000000000005  1.0000
  O   O4        1.0  0.10873  0.35941  0.26535  1.0000
  O   O5        1.0  0.33794  0.37453  0.24472  1.0000
  O   O6        1.0  0.07  0.8032  0.51632  1.0000
  O   O7        1.0  0.03852000000000001  0.57025  0.53535  1.0000
  O   O8        1.0  0.3126  0.59409  0.48114  1.0000
  O   O9        1.0  0.60818  0.82085  0.51151  1.0000
  O   O10       1.0  0.62507  0.57783  0.49616  1.0000
  O   O11       1.0  0.88327  0.67945  0.7688700000000003  1.0000
  O   O12       1.0  0.64301  0.71131  0.78544  1.0000
  O   O13       1.0  0.67764  0.43792  0.7321200000000002  1.0000
  O   O14       1.0  0.88868  0.14089  0.7651000000000002  1.0000
  O   O15       1.0  0.65737  0.12508  0.7448900000000002  1.0000
  O   O16       1.0  0.92891  0.69748  0.01625  1.0000
  O   O17       1.0  0.96088  0.93008  0.03531  1.0000
  O   O18       1.0  0.68312  0.90761  0.98114  1.0000
  O   O19       1.0  0.39055000000000006  0.67909  0.011630000000000003  1.0000
  O   O20       1.0  0.3688  0.92161  0.9963  1.0000
  O   O21       1.0  0.6098  0.17995  0.23103000000000007  1.0000
  O   O22       1.0  0.849  0.21791  0.21449000000000004  1.0000
  O   O23       1.0  0.81465  0.9447400000000001  0.26779  1.0000
  O   O24       1.0  0.61469  0.64197  0.23375000000000004  1.0000
  O   O25       1.0  0.83661  0.63245  0.25652  1.0000
  O   O26       1.0  0.57116  0.19785  0.98374  1.0000
  O   O27       1.0  0.53933  0.43033  0.96472  1.0000
  O   O28       1.0  0.81871  0.40685  0.018940000000000002  1.0000
  O   O29       1.0  0.10944  0.17929  0.9882200000000002  1.0000
  O   O30       1.0  0.13189  0.42157  0.0037000000000000006  1.0000
  O   O31       1.0  0.38438  0.3205200000000001  0.73119  1.0000
  O   O32       1.0  0.14595  0.28322  0.71457  1.0000
  O   O33       1.0  0.17672  0.56169  0.76784  1.0000
  O   O34       1.0  0.38855  0.85876  0.73484  1.0000
  O   O35       1.0  0.1576  0.87443  0.75505  1.0000
  O   O36       1.0  0.42869  0.30323000000000006  0.48367000000000004  1.0000
  O   O37       1.0  0.46074  0.07029  0.46472  1.0000
  O   O38       1.0  0.18106  0.09391  0.51885  1.0000
  O   O39       1.0  0.89048  0.32221  0.4883000000000001  1.0000
  O   O40       1.0  0.86782  0.0776  0.5026  1.0000
