data_image0
_chemical_formula_structural       Ca4Zn8H68C108O48
_chemical_formula_sum              "Ca4 Zn8 H68 C108 O48"
_cell_length_a       7.77065
_cell_length_b       18.37897
_cell_length_c       23.63343
_cell_angle_alpha    90.0
_cell_angle_beta     90.0
_cell_angle_gamma    89.86209

_symmetry_space_group_name_H-M    'P 1'
_symmetry_Int_Tables_number       1

loop_
  _symmetry_equiv_pos_as_xyz
  'x,y,z'

loop_
  _atom_site_type_symbol
  _atom_site_label
  _atom_site_symmetry_multiplicity
  _atom_site_fract_x
  _atom_site_fract_y
  _atom_site_fract_z
  _atom_site_occupancy
  Ca  Ca1       1.0  0.5  0.5  0.0  1.0000
  Ca  Ca2       1.0  0.0  0.0  0.0  1.0000
  Ca  Ca3       1.0  0.5  0.5  0.5  1.0000
  Ca  Ca4       1.0  0.0  0.0  0.5  1.0000
  Zn  Zn1       1.0  0.82888  0.55267  0.9161999999999999  1.0000
  Zn  Zn2       1.0  0.6716299999999998  0.05319999999999999  0.0836  1.0000
  Zn  Zn3       1.0  0.17112  0.44733  0.4162  1.0000
  Zn  Zn4       1.0  0.32837  0.9468  0.5836  1.0000
  Zn  Zn5       1.0  0.17112  0.44733  0.0838  1.0000
  Zn  Zn6       1.0  0.32837  0.9468  0.91639  1.0000
  Zn  Zn7       1.0  0.82888  0.55267  0.5838  1.0000
  Zn  Zn8       1.0  0.6716299999999998  0.05319999999999999  0.41639  1.0000
  H   H1        1.0  0.74688  0.3054  0.024509999999999997  1.0000
  H   H2        1.0  0.01083  0.34233  0.86716  1.0000
  H   H3        1.0  0.89573  0.12408999999999999  0.9196899999999998  1.0000
  H   H4        1.0  0.93532  0.1831  0.8035399999999999  1.0000
  H   H5        1.0  0.119  0.23954  0.81154  1.0000
  H   H6        1.0  0.11576  0.1505  0.84115  1.0000
  H   H7        1.0  0.20359999999999995  0.46504999999999996  0.8423399999999999  1.0000
  H   H8        1.0  0.93542  0.43222  0.7894599999999998  1.0000
  H   H9        1.0  0.75324  0.8056  0.97546  1.0000
  H   H10       1.0  0.48865  0.84218  0.13281  1.0000
  H   H11       1.0  0.60557  0.62406  0.08011999999999998  1.0000
  H   H12       1.0  0.56514  0.68304  0.19629  1.0000
  H   H13       1.0  0.38129  0.73991  0.18825  1.0000
  H   H14       1.0  0.3845  0.65066  0.15884  1.0000
  H   H15       1.0  0.29624  0.9655299999999999  0.15762  1.0000
  H   H16       1.0  0.56449  0.9322999999999999  0.21053  1.0000
  H   H17       1.0  0.25312  0.6946  0.52451  1.0000
  H   H18       1.0  0.98917  0.6576699999999998  0.36716  1.0000
  H   H19       1.0  0.10425999999999998  0.8759099999999999  0.41968999999999995  1.0000
  H   H20       1.0  0.06468  0.8168999999999998  0.30354  1.0000
  H   H21       1.0  0.8809999999999998  0.7604599999999998  0.31154999999999994  1.0000
  H   H22       1.0  0.88424  0.8495  0.34115  1.0000
  H   H23       1.0  0.7964  0.53495  0.3423399999999999  1.0000
  H   H24       1.0  0.06458  0.56778  0.28946  1.0000
  H   H25       1.0  0.24676  0.19439999999999993  0.47545999999999994  1.0000
  H   H26       1.0  0.51134  0.15781999999999996  0.63281  1.0000
  H   H27       1.0  0.39443  0.3759399999999999  0.58012  1.0000
  H   H28       1.0  0.43486  0.31696  0.69628  1.0000
  H   H29       1.0  0.61871  0.26008999999999993  0.6882499999999998  1.0000
  H   H30       1.0  0.6155  0.3493399999999999  0.65884  1.0000
  H   H31       1.0  0.70376  0.03447  0.65762  1.0000
  H   H32       1.0  0.43551  0.0677  0.7105299999999998  1.0000
  H   H33       1.0  0.25312  0.6946  0.97549  1.0000
  H   H34       1.0  0.98917  0.6576699999999998  0.13284  1.0000
  H   H35       1.0  0.10425999999999998  0.8759099999999999  0.08031  1.0000
  H   H36       1.0  0.06468  0.8168999999999998  0.19645999999999997  1.0000
  H   H37       1.0  0.8809999999999998  0.7604599999999998  0.18845  1.0000
  H   H38       1.0  0.88424  0.8495  0.15885  1.0000
  H   H39       1.0  0.7964  0.53495  0.15766  1.0000
  H   H40       1.0  0.06458  0.56778  0.21053  1.0000
  H   H41       1.0  0.24676  0.19439999999999993  0.02453  1.0000
  H   H42       1.0  0.51134  0.15781999999999996  0.86719  1.0000
  H   H43       1.0  0.39443  0.3759399999999999  0.91987  1.0000
  H   H44       1.0  0.43486  0.31696  0.80371  1.0000
  H   H45       1.0  0.61871  0.26008999999999993  0.8117499999999999  1.0000
  H   H46       1.0  0.6155  0.3493399999999999  0.84116  1.0000
  H   H47       1.0  0.70376  0.03447  0.8423699999999998  1.0000
  H   H48       1.0  0.43551  0.0677  0.7894699999999999  1.0000
  H   H49       1.0  0.74688  0.3054  0.47548999999999997  1.0000
  H   H50       1.0  0.01083  0.34233  0.63284  1.0000
  H   H51       1.0  0.89573  0.12408999999999999  0.58031  1.0000
  H   H52       1.0  0.93532  0.1831  0.69646  1.0000
  H   H53       1.0  0.119  0.23954  0.68845  1.0000
  H   H54       1.0  0.11576  0.1505  0.65885  1.0000
  H   H55       1.0  0.20359999999999995  0.46504999999999996  0.65766  1.0000
  H   H56       1.0  0.93542  0.43222  0.7105299999999998  1.0000
  H   H57       1.0  0.75324  0.8056  0.52453  1.0000
  H   H58       1.0  0.48865  0.84218  0.36719  1.0000
  H   H59       1.0  0.60557  0.62406  0.41987  1.0000
  H   H60       1.0  0.56514  0.68304  0.30371  1.0000
  H   H61       1.0  0.38129  0.73991  0.31175  1.0000
  H   H62       1.0  0.3845  0.65066  0.34116  1.0000
  H   H63       1.0  0.29624  0.9655299999999999  0.34236999999999995  1.0000
  H   H64       1.0  0.56449  0.9322999999999999  0.28947  1.0000
  H   H65       1.0  0.65252  0.53217  0.7499999999999999  1.0000
  H   H66       1.0  0.84631  0.03225  0.25  1.0000
  H   H67       1.0  0.34747  0.46783  0.25  1.0000
  H   H68       1.0  0.15369  0.9677499999999999  0.7499999999999999  1.0000
  C   C1        1.0  0.80799  0.28406  0.9866399999999999  1.0000
  C   C2        1.0  0.87756  0.33167  0.94633  1.0000
  C   C3        1.0  0.95651  0.3042  0.8974799999999999  1.0000
  C   C4        1.0  0.85328  0.41151  0.9538899999999998  1.0000
  C   C5        1.0  0.7509499999999998  0.15577999999999997  0.01927  1.0000
  C   C6        1.0  0.8183299999999998  0.20904999999999996  0.97757  1.0000
  C   C7        1.0  0.89354  0.18240999999999996  0.9275599999999999  1.0000
  C   C8        1.0  0.9629  0.22931999999999997  0.8869999999999998  1.0000
  C   C9        1.0  0.03795  0.19932  0.8330099999999998  1.0000
  C   C10       1.0  0.53461  0.51285  0.85515  1.0000
  C   C11       1.0  0.43733  0.49906  0.80155  1.0000
  C   C12       1.0  0.26806  0.47449  0.8020499999999999  1.0000
  C   C13       1.0  0.69241  0.784  0.013259999999999997  1.0000
  C   C14       1.0  0.62263  0.8316399999999998  0.05371  1.0000
  C   C15       1.0  0.5432399999999997  0.80413  0.1024  1.0000
  C   C16       1.0  0.64811  0.9114499999999999  0.0462  1.0000
  C   C17       1.0  0.7486799999999998  0.65534  0.9803599999999998  1.0000
  C   C18       1.0  0.68216  0.70897  0.022139999999999996  1.0000
  C   C19       1.0  0.60721  0.68237  0.07223  1.0000
  C   C20       1.0  0.53728  0.72922  0.11280999999999997  1.0000
  C   C21       1.0  0.46226  0.69938  0.16686  1.0000
  C   C22       1.0  0.96555  0.01406  0.14485  1.0000
  C   C23       1.0  0.06208  0.9994099999999999  0.19844  1.0000
  C   C24       1.0  0.23157  0.9748  0.19793  1.0000
  C   C25       1.0  0.19201  0.71594  0.48663999999999996  1.0000
  C   C26       1.0  0.12244  0.66833  0.4463299999999999  1.0000
  C   C27       1.0  0.04349  0.6958  0.39748  1.0000
  C   C28       1.0  0.14672  0.58849  0.4538899999999999  1.0000
  C   C29       1.0  0.24905000000000002  0.8442199999999997  0.51926  1.0000
  C   C30       1.0  0.18167  0.79095  0.47757  1.0000
  C   C31       1.0  0.10646  0.81759  0.42756  1.0000
  C   C32       1.0  0.0371  0.7706799999999999  0.38699999999999996  1.0000
  C   C33       1.0  0.96205  0.8006799999999998  0.33301  1.0000
  C   C34       1.0  0.46539  0.48714999999999997  0.35515  1.0000
  C   C35       1.0  0.56267  0.50094  0.30154999999999993  1.0000
  C   C36       1.0  0.7319399999999998  0.52551  0.30205  1.0000
  C   C37       1.0  0.30759  0.216  0.51326  1.0000
  C   C38       1.0  0.37737  0.16836  0.55371  1.0000
  C   C39       1.0  0.45676  0.19587  0.6023999999999999  1.0000
  C   C40       1.0  0.35189  0.08855  0.5462  1.0000
  C   C41       1.0  0.25132  0.34465999999999997  0.48035999999999995  1.0000
  C   C42       1.0  0.31784  0.29103  0.52214  1.0000
  C   C43       1.0  0.39279  0.31763  0.57223  1.0000
  C   C44       1.0  0.46272  0.27078  0.61281  1.0000
  C   C45       1.0  0.53773  0.30062  0.66686  1.0000
  C   C46       1.0  0.03445  0.9859399999999999  0.64485  1.0000
  C   C47       1.0  0.93792  0.00059  0.69844  1.0000
  C   C48       1.0  0.76843  0.0252  0.69793  1.0000
  C   C49       1.0  0.19201  0.71594  0.01336  1.0000
  C   C50       1.0  0.12244  0.66833  0.05367  1.0000
  C   C51       1.0  0.04349  0.6958  0.10251999999999999  1.0000
  C   C52       1.0  0.14672  0.58849  0.046099999999999995  1.0000
  C   C53       1.0  0.24905000000000002  0.8442199999999997  0.98073  1.0000
  C   C54       1.0  0.18167  0.79095  0.02242999999999999  1.0000
  C   C55       1.0  0.10646  0.81759  0.07244  1.0000
  C   C56       1.0  0.0371  0.7706799999999999  0.11299  1.0000
  C   C57       1.0  0.96205  0.8006799999999998  0.16697999999999996  1.0000
  C   C58       1.0  0.46539  0.48714999999999997  0.14485  1.0000
  C   C59       1.0  0.56267  0.50094  0.19845  1.0000
  C   C60       1.0  0.7319399999999998  0.52551  0.19795  1.0000
  C   C61       1.0  0.30759  0.216  0.98674  1.0000
  C   C62       1.0  0.37737  0.16836  0.94629  1.0000
  C   C63       1.0  0.45676  0.19587  0.8976  1.0000
  C   C64       1.0  0.35189  0.08855  0.9538  1.0000
  C   C65       1.0  0.25132  0.34465999999999997  0.01964  1.0000
  C   C66       1.0  0.31784  0.29103  0.9778599999999998  1.0000
  C   C67       1.0  0.39279  0.31763  0.92777  1.0000
  C   C68       1.0  0.46272  0.27078  0.88718  1.0000
  C   C69       1.0  0.53773  0.30062  0.8331399999999999  1.0000
  C   C70       1.0  0.03445  0.9859399999999999  0.85515  1.0000
  C   C71       1.0  0.93792  0.00059  0.8015599999999999  1.0000
  C   C72       1.0  0.76843  0.0252  0.80206  1.0000
  C   C73       1.0  0.80799  0.28406  0.51336  1.0000
  C   C74       1.0  0.87756  0.33167  0.55367  1.0000
  C   C75       1.0  0.95651  0.3042  0.60252  1.0000
  C   C76       1.0  0.85328  0.41151  0.5461  1.0000
  C   C77       1.0  0.7509499999999998  0.15577999999999997  0.48073  1.0000
  C   C78       1.0  0.8183299999999998  0.20904999999999996  0.52243  1.0000
  C   C79       1.0  0.89354  0.18240999999999996  0.5724399999999998  1.0000
  C   C80       1.0  0.9629  0.22931999999999997  0.61299  1.0000
  C   C81       1.0  0.03795  0.19932  0.6669799999999999  1.0000
  C   C82       1.0  0.53461  0.51285  0.64485  1.0000
  C   C83       1.0  0.43733  0.49906  0.69845  1.0000
  C   C84       1.0  0.26806  0.47449  0.69795  1.0000
  C   C85       1.0  0.69241  0.784  0.48674  1.0000
  C   C86       1.0  0.62263  0.8316399999999998  0.44629  1.0000
  C   C87       1.0  0.5432399999999997  0.80413  0.39759999999999995  1.0000
  C   C88       1.0  0.64811  0.9114499999999999  0.4538  1.0000
  C   C89       1.0  0.7486799999999998  0.65534  0.51964  1.0000
  C   C90       1.0  0.68216  0.70897  0.47786  1.0000
  C   C91       1.0  0.60721  0.68237  0.42777  1.0000
  C   C92       1.0  0.53728  0.72922  0.3871899999999999  1.0000
  C   C93       1.0  0.46226  0.69938  0.33314  1.0000
  C   C94       1.0  0.96555  0.01406  0.35515  1.0000
  C   C95       1.0  0.06208  0.9994099999999999  0.30155999999999994  1.0000
  C   C96       1.0  0.23157  0.9748  0.30206  1.0000
  C   C97       1.0  0.52174  0.5117299999999998  0.7499999999999999  1.0000
  C   C98       1.0  0.17666  0.46218  0.7499999999999999  1.0000
  C   C99       1.0  0.00507  0.4398  0.7499999999999999  1.0000
  C   C100      1.0  0.97744  0.01198  0.25  1.0000
  C   C101      1.0  0.32299  0.96237  0.25  1.0000
  C   C102      1.0  0.49478  0.9398799999999999  0.25  1.0000
  C   C103      1.0  0.47824999999999995  0.48827  0.25  1.0000
  C   C104      1.0  0.8233399999999997  0.53782  0.25  1.0000
  C   C105      1.0  0.99493  0.5602  0.25  1.0000
  C   C106      1.0  0.02256  0.9880199999999999  0.7499999999999999  1.0000
  C   C107      1.0  0.67701  0.03763  0.7499999999999999  1.0000
  C   C108      1.0  0.50522  0.06012  0.7499999999999999  1.0000
  O   O1        1.0  0.74954  0.43274  0.99154  1.0000
  O   O2        1.0  0.93457  0.45503  0.9197699999999999  1.0000
  O   O3        1.0  0.79182  0.08775  0.01113  1.0000
  O   O4        1.0  0.6568  0.17079  0.061439999999999995  1.0000
  O   O5        1.0  0.46964  0.49486  0.90218  1.0000
  O   O6        1.0  0.6841199999999997  0.5424399999999999  0.84883  1.0000
  O   O7        1.0  0.7535099999999998  0.9315499999999999  0.00874  1.0000
  O   O8        1.0  0.56663  0.95577  0.07992999999999999  1.0000
  O   O9        1.0  0.70698  0.58769  0.9887699999999999  1.0000
  O   O10       1.0  0.8426  0.66944  0.9378699999999999  1.0000
  O   O11       1.0  0.030890000000000004  0.9963999999999998  0.09776999999999998  1.0000
  O   O12       1.0  0.8160899999999998  0.04409  0.15115  1.0000
  O   O13       1.0  0.25046  0.56726  0.49154  1.0000
  O   O14       1.0  0.06543  0.5449699999999998  0.41977  1.0000
  O   O15       1.0  0.20818  0.91225  0.51113  1.0000
  O   O16       1.0  0.3432  0.8292099999999998  0.56144  1.0000
  O   O17       1.0  0.53036  0.50514  0.40218  1.0000
  O   O18       1.0  0.31588  0.45755999999999997  0.34884  1.0000
  O   O19       1.0  0.24648999999999993  0.06845  0.50874  1.0000
  O   O20       1.0  0.43337  0.04422999999999999  0.57992  1.0000
  O   O21       1.0  0.29302  0.41231  0.48877  1.0000
  O   O22       1.0  0.15739999999999996  0.33056  0.43787  1.0000
  O   O23       1.0  0.96911  0.0035999999999999995  0.59776  1.0000
  O   O24       1.0  0.18390999999999993  0.95591  0.65114  1.0000
  O   O25       1.0  0.25046  0.56726  0.008449999999999997  1.0000
  O   O26       1.0  0.06543  0.5449699999999998  0.08023  1.0000
  O   O27       1.0  0.20818  0.91225  0.98886  1.0000
  O   O28       1.0  0.3432  0.8292099999999998  0.93856  1.0000
  O   O29       1.0  0.53036  0.50514  0.09782  1.0000
  O   O30       1.0  0.31588  0.45755999999999997  0.15115999999999996  1.0000
  O   O31       1.0  0.24648999999999993  0.06845  0.9912599999999998  1.0000
  O   O32       1.0  0.43337  0.04422999999999999  0.92007  1.0000
  O   O33       1.0  0.29302  0.41231  0.01122  1.0000
  O   O34       1.0  0.15739999999999996  0.33056  0.06213  1.0000
  O   O35       1.0  0.96911  0.0035999999999999995  0.90223  1.0000
  O   O36       1.0  0.18390999999999993  0.95591  0.84885  1.0000
  O   O37       1.0  0.74954  0.43274  0.50845  1.0000
  O   O38       1.0  0.93457  0.45503  0.58023  1.0000
  O   O39       1.0  0.79182  0.08775  0.48886  1.0000
  O   O40       1.0  0.6568  0.17079  0.4385599999999999  1.0000
  O   O41       1.0  0.46964  0.49486  0.59781  1.0000
  O   O42       1.0  0.6841199999999997  0.5424399999999999  0.65116  1.0000
  O   O43       1.0  0.7535099999999998  0.9315499999999999  0.4912599999999999  1.0000
  O   O44       1.0  0.56663  0.95577  0.42007  1.0000
  O   O45       1.0  0.70698  0.58769  0.51122  1.0000
  O   O46       1.0  0.8426  0.66944  0.56213  1.0000
  O   O47       1.0  0.030890000000000004  0.9963999999999998  0.4022299999999999  1.0000
  O   O48       1.0  0.8160899999999998  0.04409  0.34884999999999994  1.0000
