data_image0
_chemical_formula_structural       Zn16H56C120O52
_chemical_formula_sum              "Zn16 H56 C120 O52"
_cell_length_a       11.26634
_cell_length_b       18.62065
_cell_length_c       24.08979
_cell_angle_alpha    89.9646
_cell_angle_beta     89.94472
_cell_angle_gamma    89.93776

_space_group_name_H-M_alt    "P 1"
_space_group_IT_number       1

loop_
  _space_group_symop_operation_xyz
  'x, y, z'

loop_
  _atom_site_type_symbol
  _atom_site_label
  _atom_site_symmetry_multiplicity
  _atom_site_fract_x
  _atom_site_fract_y
  _atom_site_fract_z
  _atom_site_occupancy
  Zn  Zn1       1.0  0.7758300000000001  0.70404  0.8100600000000001  1.0000
  Zn  Zn2       1.0  0.7718700000000001  0.79807  0.6939200000000002  1.0000
  Zn  Zn3       1.0  0.8902000000000001  0.84574  0.78953  1.0000
  Zn  Zn4       1.0  0.90638  0.66274  0.71509  1.0000
  Zn  Zn5       1.0  0.22643  0.79477  0.3099100000000001  1.0000
  Zn  Zn6       1.0  0.22909  0.70067  0.19315  1.0000
  Zn  Zn7       1.0  0.11023000000000001  0.65265  0.2891500000000001  1.0000
  Zn  Zn8       1.0  0.09668  0.83627  0.21531  1.0000
  Zn  Zn9       1.0  0.27469000000000005  0.2957600000000001  0.68934  1.0000
  Zn  Zn10      1.0  0.2692  0.20173  0.8046000000000001  1.0000
  Zn  Zn11      1.0  0.39083000000000007  0.15376  0.7101800000000001  1.0000
  Zn  Zn12      1.0  0.40651  0.33633  0.78493  1.0000
  Zn  Zn13      1.0  0.72263  0.20535  0.18988000000000005  1.0000
  Zn  Zn14      1.0  0.73239  0.29941  0.30621  1.0000
  Zn  Zn15      1.0  0.6096000000000001  0.34734000000000004  0.21114000000000005  1.0000
  Zn  Zn16      1.0  0.59188  0.16427  0.28486  1.0000
  H   H1        1.0  0.55701  0.9639900000000001  0.7658400000000002  1.0000
  H   H2        1.0  0.32114  0.01059  0.9012100000000001  1.0000
  H   H3        1.0  0.51089  0.80859  0.8953000000000001  1.0000
  H   H4        1.0  0.31681000000000004  0.98956  0.98992  1.0000
  H   H5        1.0  0.21132  0.9477  0.07439  1.0000
  H   H6        1.0  0.27003  0.72872  0.02656  1.0000
  H   H7        1.0  0.36992  0.76923  0.9404000000000001  1.0000
  H   H8        1.0  0.0716  0.4715  0.7638100000000001  1.0000
  H   H9        1.0  0.021520000000000004  0.3116  0.8898800000000001  1.0000
  H   H10       1.0  0.8492300000000002  0.51832  0.9040000000000002  1.0000
  H   H11       1.0  0.8541000000000001  0.49373  0.99291  1.0000
  H   H12       1.0  0.7418200000000001  0.45235  0.07546  1.0000
  H   H13       1.0  0.76295  0.23465  0.01802  1.0000
  H   H14       1.0  0.86947  0.27548  0.9334200000000002  1.0000
  H   H15       1.0  0.44311000000000006  0.53425  0.2665  1.0000
  H   H16       1.0  0.67695  0.4893600000000001  0.40243  1.0000
  H   H17       1.0  0.48941  0.69211  0.39407000000000003  1.0000
  H   H18       1.0  0.6825200000000001  0.51079  0.48984000000000005  1.0000
  H   H19       1.0  0.78849  0.55209  0.57392  1.0000
  H   H20       1.0  0.73044  0.77148  0.52655  1.0000
  H   H21       1.0  0.62993  0.73121  0.44061  1.0000
  H   H22       1.0  0.9286  0.0272  0.26367  1.0000
  H   H23       1.0  0.9767900000000003  0.1877  0.38928000000000007  1.0000
  H   H24       1.0  0.15183  0.98191  0.4037200000000001  1.0000
  H   H25       1.0  0.14547  0.0066500000000000005  0.4927  1.0000
  H   H26       1.0  0.2582  0.04884  0.5749200000000001  1.0000
  H   H27       1.0  0.23533  0.26609  0.51631  1.0000
  H   H28       1.0  0.12882  0.22436  0.43215  1.0000
  H   H29       1.0  0.05810000000000001  0.03511  0.7334500000000002  1.0000
  H   H30       1.0  0.8222000000000003  0.9883300000000002  0.59833  1.0000
  H   H31       1.0  0.009499999999999998  0.19091  0.6046200000000002  1.0000
  H   H32       1.0  0.8164600000000001  0.00965  0.50973  1.0000
  H   H33       1.0  0.71024  0.05122  0.42559  1.0000
  H   H34       1.0  0.7691700000000001  0.27038  0.47287000000000007  1.0000
  H   H35       1.0  0.8693  0.23006  0.5587800000000002  1.0000
  H   H36       1.0  0.57271  0.5287  0.7366  1.0000
  H   H37       1.0  0.5221900000000002  0.6875  0.60957  1.0000
  H   H38       1.0  0.34904  0.48119000000000006  0.59727  1.0000
  H   H39       1.0  0.35327  0.50529  0.50809  1.0000
  H   H40       1.0  0.24236000000000005  0.54712  0.42518  1.0000
  H   H41       1.0  0.26536  0.76478  0.48249000000000003  1.0000
  H   H42       1.0  0.36926000000000003  0.72331  0.56757  1.0000
  H   H43       1.0  0.9425000000000002  0.4657800000000001  0.23314  1.0000
  H   H44       1.0  0.17699  0.5107800000000001  0.09718  1.0000
  H   H45       1.0  0.9891400000000002  0.30838  0.10523  1.0000
  H   H46       1.0  0.18362  0.48931  0.00923  1.0000
  H   H47       1.0  0.29025  0.4473  0.92535  1.0000
  H   H48       1.0  0.23066000000000003  0.22836999999999996  0.9731100000000003  1.0000
  H   H49       1.0  0.13011  0.26911  0.05905000000000001  1.0000
  H   H50       1.0  0.4260300000000001  0.9726300000000001  0.23572000000000004  1.0000
  H   H51       1.0  0.47821  0.81295  0.10965000000000003  1.0000
  H   H52       1.0  0.65206  0.01902  0.09675  1.0000
  H   H53       1.0  0.6479300000000001  0.99424  0.006990000000000001  1.0000
  H   H54       1.0  0.7593  0.95158  0.9244300000000001  1.0000
  H   H55       1.0  0.7357600000000001  0.73445  0.9829400000000001  1.0000
  H   H56       1.0  0.63102  0.77659  0.06765000000000002  1.0000
  C   C1        1.0  0.5396500000000001  0.8807799999999999  0.82792  1.0000
  C   C2        1.0  0.51548  0.9480400000000001  0.80464  1.0000
  C   C3        1.0  0.43605000000000005  0.99428  0.83154  1.0000
  C   C4        1.0  0.38351  0.97365  0.8818900000000002  1.0000
  C   C5        1.0  0.40779000000000004  0.90636  0.90594  1.0000
  C   C6        1.0  0.48651000000000005  0.8604299999999999  0.8779700000000003  1.0000
  C   C7        1.0  0.6259400000000002  0.83081  0.80134  1.0000
  C   C8        1.0  0.40354  0.06423  0.80493  1.0000
  C   C9        1.0  0.34975  0.88272  0.9579900000000002  1.0000
  C   C10       1.0  0.30442  0.9323200000000001  0.9967500000000001  1.0000
  C   C11       1.0  0.24540000000000003  0.9092800000000001  0.04434  1.0000
  C   C12       1.0  0.23156  0.8356  0.05488  1.0000
  C   C13       1.0  0.27934  0.78564  0.017410000000000002  1.0000
  C   C14       1.0  0.33654  0.80893  0.9695700000000002  1.0000
  C   C15       1.0  0.17485  0.80951  0.10674  1.0000
  C   C16       1.0  0.95894  0.50205  0.83247  1.0000
  C   C17       1.0  0.0327  0.45491000000000004  0.8030400000000002  1.0000
  C   C18       1.0  0.05341  0.38606  0.82422  1.0000
  C   C19       1.0  0.00122  0.36502  0.8744000000000001  1.0000
  C   C20       1.0  0.9277300000000003  0.41173  0.90463  1.0000
  C   C21       1.0  0.9077800000000003  0.48072  0.8829100000000001  1.0000
  C   C22       1.0  0.9278200000000002  0.57345  0.80829  1.0000
  C   C23       1.0  0.13305  0.3343  0.79495  1.0000
  C   C24       1.0  0.8683700000000002  0.38775  0.9562500000000002  1.0000
  C   C25       1.0  0.83208  0.43710000000000004  0.9972000000000002  1.0000
  C   C26       1.0  0.7694100000000001  0.41431  0.04377000000000001  1.0000
  C   C27       1.0  0.7429700000000001  0.34125  0.05135  1.0000
  C   C28       1.0  0.7821  0.2913  0.011720000000000001  1.0000
  C   C29       1.0  0.84303  0.31444  0.9647300000000001  1.0000
  C   C30       1.0  0.68078  0.31694000000000006  0.10250000000000001  1.0000
  C   C31       1.0  0.4605800000000001  0.61879  0.32746  1.0000
  C   C32       1.0  0.48403000000000007  0.55093  0.30521  1.0000
  C   C33       1.0  0.56243  0.50498  0.3329  1.0000
  C   C34       1.0  0.6148700000000001  0.5263  0.3829800000000001  1.0000
  C   C35       1.0  0.5911800000000001  0.59408  0.4062  1.0000
  C   C36       1.0  0.51322  0.6398  0.3774800000000001  1.0000
  C   C37       1.0  0.37553  0.66838  0.29951000000000005  1.0000
  C   C38       1.0  0.59586  0.43494000000000005  0.30703  1.0000
  C   C39       1.0  0.64957  0.61781  0.4581200000000001  1.0000
  C   C40       1.0  0.69504  0.56801  0.49672  1.0000
  C   C41       1.0  0.75434  0.59083  0.54419  1.0000
  C   C42       1.0  0.76848  0.66442  0.55513  1.0000
  C   C43       1.0  0.7209700000000002  0.71454  0.51763  1.0000
  C   C44       1.0  0.66335  0.6915  0.4698100000000001  1.0000
  C   C45       1.0  0.8259300000000002  0.68923  0.6073100000000001  1.0000
  C   C46       1.0  0.04191000000000002  0.9973399999999999  0.3322300000000001  1.0000
  C   C47       1.0  0.9674900000000002  0.04411  0.30278  1.0000
  C   C48       1.0  0.9458  0.11296  0.32372  1.0000
  C   C49       1.0  0.99762  0.13436  0.37387  1.0000
  C   C50       1.0  0.07158  0.088  0.40415000000000006  1.0000
  C   C51       1.0  0.09266  0.01911  0.3826  1.0000
  C   C52       1.0  0.07465000000000001  0.92586  0.30837  1.0000
  C   C53       1.0  0.8657000000000001  0.16426  0.29407  1.0000
  C   C54       1.0  0.13078  0.11237000000000001  0.4556100000000001  1.0000
  C   C55       1.0  0.16749  0.06332  0.49669  1.0000
  C   C56       1.0  0.23041000000000006  0.08652000000000001  0.543  1.0000
  C   C57       1.0  0.25631  0.15968  0.55018  1.0000
  C   C58       1.0  0.21682  0.20932  0.51036  1.0000
  C   C59       1.0  0.15580000000000002  0.18577  0.46363  1.0000
  C   C60       1.0  0.31711000000000006  0.18484  0.60139  1.0000
  C   C61       1.0  0.03978000000000001  0.11827000000000001  0.67132  1.0000
  C   C62       1.0  0.016290000000000002  0.051000000000000004  0.69468  1.0000
  C   C63       1.0  0.9367700000000001  0.00478  0.6680000000000003  1.0000
  C   C64       1.0  0.8839500000000001  0.02547  0.61765  1.0000
  C   C65       1.0  0.9073200000000001  0.09284000000000002  0.59357  1.0000
  C   C66       1.0  0.98584  0.13875  0.62148  1.0000
  C   C67       1.0  0.12547  0.16845  0.69786  1.0000
  C   C68       1.0  0.90385  0.93477  0.69442  1.0000
  C   C69       1.0  0.84919  0.11650999999999999  0.54148  1.0000
  C   C70       1.0  0.8038900000000001  0.06689  0.50282  1.0000
  C   C71       1.0  0.74454  0.08986  0.4553  1.0000
  C   C72       1.0  0.7306300000000001  0.16347  0.44442  1.0000
  C   C73       1.0  0.77851  0.21342  0.4818300000000001  1.0000
  C   C74       1.0  0.83588  0.1903  0.52969  1.0000
  C   C75       1.0  0.67358  0.18946  0.39248000000000005  1.0000
  C   C76       1.0  0.45927  0.49781000000000003  0.66824  1.0000
  C   C77       1.0  0.5332700000000001  0.54502  0.6974200000000003  1.0000
  C   C78       1.0  0.5539500000000002  0.61383  0.6759200000000001  1.0000
  C   C79       1.0  0.50189  0.6344  0.62563  1.0000
  C   C80       1.0  0.42818000000000006  0.58755  0.5958400000000001  1.0000
  C   C81       1.0  0.4080200000000001  0.51888  0.61786  1.0000
  C   C82       1.0  0.4264800000000001  0.42655  0.6922  1.0000
  C   C83       1.0  0.6342300000000001  0.66573  0.7047300000000001  1.0000
  C   C84       1.0  0.36837000000000003  0.61128  0.5444400000000001  1.0000
  C   C85       1.0  0.33186  0.56199  0.50361  1.0000
  C   C86       1.0  0.2699  0.58499  0.45694  1.0000
  C   C87       1.0  0.24466  0.6582  0.44926000000000005  1.0000
  C   C88       1.0  0.28357000000000004  0.70803  0.4889400000000001  1.0000
  C   C89       1.0  0.34332  0.68462  0.53608  1.0000
  C   C90       1.0  0.18532  0.68297  0.39758  1.0000
  C   C91       1.0  0.9590300000000003  0.38175  0.17159  1.0000
  C   C92       1.0  0.9834700000000002  0.44916999999999996  0.19437  1.0000
  C   C93       1.0  0.06310000000000002  0.49474  0.16711  1.0000
  C   C94       1.0  0.11521  0.47379000000000004  0.11675000000000002  1.0000
  C   C95       1.0  0.09137000000000002  0.40623  0.09324000000000002  1.0000
  C   C96       1.0  0.01275  0.36072000000000004  0.12176  1.0000
  C   C97       1.0  0.87294  0.33245  0.19907000000000002  1.0000
  C   C98       1.0  0.09737  0.56427  0.19341  1.0000
  C   C99       1.0  0.15006000000000003  0.38245  0.04128  1.0000
  C   C100      1.0  0.19595  0.432  0.0025900000000000003  1.0000
  C   C101      1.0  0.25564  0.40886  0.95521  1.0000
  C   C102      1.0  0.26933000000000007  0.33519  0.9445600000000001  1.0000
  C   C103      1.0  0.22133000000000003  0.28533  0.98206  1.0000
  C   C104      1.0  0.16368  0.30867  0.029800000000000004  1.0000
  C   C105      1.0  0.32639  0.30941  0.89262  1.0000
  C   C106      1.0  0.54123  0.0026300000000000004  0.16768  1.0000
  C   C107      1.0  0.46621  0.95588  0.19680000000000003  1.0000
  C   C108      1.0  0.4454  0.8871300000000001  0.17553000000000002  1.0000
  C   C109      1.0  0.49841  0.86612  0.1255  1.0000
  C   C110      1.0  0.57251  0.91267  0.09550000000000003  1.0000
  C   C111      1.0  0.59282  0.9814000000000002  0.11736000000000003  1.0000
  C   C112      1.0  0.57382  0.07384  0.19168  1.0000
  C   C113      1.0  0.36430000000000007  0.83571  0.20426  1.0000
  C   C114      1.0  0.6323  0.88852  0.04407  1.0000
  C   C115      1.0  0.6691100000000001  0.9374399999999999  0.00291  1.0000
  C   C116      1.0  0.7315  0.9139900000000001  0.9564000000000002  1.0000
  C   C117      1.0  0.7571  0.84073  0.9490400000000001  1.0000
  C   C118      1.0  0.71754  0.79129  0.9890000000000002  1.0000
  C   C119      1.0  0.65727  0.81509  0.03597  1.0000
  C   C120      1.0  0.8184700000000003  0.81573  0.8978  1.0000
  O   O1        1.0  0.8815800000000003  0.75305  0.7524800000000001  1.0000
  O   O2        1.0  0.6253  0.7655  0.81675  1.0000
  O   O3        1.0  0.69917  0.85823  0.76586  1.0000
  O   O4        1.0  0.45082000000000005  0.07667  0.75706  1.0000
  O   O5        1.0  0.33191  0.10533  0.8305900000000002  1.0000
  O   O6        1.0  0.12911000000000003  0.85807  0.13887  1.0000
  O   O7        1.0  0.17689  0.7427  0.11738  1.0000
  O   O8        1.0  0.85664  0.61318  0.8354000000000001  1.0000
  O   O9        1.0  0.9752100000000001  0.58841  0.76086  1.0000
  O   O10       1.0  0.129  0.26898  0.81085  1.0000
  O   O11       1.0  0.20324000000000003  0.35947  0.75747  1.0000
  O   O12       1.0  0.64053  0.36775  0.13432  1.0000
  O   O13       1.0  0.6729200000000001  0.25058  0.11350000000000003  1.0000
  O   O14       1.0  0.11980000000000002  0.74521  0.2524  1.0000
  O   O15       1.0  0.37578000000000006  0.73399  0.31439  1.0000
  O   O16       1.0  0.30422  0.6404  0.26363  1.0000
  O   O17       1.0  0.5486  0.4219  0.25933  1.0000
  O   O18       1.0  0.66829  0.3948  0.33304  1.0000
  O   O19       1.0  0.86955  0.63962  0.63913  1.0000
  O   O20       1.0  0.82742  0.75576  0.6189  1.0000
  O   O21       1.0  0.14806  0.8872900000000001  0.3353  1.0000
  O   O22       1.0  0.02639000000000001  0.9097699999999999  0.26144  1.0000
  O   O23       1.0  0.87005  0.22984  0.30953  1.0000
  O   O24       1.0  0.79597  0.13884  0.25678  1.0000
  O   O25       1.0  0.35932000000000003  0.13461  0.63331  1.0000
  O   O26       1.0  0.32136  0.25129  0.61196  1.0000
  O   O27       1.0  0.38111  0.24651  0.74715  1.0000
  O   O28       1.0  0.12595  0.23342000000000002  0.68112  1.0000
  O   O29       1.0  0.19641000000000003  0.14181  0.7345200000000001  1.0000
  O   O30       1.0  0.95259  0.92082  0.74159  1.0000
  O   O31       1.0  0.82972  0.8950200000000001  0.66905  1.0000
  O   O32       1.0  0.62463  0.14132  0.36107  1.0000
  O   O33       1.0  0.67808  0.25579  0.38091  1.0000
  O   O34       1.0  0.35658  0.38675  0.66453  1.0000
  O   O35       1.0  0.47116000000000013  0.41184  0.7401000000000001  1.0000
  O   O36       1.0  0.63042  0.7311  0.6890000000000001  1.0000
  O   O37       1.0  0.70506  0.64011  0.7417600000000002  1.0000
  O   O38       1.0  0.14206000000000002  0.63284  0.36612  1.0000
  O   O39       1.0  0.18329000000000004  0.74941  0.38623  1.0000
  O   O40       1.0  0.6191700000000001  0.2546  0.24809  1.0000
  O   O41       1.0  0.87012  0.26744  0.18292  1.0000
  O   O42       1.0  0.80351  0.36001  0.23615000000000003  1.0000
  O   O43       1.0  0.05016000000000002  0.57763  0.24111000000000005  1.0000
  O   O44       1.0  0.17068  0.60396  0.16743000000000005  1.0000
  O   O45       1.0  0.37510000000000004  0.35797  0.86134  1.0000
  O   O46       1.0  0.32188  0.24318000000000004  0.88072  1.0000
  O   O47       1.0  0.64676  0.11258000000000001  0.16474000000000003  1.0000
  O   O48       1.0  0.5255700000000001  0.08949  0.23879  1.0000
  O   O49       1.0  0.36880000000000007  0.77037  0.18876000000000004  1.0000
  O   O50       1.0  0.29224  0.8612100000000001  0.24106000000000002  1.0000
  O   O51       1.0  0.86346  0.8657  0.8666200000000001  1.0000
  O   O52       1.0  0.8212600000000001  0.7493  0.88634  1.0000
