data_image0
_chemical_formula_structural       Al6P18H108C72O54
_chemical_formula_sum              "Al6 P18 H108 C72 O54"
_cell_length_a       12.69244
_cell_length_b       20.70694
_cell_length_c       20.70044
_cell_angle_alpha    116.03586
_cell_angle_beta     101.7809
_cell_angle_gamma    101.79789

_symmetry_space_group_name_H-M    'P 1'
_symmetry_Int_Tables_number       1

loop_
  _symmetry_equiv_pos_as_xyz
  'x,y,z'

loop_
  _atom_site_type_symbol
  _atom_site_label
  _atom_site_symmetry_multiplicity
  _atom_site_fract_x
  _atom_site_fract_y
  _atom_site_fract_z
  _atom_site_occupancy
  Al  Al1       1.0  0.28982  0.72888  0.34031  1.0000
  Al  Al2       1.0  0.56078  0.61108  0.27079  1.0000
  Al  Al3       1.0  0.04986000000000006  0.34033  0.61127  1.0000
  Al  Al4       1.0  0.9501399999999998  0.65966  0.38873  1.0000
  Al  Al5       1.0  0.43922000000000005  0.38892000000000004  0.7292000000000001  1.0000
  Al  Al6       1.0  0.7101800000000001  0.27112  0.65968  1.0000
  P   P1        1.0  0.44414999999999993  0.24854  0.58054  1.0000
  P   P2        1.0  0.36185999999999996  0.66526  0.1959  1.0000
  P   P3        1.0  0.60419  0.09202999999999997  0.60619  1.0000
  P   P4        1.0  0.69686  0.53064  0.33452  1.0000
  P   P5        1.0  0.39581  0.90796  0.39381  1.0000
  P   P6        1.0  0.002710000000000024  0.60616  0.51435  1.0000
  P   P7        1.0  0.63814  0.33472999999999997  0.8041  1.0000
  P   P8        1.0  0.48764  0.48552000000000006  0.09157000000000001  1.0000
  P   P9        1.0  0.8339500000000001  0.19605000000000003  0.53034  1.0000
  P   P10       1.0  0.99728  0.39383  0.48564999999999997  1.0000
  P   P11       1.0  0.86273  0.4195999999999999  0.66794  1.0000
  P   P12       1.0  0.80455  0.66778  0.24853  1.0000
  P   P13       1.0  0.5123600000000001  0.51447  0.90843  1.0000
  P   P14       1.0  0.5558500000000001  0.7514500000000001  0.41946  1.0000
  P   P15       1.0  0.19545  0.33221  0.75147  1.0000
  P   P16       1.0  0.16605  0.80394  0.4696600000000001  1.0000
  P   P17       1.0  0.13727000000000006  0.5804000000000001  0.33206  1.0000
  P   P18       1.0  0.30314  0.46936000000000005  0.66548  1.0000
  H   H1        1.0  0.37451  0.689  0.47206  1.0000
  H   H2        1.0  0.4431799999999999  0.7904799999999998  0.21941  1.0000
  H   H3        1.0  0.37564999999999993  0.62659  0.9457099999999999  1.0000
  H   H4        1.0  0.59657  0.08422999999999999  0.7161  1.0000
  H   H5        1.0  0.09716999999999999  0.47204  0.7829  1.0000
  H   H6        1.0  0.2207  0.87414  0.60435  1.0000
  H   H7        1.0  0.41670999999999997  0.13860000000000006  0.57633  1.0000
  H   H8        1.0  0.12546  0.33579  0.31109  1.0000
  H   H9        1.0  0.15288  0.20179  0.72048  1.0000
  H   H10       1.0  0.32528  0.55842  0.09155  1.0000
  H   H11       1.0  0.34907000000000005  0.69693  0.71081  1.0000
  H   H12       1.0  0.62549  0.3110000000000001  0.52794  1.0000
  H   H13       1.0  0.87186  0.67966  0.10422  1.0000
  H   H14       1.0  0.16838  0.42094  0.39971  1.0000
  H   H15       1.0  0.7674999999999998  0.89612  0.57532  1.0000
  H   H16       1.0  0.87454  0.6642  0.68891  1.0000
  H   H17       1.0  0.74879  0.31923  0.37345  1.0000
  H   H18       1.0  0.23713  0.53495  0.82377  1.0000
  H   H19       1.0  0.22438999999999995  0.7810199999999999  0.57178  1.0000
  H   H20       1.0  0.65232  0.013360000000000006  0.30283  1.0000
  H   H21       1.0  0.23132  0.39951  0.97878  1.0000
  H   H22       1.0  0.13047  0.56581  0.85852  1.0000
  H   H23       1.0  0.83988  0.42376  0.56211  1.0000
  H   H24       1.0  0.02339000000000003  0.31022  0.37226  1.0000
  H   H25       1.0  0.80756  0.57525  0.67931  1.0000
  H   H26       1.0  0.28676999999999997  0.93735  0.31001  1.0000
  H   H27       1.0  0.10213000000000001  0.50776  0.50314  1.0000
  H   H28       1.0  0.3008  0.98646  0.6104  1.0000
  H   H29       1.0  0.7793  0.12585000000000002  0.39564  1.0000
  H   H30       1.0  0.4005699999999999  0.50251  0.99453  1.0000
  H   H31       1.0  0.5129400000000001  0.63237  0.9164100000000001  1.0000
  H   H32       1.0  0.30734999999999996  0.20829999999999999  0.4616799999999999  1.0000
  H   H33       1.0  0.31422  0.21684  0.68858  1.0000
  H   H34       1.0  0.5943600000000001  0.9951100000000002  0.49221000000000004  1.0000
  H   H35       1.0  0.43231000000000014  0.27895  0.48075  1.0000
  H   H36       1.0  0.76785  0.53366  0.44134  1.0000
  H   H37       1.0  0.36184  0.71081  0.01397  1.0000
  H   H38       1.0  0.48705  0.36762  0.08359  1.0000
  H   H39       1.0  0.04889  0.48042  0.20161  1.0000
  H   H40       1.0  0.57025  0.9453300000000001  0.31883  1.0000
  H   H41       1.0  0.70232  0.28886  0.46496  1.0000
  H   H42       1.0  0.5676800000000002  0.72105  0.51925  1.0000
  H   H43       1.0  0.7132300000000001  0.06265000000000003  0.68999  1.0000
  H   H44       1.0  0.30945  0.61016  0.624  1.0000
  H   H45       1.0  0.65093  0.30306  0.28919  1.0000
  H   H46       1.0  0.11956000000000001  0.71625  0.63276  1.0000
  H   H47       1.0  0.8804300000000002  0.28374  0.36723000000000006  1.0000
  H   H48       1.0  0.42975  0.05465999999999999  0.68117  1.0000
  H   H49       1.0  0.12813999999999995  0.32033000000000006  0.89578  1.0000
  H   H50       1.0  0.34887  0.37219  0.06206999999999999  1.0000
  H   H51       1.0  0.56481  0.29269  0.43427  1.0000
  H   H52       1.0  0.83161  0.57906  0.60029  1.0000
  H   H53       1.0  0.5866600000000001  0.8239600000000001  0.28945  1.0000
  H   H54       1.0  0.25272  0.020990000000000047  0.42076  1.0000
  H   H55       1.0  0.09893  0.25346  0.79142  1.0000
  H   H56       1.0  0.65267  0.4280399999999999  0.20923  1.0000
  H   H57       1.0  0.90283  0.52795  0.2171  1.0000
  H   H58       1.0  0.25121  0.68076  0.62655  1.0000
  H   H59       1.0  0.34733  0.57196  0.79077  1.0000
  H   H60       1.0  0.21049  0.02426000000000001  0.33566  1.0000
  H   H61       1.0  0.728  0.8586000000000001  0.29327  1.0000
  H   H62       1.0  0.19244  0.42474  0.32069  1.0000
  H   H63       1.0  0.15454  0.46129  0.25326  1.0000
  H   H64       1.0  0.6926499999999998  0.7916899999999999  0.53832  1.0000
  H   H65       1.0  0.95111  0.51957  0.79839  1.0000
  H   H66       1.0  0.23249999999999998  0.10387999999999994  0.42468  1.0000
  H   H67       1.0  0.43518999999999997  0.7073099999999998  0.56573  1.0000
  H   H68       1.0  0.765  0.09206  0.53304  1.0000
  H   H69       1.0  0.62435  0.3734  0.05428  1.0000
  H   H70       1.0  0.6992  0.013540000000000002  0.3896  1.0000
  H   H71       1.0  0.40564  0.004890000000000012  0.50779  1.0000
  H   H72       1.0  0.27751  0.43811999999999995  0.8615  1.0000
  H   H73       1.0  0.34767000000000003  0.98664  0.69717  1.0000
  H   H74       1.0  0.34686  0.73015  0.126  1.0000
  H   H75       1.0  0.16012  0.57623  0.43788  1.0000
  H   H76       1.0  0.6511199999999999  0.6278  0.93793  1.0000
  H   H77       1.0  0.68542  0.37597  0.98635  1.0000
  H   H78       1.0  0.68577  0.7831499999999999  0.31142  1.0000
  H   H79       1.0  0.7756  0.21898000000000004  0.42822  1.0000
  H   H80       1.0  0.41334  0.17604  0.71055  1.0000
  H   H81       1.0  0.76287  0.46504000000000006  0.17623  1.0000
  H   H82       1.0  0.7224900000000001  0.56187  0.1385  1.0000
  H   H83       1.0  0.76868  0.60048  0.02121  1.0000
  H   H84       1.0  0.55682  0.20951000000000003  0.78059  1.0000
  H   H85       1.0  0.18592999999999998  0.31100999999999995  0.9752399999999999  1.0000
  H   H86       1.0  0.235  0.90794  0.46696  1.0000
  H   H87       1.0  0.67471  0.44156999999999996  0.90845  1.0000
  H   H88       1.0  0.84712  0.7982  0.27952  1.0000
  H   H89       1.0  0.63815  0.28918  0.98603  1.0000
  H   H90       1.0  0.29768  0.71113  0.53504  1.0000
  H   H91       1.0  0.40343  0.91576  0.2839  1.0000
  H   H92       1.0  0.9766099999999998  0.68977  0.62774  1.0000
  H   H93       1.0  0.84545  0.5387  0.74674  1.0000
  H   H94       1.0  0.81406  0.68898  0.02476  1.0000
  H   H95       1.0  0.69054  0.38984  0.37599  1.0000
  H   H96       1.0  0.27199  0.1414  0.70673  1.0000
  H   H97       1.0  0.86952  0.43418  0.14148  1.0000
  H   H98       1.0  0.38318000000000013  0.6041300000000001  0.7299300000000001  1.0000
  H   H99       1.0  0.31457  0.62403  0.01365  1.0000
  H   H100      1.0  0.89787  0.49223  0.49684999999999996  1.0000
  H   H101      1.0  0.9010700000000001  0.74653  0.20858  1.0000
  H   H102      1.0  0.7895100000000002  0.97573  0.66434  1.0000
  H   H103      1.0  0.59943  0.49748  0.00547  1.0000
  H   H104      1.0  0.61682  0.39586  0.27007  1.0000
  H   H105      1.0  0.23214999999999997  0.46633  0.55866  1.0000
  H   H106      1.0  0.58329  0.8613899999999999  0.42367  1.0000
  H   H107      1.0  0.7472800000000002  0.97901  0.57924  1.0000
  H   H108      1.0  0.65314  0.26984  0.874  1.0000
  C   C1        1.0  0.3146800000000001  0.56622  0.73454  1.0000
  C   C2        1.0  0.046190000000000044  0.66728  0.6172  1.0000
  C   C3        1.0  0.010630000000000037  0.56246  0.72816  1.0000
  C   C4        1.0  0.44506  0.034140000000000024  0.37189  1.0000
  C   C5        1.0  0.14819  0.53158  0.80636  1.0000
  C   C6        1.0  0.74868  0.16834000000000002  0.43364  1.0000
  C   C7        1.0  0.37928  0.86088  0.58378  1.0000
  C   C8        1.0  0.5549300000000001  0.9658500000000001  0.6281  1.0000
  C   C9        1.0  0.72305  0.34637  0.34101  1.0000
  C   C10       1.0  0.7174900000000001  0.72821  0.16609  1.0000
  C   C11       1.0  0.79325  0.66233  0.05837  1.0000
  C   C12       1.0  0.20675  0.33767  0.9416299999999999  1.0000
  C   C13       1.0  0.62333  0.004969999999999999  0.34608  1.0000
  C   C14       1.0  0.62935  0.75119  0.1919  1.0000
  C   C15       1.0  0.9538  0.33271  0.3828  1.0000
  C   C16       1.0  0.42886  0.38277  0.05  1.0000
  C   C17       1.0  0.58031  0.26553  0.83148  1.0000
  C   C18       1.0  0.51866  0.7229  0.13954  1.0000
  C   C19       1.0  0.55165  0.83443  0.56258  1.0000
  C   C20       1.0  0.62072  0.13911000000000007  0.41621  1.0000
  C   C21       1.0  0.40073  0.22606  0.48157  1.0000
  C   C22       1.0  0.38321000000000005  0.72523  0.53164  1.0000
  C   C23       1.0  0.37064  0.24881000000000011  0.80809  1.0000
  C   C24       1.0  0.6581299999999999  0.8064999999999999  0.27533  1.0000
  C   C25       1.0  0.85181  0.46840999999999994  0.19363  1.0000
  C   C26       1.0  0.9187499999999997  0.5186  0.74459  1.0000
  C   C27       1.0  0.20415  0.58361  0.72286  1.0000
  C   C28       1.0  0.27695  0.65362  0.65899  1.0000
  C   C29       1.0  0.5009999999999999  0.31958999999999993  0.9397699999999999  1.0000
  C   C30       1.0  0.6853200000000003  0.43376999999999993  0.26546  1.0000
  C   C31       1.0  0.37667000000000006  0.99502  0.65392  1.0000
  C   C32       1.0  0.08123999999999997  0.48138999999999993  0.25541  1.0000
  C   C33       1.0  0.7958500000000001  0.41638  0.27714  1.0000
  C   C34       1.0  0.5711299999999999  0.61722  0.95  1.0000
  C   C35       1.0  0.38874  0.08706999999999998  0.40296  1.0000
  C   C36       1.0  0.98552  0.5969300000000001  0.6842300000000001  1.0000
  C   C37       1.0  0.18137  0.62027  0.68034  1.0000
  C   C38       1.0  0.8186299999999999  0.37972  0.31966  1.0000
  C   C39       1.0  0.92706  0.37197  0.33753  1.0000
  C   C40       1.0  0.5896200000000001  0.66259  0.03462  1.0000
  C   C41       1.0  0.61125  0.9129299999999999  0.59704  1.0000
  C   C42       1.0  0.01448  0.40306  0.31577  1.0000
  C   C43       1.0  0.43776000000000004  0.8086  0.55979  1.0000
  C   C44       1.0  0.07294  0.62803  0.66247  1.0000
  C   C45       1.0  0.98937  0.43753  0.27184  1.0000
  C   C46       1.0  0.499  0.68041  0.060230000000000006  1.0000
  C   C47       1.0  0.37886000000000003  0.9495  0.33269  1.0000
  C   C48       1.0  0.73486  0.94201  0.604  1.0000
  C   C49       1.0  0.41969  0.73446  0.16851  1.0000
  C   C50       1.0  0.69876  0.68436  0.08756  1.0000
  C   C51       1.0  0.38216  0.65904  0.00536  1.0000
  C   C52       1.0  0.13111  0.3961  0.33785  1.0000
  C   C53       1.0  0.25132  0.83165  0.56636  1.0000
  C   C54       1.0  0.43874999999999986  0.9401899999999999  0.62046  1.0000
  C   C55       1.0  0.82557  0.74444  0.22647  1.0000
  C   C56       1.0  0.6211400000000002  0.05050000000000002  0.66731  1.0000
  C   C57       1.0  0.12170000000000002  0.55963  0.75113  1.0000
  C   C58       1.0  0.30124  0.31563  0.91244  1.0000
  C   C59       1.0  0.26514  0.05798999999999996  0.396  1.0000
  C   C60       1.0  0.41038  0.3373999999999999  0.96538  1.0000
  C   C61       1.0  0.34187000000000006  0.19349999999999995  0.72467  1.0000
  C   C62       1.0  0.59926  0.7739299999999999  0.51843  1.0000
  C   C63       1.0  0.48133  0.27709  0.86046  1.0000
  C   C64       1.0  0.6178300000000003  0.34095  0.99464  1.0000
  C   C65       1.0  0.56224  0.19139000000000003  0.44021  1.0000
  C   C66       1.0  0.44834999999999997  0.16556000000000007  0.43742  1.0000
  C   C67       1.0  0.8688899999999999  0.6039  0.66215  1.0000
  C   C68       1.0  0.6167900000000001  0.27477  0.46836000000000005  1.0000
  C   C69       1.0  0.8783  0.44036999999999993  0.24887  1.0000
  C   C70       1.0  0.28250999999999993  0.27177999999999997  0.83391  1.0000
  C   C71       1.0  0.17443000000000008  0.25555000000000005  0.7735300000000002  1.0000
  C   C72       1.0  0.56125  0.05980999999999999  0.37954  1.0000
  O   O1        1.0  0.3115400000000001  0.34703  0.74021  1.0000
  O   O2        1.0  0.97186  0.65231  0.47774000000000005  1.0000
  O   O3        1.0  0.19721999999999998  0.40407  0.82466  1.0000
  O   O4        1.0  0.58895  0.68312  0.37245  1.0000
  O   O5        1.0  0.68255  0.17462  0.65204  1.0000
  O   O6        1.0  0.28115999999999997  0.58919  0.11966999999999998  1.0000
  O   O7        1.0  0.46031999999999995  0.6528599999999999  0.24001  1.0000
  O   O8        1.0  0.60257  0.49096  0.95221  1.0000
  O   O9        1.0  0.9636199999999999  0.39302  0.65306  1.0000
  O   O10       1.0  0.41105  0.31687  0.62755  1.0000
  O   O11       1.0  0.28383  0.69473  0.24045  1.0000
  O   O12       1.0  0.3733000000000001  0.17549  0.57942  1.0000
  O   O13       1.0  0.58937  0.54564  0.30507  1.0000
  O   O14       1.0  0.53967  0.34714  0.75998  1.0000
  O   O15       1.0  0.7793300000000001  0.24036999999999997  0.58672  1.0000
  O   O16       1.0  0.39853999999999995  0.49394999999999994  0.9217999999999998  1.0000
  O   O17       1.0  0.80278  0.59592  0.17533  1.0000
  O   O18       1.0  0.16281999999999996  0.8802  0.47  1.0000
  O   O19       1.0  0.03638000000000004  0.60697  0.34693  1.0000
  O   O20       1.0  0.39742  0.50904  0.04779  1.0000
  O   O21       1.0  0.42852000000000007  0.7402600000000001  0.39344000000000007  1.0000
  O   O22       1.0  0.57147  0.25974  0.60656  1.0000
  O   O23       1.0  0.3493100000000001  0.95178  0.4612200000000001  1.0000
  O   O24       1.0  0.83718  0.11979  0.53  1.0000
  O   O25       1.0  0.11145000000000004  0.4611  0.50966  1.0000
  O   O26       1.0  0.52295  0.9216099999999999  0.42798  1.0000
  O   O27       1.0  0.88855  0.53889  0.49034000000000005  1.0000
  O   O28       1.0  0.79339  0.42083  0.59597  1.0000
  O   O29       1.0  0.60146  0.50604  0.0782  1.0000
  O   O30       1.0  0.80816  0.58693  0.34692  1.0000
  O   O31       1.0  0.3071800000000001  0.46893000000000007  0.58921  1.0000
  O   O32       1.0  0.04304999999999998  0.75982  0.45437  1.0000
  O   O33       1.0  0.028140000000000005  0.34769  0.52225  1.0000
  O   O34       1.0  0.49242  0.52226  0.17425  1.0000
  O   O35       1.0  0.71616  0.30526  0.75955  1.0000
  O   O36       1.0  0.90611  0.68902  0.31667  1.0000
  O   O37       1.0  0.65069  0.04821  0.53878  1.0000
  O   O38       1.0  0.09541000000000005  0.5717000000000001  0.49382000000000004  1.0000
  O   O39       1.0  0.9045799999999999  0.4283  0.50618  1.0000
  O   O40       1.0  0.19183  0.41306000000000004  0.65307  1.0000
  O   O41       1.0  0.50758  0.47772999999999993  0.82575  1.0000
  O   O42       1.0  0.7821300000000001  0.37297  0.68925  1.0000
  O   O43       1.0  0.09387999999999994  0.31097  0.68333  1.0000
  O   O44       1.0  0.69282  0.53106  0.41079  1.0000
  O   O45       1.0  0.95694  0.24017  0.54563  1.0000
  O   O46       1.0  0.71883  0.41080000000000005  0.88033  1.0000
  O   O47       1.0  0.4770400000000001  0.07838000000000002  0.57202  1.0000
  O   O48       1.0  0.41062  0.45435  0.69493  1.0000
  O   O49       1.0  0.22067000000000003  0.75962  0.41328  1.0000
  O   O50       1.0  0.68845  0.65297  0.25978000000000007  1.0000
  O   O51       1.0  0.31745  0.82537  0.34796  1.0000
  O   O52       1.0  0.6266899999999999  0.8245  0.42058  1.0000
  O   O53       1.0  0.20660999999999993  0.57916  0.40402  1.0000
  O   O54       1.0  0.21786000000000003  0.6270200000000001  0.31075  1.0000
