data_image0
_chemical_formula_structural       Cu12H54C126N6O48
_chemical_formula_sum              "Cu12 H54 C126 N6 O48"
_cell_length_a       18.76213
_cell_length_b       21.14107
_cell_length_c       21.14107
_cell_angle_alpha    105.77382
_cell_angle_beta     90.01084
_cell_angle_gamma    89.98916

_space_group_name_H-M_alt    "P 1"
_space_group_IT_number       1

loop_
  _space_group_symop_operation_xyz
  'x, y, z'

loop_
  _atom_site_type_symbol
  _atom_site_label
  _atom_site_symmetry_multiplicity
  _atom_site_fract_x
  _atom_site_fract_y
  _atom_site_fract_z
  _atom_site_occupancy
  Cu  Cu1       1.0  0.03256  0.55194  0.01857  1.0000
  Cu  Cu2       1.0  0.5326199999999999  0.4481  0.9815200000000001  1.0000
  Cu  Cu3       1.0  0.4673800000000001  0.98152  0.4481  1.0000
  Cu  Cu4       1.0  0.9674400000000001  0.01857000000000001  0.55194  1.0000
  Cu  Cu5       1.0  0.9674400000000001  0.44807  0.98143  1.0000
  Cu  Cu6       1.0  0.4673800000000001  0.55191  0.01848  1.0000
  Cu  Cu7       1.0  0.5326199999999999  0.01848  0.55191  1.0000
  Cu  Cu8       1.0  0.03256  0.9814300000000001  0.44806  1.0000
  Cu  Cu9       1.0  0.75003  0.4323  0.5677  1.0000
  Cu  Cu10      1.0  0.7510399999999999  0.35971  0.64029  1.0000
  Cu  Cu11      1.0  0.24996  0.5677  0.4323  1.0000
  Cu  Cu12      1.0  0.24896  0.64029  0.35971  1.0000
  H   H1        1.0  0.8958099999999999  0.45102  0.78966  1.0000
  H   H2        1.0  0.014769999999999998  0.6310600000000001  0.85154  1.0000
  H   H3        1.0  0.89781  0.58452  0.66848  1.0000
  H   H4        1.0  0.9653899999999999  0.73349  0.84969  1.0000
  H   H5        1.0  0.86503  0.6889  0.09991  1.0000
  H   H6        1.0  0.39557  0.5491  0.21032  1.0000
  H   H7        1.0  0.51466  0.36906  0.14853  1.0000
  H   H8        1.0  0.39771  0.41557  0.33154  1.0000
  H   H9        1.0  0.46537999999999996  0.26658  0.15037  1.0000
  H   H10       1.0  0.3649  0.31124  0.9001499999999999  1.0000
  H   H11       1.0  0.60443  0.21033  0.5491  1.0000
  H   H12       1.0  0.48534  0.14853  0.36906  1.0000
  H   H13       1.0  0.60229  0.33154  0.41557  1.0000
  H   H14       1.0  0.53461  0.15037  0.26658  1.0000
  H   H15       1.0  0.63509  0.9001500000000001  0.31124  1.0000
  H   H16       1.0  0.10419  0.78966  0.45102  1.0000
  H   H17       1.0  0.98522  0.85155  0.63105  1.0000
  H   H18       1.0  0.10218999999999999  0.6684799999999999  0.58452  1.0000
  H   H19       1.0  0.0346  0.8497  0.7334900000000001  1.0000
  H   H20       1.0  0.13497  0.09991999999999998  0.6889  1.0000
  H   H21       1.0  0.10419  0.54899  0.21034  1.0000
  H   H22       1.0  0.98522  0.36895  0.14846  1.0000
  H   H23       1.0  0.10218999999999999  0.41548000000000007  0.33152  1.0000
  H   H24       1.0  0.0346  0.26651  0.15031  1.0000
  H   H25       1.0  0.13497  0.31111  0.90009  1.0000
  H   H26       1.0  0.60443  0.45091000000000003  0.7896800000000002  1.0000
  H   H27       1.0  0.48534  0.63094  0.85148  1.0000
  H   H28       1.0  0.60229  0.58444  0.66847  1.0000
  H   H29       1.0  0.53461  0.73342  0.8496300000000001  1.0000
  H   H30       1.0  0.63509  0.68876  0.09985  1.0000
  H   H31       1.0  0.39557  0.78968  0.4509  1.0000
  H   H32       1.0  0.51466  0.85148  0.63094  1.0000
  H   H33       1.0  0.39771  0.66847  0.58443  1.0000
  H   H34       1.0  0.46537999999999996  0.84963  0.73342  1.0000
  H   H35       1.0  0.3649  0.09986000000000003  0.68876  1.0000
  H   H36       1.0  0.8958099999999999  0.21034  0.54899  1.0000
  H   H37       1.0  0.014769999999999998  0.14846  0.36895  1.0000
  H   H38       1.0  0.89781  0.33152000000000004  0.41548  1.0000
  H   H39       1.0  0.9653899999999999  0.15031  0.26651  1.0000
  H   H40       1.0  0.86503  0.90009  0.3111  1.0000
  H   H41       1.0  0.0  0.64328  0.64328  1.0000
  H   H42       1.0  0.5  0.3568  0.3568  1.0000
  H   H43       1.0  0.0  0.35672  0.35672  1.0000
  H   H44       1.0  0.5  0.6432  0.6432  1.0000
  H   H45       1.0  0.75019  0.50831  0.0218  1.0000
  H   H46       1.0  0.75  0.79467  0.04313000000000001  1.0000
  H   H47       1.0  0.2498  0.49170000000000014  0.9782000000000001  1.0000
  H   H48       1.0  0.24999  0.20534  0.9568700000000001  1.0000
  H   H49       1.0  0.75019  0.9782  0.49169  1.0000
  H   H50       1.0  0.75  0.95687  0.20534  1.0000
  H   H51       1.0  0.2498  0.02181000000000001  0.50831  1.0000
  H   H52       1.0  0.24999  0.04313999999999999  0.79467  1.0000
  H   H53       1.0  0.75003  0.76366  0.23635  1.0000
  H   H54       1.0  0.24996  0.23635  0.76366  1.0000
  C   C1        1.0  0.8937499999999999  0.51284  0.72348  1.0000
  C   C2        1.0  0.9143599999999998  0.49645000000000006  0.78068  1.0000
  C   C3        1.0  0.95765  0.53953  0.82679  1.0000
  C   C4        1.0  0.9805899999999999  0.5985300000000001  0.8153400000000001  1.0000
  C   C5        1.0  0.9599799999999999  0.6155400000000001  0.75823  1.0000
  C   C6        1.0  0.9164099999999998  0.57199  0.71229  1.0000
  C   C7        1.0  0.84436  0.46814000000000006  0.67651  1.0000
  C   C8        1.0  0.9769  0.52348  0.8893000000000001  1.0000
  C   C9        1.0  0.98154  0.67924  0.74801  1.0000
  C   C10       1.0  0.9818599999999998  0.7363400000000001  0.80111  1.0000
  C   C11       1.0  0.81458  0.59507  0.05969  1.0000
  C   C12       1.0  0.81445  0.66304  0.08951  1.0000
  C   C13       1.0  0.88333  0.55944  0.04079  1.0000
  C   C14       1.0  0.39327999999999996  0.48725  0.27651  1.0000
  C   C15       1.0  0.41411  0.50369  0.21938999999999997  1.0000
  C   C16       1.0  0.45754  0.46064  0.17332  1.0000
  C   C17       1.0  0.48052  0.40162  0.18475  1.0000
  C   C18       1.0  0.4598999999999999  0.38461000000000006  0.24185000000000004  1.0000
  C   C19       1.0  0.41626  0.42816  0.28775  1.0000
  C   C20       1.0  0.34334  0.5315600000000001  0.32345  1.0000
  C   C21       1.0  0.47686999999999996  0.47664000000000006  0.11078  1.0000
  C   C22       1.0  0.48151  0.32088  0.25208  1.0000
  C   C23       1.0  0.48184  0.26376  0.19897000000000004  1.0000
  C   C24       1.0  0.31429  0.40505  0.94037  1.0000
  C   C25       1.0  0.3143  0.33705  0.91053  1.0000
  C   C26       1.0  0.383  0.44084  0.95931  1.0000
  C   C27       1.0  0.60672  0.27651  0.48725  1.0000
  C   C28       1.0  0.58589  0.21939  0.50369  1.0000
  C   C29       1.0  0.54246  0.17331999999999997  0.46063999999999994  1.0000
  C   C30       1.0  0.51948  0.18475000000000003  0.40162000000000003  1.0000
  C   C31       1.0  0.5401  0.24185000000000004  0.3846  1.0000
  C   C32       1.0  0.58373  0.28776  0.42816  1.0000
  C   C33       1.0  0.65666  0.32345  0.53156  1.0000
  C   C34       1.0  0.52313  0.11078  0.47664  1.0000
  C   C35       1.0  0.51849  0.25208  0.32088000000000005  1.0000
  C   C36       1.0  0.5181499999999999  0.19897  0.26376  1.0000
  C   C37       1.0  0.6857  0.9403700000000002  0.40504000000000007  1.0000
  C   C38       1.0  0.6857  0.91053  0.33705  1.0000
  C   C39       1.0  0.617  0.9593100000000001  0.44083000000000006  1.0000
  C   C40       1.0  0.10625  0.72348  0.51284  1.0000
  C   C41       1.0  0.08564  0.7806900000000001  0.49645000000000006  1.0000
  C   C42       1.0  0.04234  0.8267900000000001  0.53953  1.0000
  C   C43       1.0  0.0194  0.81534  0.59853  1.0000
  C   C44       1.0  0.04001  0.7582300000000001  0.61554  1.0000
  C   C45       1.0  0.08358  0.71229  0.57198  1.0000
  C   C46       1.0  0.15564  0.67651  0.46813000000000005  1.0000
  C   C47       1.0  0.0231  0.8893  0.52348  1.0000
  C   C48       1.0  0.01846  0.74801  0.67924  1.0000
  C   C49       1.0  0.01813  0.8011200000000002  0.73634  1.0000
  C   C50       1.0  0.18542  0.05969  0.59507  1.0000
  C   C51       1.0  0.18555  0.08951000000000003  0.66305  1.0000
  C   C52       1.0  0.11666  0.040790000000000035  0.55944  1.0000
  C   C53       1.0  0.10625  0.48716  0.27652  1.0000
  C   C54       1.0  0.08564  0.50355  0.21932000000000001  1.0000
  C   C55       1.0  0.04234  0.46047999999999994  0.17322  1.0000
  C   C56       1.0  0.0194  0.40148  0.18466  1.0000
  C   C57       1.0  0.04001  0.38445999999999997  0.24177000000000004  1.0000
  C   C58       1.0  0.08358  0.42802000000000007  0.28772  1.0000
  C   C59       1.0  0.15564  0.53187  0.3235  1.0000
  C   C60       1.0  0.0231  0.47652  0.11071  1.0000
  C   C61       1.0  0.01846  0.32076  0.252  1.0000
  C   C62       1.0  0.01813  0.26367  0.19889000000000004  1.0000
  C   C63       1.0  0.18542  0.4049400000000001  0.9403100000000001  1.0000
  C   C64       1.0  0.18555  0.33696  0.91049  1.0000
  C   C65       1.0  0.11666  0.44055999999999995  0.95921  1.0000
  C   C66       1.0  0.60672  0.51276  0.7234900000000001  1.0000
  C   C67       1.0  0.58589  0.4963099999999999  0.78061  1.0000
  C   C68       1.0  0.54246  0.53936  0.8266800000000001  1.0000
  C   C69       1.0  0.51948  0.59838  0.81525  1.0000
  C   C70       1.0  0.5401  0.6154000000000002  0.75815  1.0000
  C   C71       1.0  0.58373  0.57184  0.71225  1.0000
  C   C72       1.0  0.65666  0.46845  0.67655  1.0000
  C   C73       1.0  0.52313  0.52337  0.88923  1.0000
  C   C74       1.0  0.51849  0.6791300000000001  0.74792  1.0000
  C   C75       1.0  0.5181499999999999  0.7362400000000002  0.80103  1.0000
  C   C76       1.0  0.6857  0.59496  0.059640000000000006  1.0000
  C   C77       1.0  0.6857  0.66295  0.08948  1.0000
  C   C78       1.0  0.617  0.55917  0.0407  1.0000
  C   C79       1.0  0.39327999999999996  0.72349  0.51276  1.0000
  C   C80       1.0  0.41411  0.7806199999999999  0.49631  1.0000
  C   C81       1.0  0.45754  0.8266800000000001  0.53936  1.0000
  C   C82       1.0  0.48052  0.81525  0.59838  1.0000
  C   C83       1.0  0.4598999999999999  0.75815  0.6154  1.0000
  C   C84       1.0  0.41626  0.71225  0.57184  1.0000
  C   C85       1.0  0.34334  0.67655  0.4684499999999999  1.0000
  C   C86       1.0  0.47686999999999996  0.88923  0.52337  1.0000
  C   C87       1.0  0.48151  0.74792  0.67913  1.0000
  C   C88       1.0  0.48184  0.8010300000000001  0.73624  1.0000
  C   C89       1.0  0.31429  0.059639999999999985  0.59496  1.0000
  C   C90       1.0  0.3143  0.08948  0.66295  1.0000
  C   C91       1.0  0.383  0.0407  0.55917  1.0000
  C   C92       1.0  0.8937499999999999  0.27652000000000004  0.48716000000000004  1.0000
  C   C93       1.0  0.9143599999999998  0.21932  0.50355  1.0000
  C   C94       1.0  0.95765  0.17322  0.46048000000000006  1.0000
  C   C95       1.0  0.9805899999999999  0.18466  0.40148000000000006  1.0000
  C   C96       1.0  0.9599799999999999  0.24177000000000004  0.38446  1.0000
  C   C97       1.0  0.9164099999999998  0.28772  0.42802  1.0000
  C   C98       1.0  0.84436  0.3235  0.53187  1.0000
  C   C99       1.0  0.9769  0.11071  0.47652  1.0000
  C   C100      1.0  0.98154  0.252  0.32076  1.0000
  C   C101      1.0  0.9818599999999998  0.19889  0.26367  1.0000
  C   C102      1.0  0.81458  0.94031  0.40493  1.0000
  C   C103      1.0  0.81445  0.91049  0.33696  1.0000
  C   C104      1.0  0.88333  0.95921  0.44056  1.0000
  C   C105      1.0  0.0  0.68601  0.686  1.0000
  C   C106      1.0  0.5  0.31408  0.31408  1.0000
  C   C107      1.0  0.0  0.314  0.314  1.0000
  C   C108      1.0  0.5  0.68593  0.68592  1.0000
  C   C109      1.0  0.7501699999999999  0.56089  0.04512  1.0000
  C   C110      1.0  0.75005  0.69733  0.10488  1.0000
  C   C111      1.0  0.7500099999999998  0.7696  0.1357  1.0000
  C   C112      1.0  0.75  0.81361  0.09653  1.0000
  C   C113      1.0  0.24981999999999996  0.43912000000000007  0.9548800000000001  1.0000
  C   C114      1.0  0.24995  0.30267000000000005  0.89512  1.0000
  C   C115      1.0  0.24999  0.23041  0.8643  1.0000
  C   C116      1.0  0.24999  0.18639000000000006  0.9034700000000001  1.0000
  C   C117      1.0  0.7501699999999999  0.9548799999999998  0.43911000000000006  1.0000
  C   C118      1.0  0.75005  0.89512  0.30267  1.0000
  C   C119      1.0  0.7500099999999998  0.8643  0.23041  1.0000
  C   C120      1.0  0.75  0.9034699999999999  0.18639  1.0000
  C   C121      1.0  0.24981999999999996  0.04512  0.56089  1.0000
  C   C122      1.0  0.24995  0.10488  0.69733  1.0000
  C   C123      1.0  0.24999  0.1357  0.7696  1.0000
  C   C124      1.0  0.24999  0.09653000000000002  0.8136100000000002  1.0000
  C   C125      1.0  0.75002  0.79596  0.20404  1.0000
  C   C126      1.0  0.24997  0.20405000000000004  0.79596  1.0000
  N   N1        1.0  0.0  0.7960900000000001  0.7960800000000001  1.0000
  N   N2        1.0  0.5  0.20402000000000003  0.20402000000000003  1.0000
  N   N3        1.0  0.0  0.20392  0.20392  1.0000
  N   N4        1.0  0.5  0.7959900000000001  0.7959900000000001  1.0000
  N   N5        1.0  0.75  0.8792800000000001  0.12072  1.0000
  N   N6        1.0  0.25  0.12073000000000005  0.87928  1.0000
  O   O1        1.0  0.8243999999999999  0.48534  0.62558  1.0000
  O   O2        1.0  0.82497  0.41617  0.69195  1.0000
  O   O3        1.0  0.01419  0.56581  0.9310400000000001  1.0000
  O   O4        1.0  0.9533299999999999  0.4691500000000001  0.8967900000000001  1.0000
  O   O5        1.0  0.94039  0.59401  0.05034  1.0000
  O   O6        1.0  0.8795799999999999  0.49720999999999993  0.015390000000000001  1.0000
  O   O7        1.0  0.32452  0.51452  0.37475  1.0000
  O   O8        1.0  0.32205  0.58281  0.30769  1.0000
  O   O9        1.0  0.51421  0.4343  0.06908  1.0000
  O   O10       1.0  0.45325  0.5309  0.10314  1.0000
  O   O11       1.0  0.44010999999999995  0.40631000000000006  0.9497500000000001  1.0000
  O   O12       1.0  0.37918  0.50308  0.98474  1.0000
  O   O13       1.0  0.67548  0.37475  0.51452  1.0000
  O   O14       1.0  0.67794  0.3077  0.58281  1.0000
  O   O15       1.0  0.48578  0.06909  0.4343  1.0000
  O   O16       1.0  0.54675  0.10314  0.5309  1.0000
  O   O17       1.0  0.55989  0.94975  0.40631  1.0000
  O   O18       1.0  0.62082  0.98474  0.50307  1.0000
  O   O19       1.0  0.17558999999999997  0.6255800000000001  0.48534000000000005  1.0000
  O   O20       1.0  0.17502  0.69195  0.41617000000000004  1.0000
  O   O21       1.0  0.9857999999999999  0.93104  0.56581  1.0000
  O   O22       1.0  0.04667  0.8968  0.46915  1.0000
  O   O23       1.0  0.059609999999999996  0.050350000000000006  0.59401  1.0000
  O   O24       1.0  0.12042  0.015390000000000006  0.49721  1.0000
  O   O25       1.0  0.17558999999999997  0.51466  0.37442  1.0000
  O   O26       1.0  0.17502  0.58383  0.30805  1.0000
  O   O27       1.0  0.9857999999999999  0.43418999999999996  0.06896  1.0000
  O   O28       1.0  0.04667  0.53085  0.10321  1.0000
  O   O29       1.0  0.059609999999999996  0.406  0.9496600000000001  1.0000
  O   O30       1.0  0.12042  0.50279  0.98461  1.0000
  O   O31       1.0  0.67548  0.48549  0.62526  1.0000
  O   O32       1.0  0.67794  0.4172  0.69231  1.0000
  O   O33       1.0  0.48578  0.56571  0.9309200000000001  1.0000
  O   O34       1.0  0.54675  0.4691  0.89686  1.0000
  O   O35       1.0  0.55989  0.59369  0.05025  1.0000
  O   O36       1.0  0.62082  0.49693  0.01526  1.0000
  O   O37       1.0  0.32452  0.62526  0.4854800000000001  1.0000
  O   O38       1.0  0.32205  0.69231  0.41719  1.0000
  O   O39       1.0  0.51421  0.93092  0.5657  1.0000
  O   O40       1.0  0.45325  0.89686  0.4691  1.0000
  O   O41       1.0  0.44010999999999995  0.050249999999999996  0.59369  1.0000
  O   O42       1.0  0.37918  0.015260000000000001  0.49693  1.0000
  O   O43       1.0  0.8243999999999999  0.37442  0.51466  1.0000
  O   O44       1.0  0.82497  0.30805  0.58383  1.0000
  O   O45       1.0  0.01419  0.06896000000000001  0.4341900000000001  1.0000
  O   O46       1.0  0.9533299999999999  0.10321  0.53085  1.0000
  O   O47       1.0  0.94039  0.94966  0.406  1.0000
  O   O48       1.0  0.8795799999999999  0.98461  0.50279  1.0000
