data_image0
_chemical_formula_structural       H112Pb8C144O48
_chemical_formula_sum              "H112 Pb8 C144 O48"
_cell_length_a       10.03915
_cell_length_b       9.94683
_cell_length_c       37.90238
_cell_angle_alpha    90.0
_cell_angle_beta     90.0
_cell_angle_gamma    95.78365999999998

_space_group_name_H-M_alt    "P 1"
_space_group_IT_number       1

loop_
  _space_group_symop_operation_xyz
  'x, y, z'

loop_
  _atom_site_type_symbol
  _atom_site_label
  _atom_site_symmetry_multiplicity
  _atom_site_fract_x
  _atom_site_fract_y
  _atom_site_fract_z
  _atom_site_occupancy
  H   H1        1.0  0.67792  0.03401  0.30096  1.0000
  H   H2        1.0  0.86124  0.9408200000000001  0.26827  1.0000
  H   H3        1.0  0.07015000000000003  0.8958300000000002  0.29938  1.0000
  H   H4        1.0  0.17792000000000005  0.9078800000000001  0.44064  1.0000
  H   H5        1.0  0.29096  0.08542  0.47828  1.0000
  H   H6        1.0  0.36748  0.31175  0.45307  1.0000
  H   H7        1.0  0.3845400000000001  0.47908  0.3162  1.0000
  H   H8        1.0  0.22217000000000006  0.5878400000000003  0.27979  1.0000
  H   H9        1.0  0.9968900000000002  0.62064  0.30366  1.0000
  H   H10       1.0  0.8221600000000002  0.56343  0.43945  1.0000
  H   H11       1.0  0.69067  0.37747  0.47066  1.0000
  H   H12       1.0  0.62485  0.15952  0.44019  1.0000
  H   H13       1.0  0.19982000000000003  0.8965900000000001  0.34817  1.0000
  H   H14       1.0  0.11003000000000003  0.82638  0.38429  1.0000
  H   H15       1.0  0.3844000000000001  0.46217000000000014  0.40857  1.0000
  H   H16       1.0  0.44908000000000003  0.39014  0.37089  1.0000
  H   H17       1.0  0.90783  0.66028  0.38624  1.0000
  H   H18       1.0  0.83979  0.5962900000000001  0.34643  1.0000
  H   H19       1.0  0.58493  0.10224  0.35418  1.0000
  H   H20       1.0  0.62983  0.01989  0.39267  1.0000
  H   H21       1.0  0.76754  0.8487500000000001  0.41664  1.0000
  H   H22       1.0  0.93958  0.8216200000000001  0.41626  1.0000
  H   H23       1.0  0.42951  0.23341000000000003  0.33239  1.0000
  H   H24       1.0  0.38548  0.055900000000000005  0.33285  1.0000
  H   H25       1.0  0.23663  0.65061  0.42283  1.0000
  H   H26       1.0  0.06197000000000003  0.6670000000000003  0.42375000000000007  1.0000
  H   H27       1.0  0.62427  0.24831  0.3129  1.0000
  H   H28       1.0  0.62844  0.41762  0.32874  1.0000
  H   H29       1.0  0.82208  0.9659900000000001  0.80096  1.0000
  H   H30       1.0  0.6387600000000001  0.05918  0.76827  1.0000
  H   H31       1.0  0.42985  0.10418  0.79938  1.0000
  H   H32       1.0  0.32208000000000003  0.09213  0.94064  1.0000
  H   H33       1.0  0.20904000000000006  0.9145800000000002  0.9782799999999999  1.0000
  H   H34       1.0  0.13253  0.6882600000000002  0.95307  1.0000
  H   H35       1.0  0.11546  0.52092  0.8162  1.0000
  H   H36       1.0  0.27784  0.41217000000000004  0.77979  1.0000
  H   H37       1.0  0.50311  0.37936000000000003  0.80366  1.0000
  H   H38       1.0  0.6778400000000001  0.4365700000000001  0.93944  1.0000
  H   H39       1.0  0.8093300000000001  0.62254  0.97066  1.0000
  H   H40       1.0  0.8751500000000001  0.8404800000000001  0.94019  1.0000
  H   H41       1.0  0.30018  0.10342  0.8481599999999999  1.0000
  H   H42       1.0  0.38997000000000004  0.17362  0.88429  1.0000
  H   H43       1.0  0.11560000000000004  0.5378300000000001  0.90857  1.0000
  H   H44       1.0  0.05092000000000001  0.60986  0.8708899999999999  1.0000
  H   H45       1.0  0.5921700000000001  0.3397200000000001  0.88624  1.0000
  H   H46       1.0  0.6602100000000001  0.4037200000000001  0.84643  1.0000
  H   H47       1.0  0.9150700000000004  0.8977700000000001  0.8541800000000002  1.0000
  H   H48       1.0  0.8701700000000002  0.9801200000000001  0.89267  1.0000
  H   H49       1.0  0.73247  0.15125  0.91664  1.0000
  H   H50       1.0  0.56042  0.17838  0.91626  1.0000
  H   H51       1.0  0.07049000000000001  0.7665900000000001  0.83239  1.0000
  H   H52       1.0  0.11453  0.9441000000000003  0.83285  1.0000
  H   H53       1.0  0.26337  0.34939  0.92282  1.0000
  H   H54       1.0  0.43803  0.33301  0.92375  1.0000
  H   H55       1.0  0.8757300000000002  0.7517  0.8129  1.0000
  H   H56       1.0  0.87156  0.58239  0.82873  1.0000
  H   H57       1.0  0.32208000000000003  0.9659900000000001  0.69903  1.0000
  H   H58       1.0  0.13876  0.05918  0.73173  1.0000
  H   H59       1.0  0.9298500000000001  0.10418  0.70062  1.0000
  H   H60       1.0  0.82208  0.09213  0.55935  1.0000
  H   H61       1.0  0.7090400000000001  0.9145800000000002  0.52172  1.0000
  H   H62       1.0  0.63253  0.6882600000000002  0.54693  1.0000
  H   H63       1.0  0.61546  0.52092  0.6838  1.0000
  H   H64       1.0  0.77783  0.41217000000000004  0.72021  1.0000
  H   H65       1.0  0.0031100000000000034  0.37936000000000003  0.69634  1.0000
  H   H66       1.0  0.17784  0.4365700000000001  0.56055  1.0000
  H   H67       1.0  0.30934  0.62254  0.52934  1.0000
  H   H68       1.0  0.37515  0.8404800000000001  0.55981  1.0000
  H   H69       1.0  0.80018  0.10342  0.65183  1.0000
  H   H70       1.0  0.88997  0.17362  0.61571  1.0000
  H   H71       1.0  0.6156000000000001  0.5378300000000001  0.59143  1.0000
  H   H72       1.0  0.55092  0.60986  0.62911  1.0000
  H   H73       1.0  0.09217  0.3397200000000001  0.61376  1.0000
  H   H74       1.0  0.16021  0.4037200000000001  0.65357  1.0000
  H   H75       1.0  0.41507000000000005  0.8977700000000001  0.64582  1.0000
  H   H76       1.0  0.37017000000000005  0.9801200000000001  0.60733  1.0000
  H   H77       1.0  0.23247  0.15125  0.58336  1.0000
  H   H78       1.0  0.06042  0.17838  0.58374  1.0000
  H   H79       1.0  0.5704900000000003  0.7665900000000001  0.66761  1.0000
  H   H80       1.0  0.6145300000000001  0.9441000000000003  0.66714  1.0000
  H   H81       1.0  0.7633700000000001  0.34939  0.57717  1.0000
  H   H82       1.0  0.9380300000000003  0.33301  0.57625  1.0000
  H   H83       1.0  0.37573000000000006  0.7517  0.6871  1.0000
  H   H84       1.0  0.3715600000000001  0.58239  0.67126  1.0000
  H   H85       1.0  0.17792000000000005  0.03401  0.19904  1.0000
  H   H86       1.0  0.3612400000000001  0.9408200000000001  0.23173  1.0000
  H   H87       1.0  0.57015  0.8958300000000002  0.20062  1.0000
  H   H88       1.0  0.67792  0.9078800000000001  0.05936  1.0000
  H   H89       1.0  0.79096  0.08542  0.02172  1.0000
  H   H90       1.0  0.8674700000000002  0.31175  0.04693  1.0000
  H   H91       1.0  0.8845400000000002  0.47908  0.1838  1.0000
  H   H92       1.0  0.7221700000000001  0.5878400000000003  0.22021000000000002  1.0000
  H   H93       1.0  0.4968900000000001  0.62064  0.19634  1.0000
  H   H94       1.0  0.32216000000000006  0.56343  0.06054999999999999  1.0000
  H   H95       1.0  0.19067000000000006  0.37747  0.02934  1.0000
  H   H96       1.0  0.12485000000000002  0.15952  0.05981  1.0000
  H   H97       1.0  0.69982  0.8965900000000001  0.15183  1.0000
  H   H98       1.0  0.61003  0.82638  0.11571  1.0000
  H   H99       1.0  0.8844  0.46217000000000014  0.09143  1.0000
  H   H100      1.0  0.9490800000000001  0.39014  0.12911  1.0000
  H   H101      1.0  0.40783  0.66028  0.11376000000000001  1.0000
  H   H102      1.0  0.3397900000000001  0.5962900000000001  0.15357  1.0000
  H   H103      1.0  0.08493  0.10224  0.14582  1.0000
  H   H104      1.0  0.12983  0.01989  0.10733  1.0000
  H   H105      1.0  0.26754  0.8487500000000001  0.08336  1.0000
  H   H106      1.0  0.43958  0.8216200000000001  0.08374  1.0000
  H   H107      1.0  0.92951  0.23341000000000003  0.16761  1.0000
  H   H108      1.0  0.88548  0.055900000000000005  0.16714  1.0000
  H   H109      1.0  0.73663  0.65061  0.07717  1.0000
  H   H110      1.0  0.5619700000000001  0.6670000000000003  0.07625  1.0000
  H   H111      1.0  0.12427  0.24831  0.1871  1.0000
  H   H112      1.0  0.12844  0.41762  0.17126  1.0000
  Pb  Pb1       1.0  0.99465  0.7510400000000002  0.53288  1.0000
  Pb  Pb2       1.0  0.51993  0.2693  0.21537  1.0000
  Pb  Pb3       1.0  0.9800800000000001  0.7307  0.71537  1.0000
  Pb  Pb4       1.0  0.50535  0.24896000000000001  0.03288  1.0000
  Pb  Pb5       1.0  0.005350000000000004  0.24896000000000001  0.4671100000000001  1.0000
  Pb  Pb6       1.0  0.48008000000000006  0.7307  0.78463  1.0000
  Pb  Pb7       1.0  0.019930000000000003  0.2693  0.28463  1.0000
  Pb  Pb8       1.0  0.49466  0.7510400000000002  0.96711  1.0000
  C   C1        1.0  0.8943400000000001  0.0006400000000000003  0.3689  1.0000
  C   C2        1.0  0.77825  0.03307  0.35145  1.0000
  C   C3        1.0  0.76686  0.009440000000000002  0.31509  1.0000
  C   C4        1.0  0.87042  0.9571300000000001  0.29655  1.0000
  C   C5        1.0  0.9874000000000002  0.93112  0.31413  1.0000
  C   C6        1.0  0.0016100000000000092  0.9520300000000002  0.35063  1.0000
  C   C7        1.0  0.24238  0.15543  0.37894  1.0000
  C   C8        1.0  0.19450000000000003  0.02874  0.39292  1.0000
  C   C9        1.0  0.21347000000000002  0.004910000000000002  0.42889999999999995  1.0000
  C   C10       1.0  0.2779  0.10559000000000002  0.45038  1.0000
  C   C11       1.0  0.3210300000000001  0.232  0.43613999999999997  1.0000
  C   C12       1.0  0.30444  0.25955000000000006  0.40016  1.0000
  C   C13       1.0  0.13469  0.49283  0.37641  1.0000
  C   C14       1.0  0.2586  0.46369  0.36262  1.0000
  C   C15       1.0  0.28909000000000007  0.4996500000000001  0.32763  1.0000
  C   C16       1.0  0.1973  0.561  0.30692  1.0000
  C   C17       1.0  0.07097000000000002  0.5796900000000001  0.32042  1.0000
  C   C18       1.0  0.036750000000000005  0.54531  0.35544  1.0000
  C   C19       1.0  0.7801  0.3344300000000001  0.37246  1.0000
  C   C20       1.0  0.8239100000000001  0.45609  0.38964  1.0000
  C   C21       1.0  0.7904500000000002  0.47031000000000006  0.42525  1.0000
  C   C22       1.0  0.71593  0.36501  0.44308  1.0000
  C   C23       1.0  0.67871  0.24288000000000007  0.42588  1.0000
  C   C24       1.0  0.71046  0.22503000000000004  0.39026  1.0000
  C   C25       1.0  0.129  0.92001  0.36889  1.0000
  C   C26       1.0  0.35585  0.39735  0.38574  1.0000
  C   C27       1.0  0.89956  0.5702700000000002  0.36929  1.0000
  C   C28       1.0  0.6688900000000001  0.09150000000000001  0.37216  1.0000
  C   C29       1.0  0.8689100000000001  0.8939700000000003  0.42369  1.0000
  C   C30       1.0  0.8759100000000001  0.9083600000000001  0.46375000000000005  1.0000
  C   C31       1.0  0.3513300000000001  0.15339  0.32486  1.0000
  C   C32       1.0  0.34052  0.15374  0.28469  1.0000
  C   C33       1.0  0.13842  0.59977  0.43068  1.0000
  C   C34       1.0  0.13582  0.5858700000000001  0.47066  1.0000
  C   C35       1.0  0.6876100000000002  0.3444800000000001  0.31577  1.0000
  C   C36       1.0  0.7196300000000001  0.39437  0.27855  1.0000
  C   C37       1.0  0.60566  0.99936  0.8689000000000001  1.0000
  C   C38       1.0  0.7217500000000001  0.9669300000000001  0.85145  1.0000
  C   C39       1.0  0.73314  0.9905600000000002  0.81509  1.0000
  C   C40       1.0  0.6295800000000001  0.04287  0.79655  1.0000
  C   C41       1.0  0.5126  0.06889  0.81413  1.0000
  C   C42       1.0  0.49840000000000007  0.047970000000000006  0.8506300000000001  1.0000
  C   C43       1.0  0.25763  0.84458  0.8789400000000002  1.0000
  C   C44       1.0  0.30551  0.9712700000000001  0.89292  1.0000
  C   C45       1.0  0.28653  0.9950900000000003  0.9288999999999998  1.0000
  C   C46       1.0  0.2221  0.89441  0.95038  1.0000
  C   C47       1.0  0.17897000000000002  0.768  0.93613  1.0000
  C   C48       1.0  0.19556000000000007  0.74045  0.9001599999999998  1.0000
  C   C49       1.0  0.3653200000000001  0.50717  0.87641  1.0000
  C   C50       1.0  0.2414  0.53631  0.8626200000000002  1.0000
  C   C51       1.0  0.21091  0.50035  0.82763  1.0000
  C   C52       1.0  0.3027000000000001  0.43900000000000006  0.80692  1.0000
  C   C53       1.0  0.42904000000000003  0.42031  0.82042  1.0000
  C   C54       1.0  0.4632500000000001  0.4547  0.8554400000000001  1.0000
  C   C55       1.0  0.7199100000000002  0.6655700000000001  0.87245  1.0000
  C   C56       1.0  0.67609  0.5439100000000001  0.88964  1.0000
  C   C57       1.0  0.70955  0.5297  0.92525  1.0000
  C   C58       1.0  0.7840699999999999  0.63499  0.9430700000000001  1.0000
  C   C59       1.0  0.8212900000000001  0.75713  0.92587  1.0000
  C   C60       1.0  0.78955  0.7749700000000002  0.8902499999999999  1.0000
  C   C61       1.0  0.371  0.07999  0.86889  1.0000
  C   C62       1.0  0.14416  0.60265  0.88574  1.0000
  C   C63       1.0  0.60044  0.42973000000000006  0.8692899999999999  1.0000
  C   C64       1.0  0.8311100000000001  0.9085000000000002  0.8721500000000001  1.0000
  C   C65       1.0  0.63109  0.10603000000000001  0.9236800000000001  1.0000
  C   C66       1.0  0.62409  0.09163000000000002  0.96375  1.0000
  C   C67       1.0  0.14868  0.84661  0.82486  1.0000
  C   C68       1.0  0.15949  0.84626  0.78468  1.0000
  C   C69       1.0  0.36158  0.40023  0.93068  1.0000
  C   C70       1.0  0.3641900000000001  0.41414000000000006  0.97066  1.0000
  C   C71       1.0  0.8123900000000001  0.6555300000000001  0.81577  1.0000
  C   C72       1.0  0.78037  0.6056300000000001  0.77855  1.0000
  C   C73       1.0  0.10566000000000002  0.99936  0.6311  1.0000
  C   C74       1.0  0.22175  0.9669300000000001  0.64855  1.0000
  C   C75       1.0  0.23314  0.9905600000000002  0.6849  1.0000
  C   C76       1.0  0.12958000000000003  0.04287  0.70345  1.0000
  C   C77       1.0  0.0126  0.06889  0.68587  1.0000
  C   C78       1.0  0.9984  0.047970000000000006  0.64937  1.0000
  C   C79       1.0  0.75763  0.84458  0.62105  1.0000
  C   C80       1.0  0.80551  0.9712700000000001  0.60707  1.0000
  C   C81       1.0  0.7865300000000001  0.9950900000000003  0.57109  1.0000
  C   C82       1.0  0.7221  0.89441  0.54961  1.0000
  C   C83       1.0  0.67897  0.768  0.56386  1.0000
  C   C84       1.0  0.6955600000000001  0.74045  0.59984  1.0000
  C   C85       1.0  0.86532  0.50717  0.62358  1.0000
  C   C86       1.0  0.7414  0.53631  0.63737  1.0000
  C   C87       1.0  0.71091  0.50035  0.67237  1.0000
  C   C88       1.0  0.8027000000000001  0.43900000000000006  0.69308  1.0000
  C   C89       1.0  0.9290300000000001  0.42031  0.67957  1.0000
  C   C90       1.0  0.9632500000000002  0.4547  0.64456  1.0000
  C   C91       1.0  0.21991000000000005  0.6655700000000001  0.62754  1.0000
  C   C92       1.0  0.17609  0.5439100000000001  0.61036  1.0000
  C   C93       1.0  0.20955  0.5297  0.57474  1.0000
  C   C94       1.0  0.28407000000000004  0.63499  0.55692  1.0000
  C   C95       1.0  0.32129000000000013  0.75713  0.57412  1.0000
  C   C96       1.0  0.28955  0.7749700000000002  0.60974  1.0000
  C   C97       1.0  0.871  0.07999  0.63111  1.0000
  C   C98       1.0  0.6441600000000001  0.60265  0.61426  1.0000
  C   C99       1.0  0.10044000000000004  0.42973000000000006  0.63071  1.0000
  C   C100      1.0  0.3311100000000001  0.9085000000000002  0.62784  1.0000
  C   C101      1.0  0.13109  0.10603000000000001  0.57631  1.0000
  C   C102      1.0  0.12409  0.09163000000000002  0.53624  1.0000
  C   C103      1.0  0.6486700000000001  0.84661  0.67514  1.0000
  C   C104      1.0  0.6595000000000001  0.84626  0.71531  1.0000
  C   C105      1.0  0.8615800000000001  0.40023  0.56932  1.0000
  C   C106      1.0  0.86419  0.41414000000000006  0.52934  1.0000
  C   C107      1.0  0.31239000000000006  0.6555300000000001  0.68423  1.0000
  C   C108      1.0  0.28037  0.6056300000000001  0.72145  1.0000
  C   C109      1.0  0.39435000000000003  0.0006400000000000003  0.1311  1.0000
  C   C110      1.0  0.27825000000000005  0.03307  0.14855  1.0000
  C   C111      1.0  0.26686  0.009440000000000002  0.1849  1.0000
  C   C112      1.0  0.3704200000000001  0.9571300000000001  0.20345  1.0000
  C   C113      1.0  0.4874000000000001  0.93112  0.18587  1.0000
  C   C114      1.0  0.50161  0.9520300000000002  0.14937  1.0000
  C   C115      1.0  0.74237  0.15543  0.12106  1.0000
  C   C116      1.0  0.6945  0.02874  0.10707000000000001  1.0000
  C   C117      1.0  0.71347  0.004910000000000002  0.0711  1.0000
  C   C118      1.0  0.7779  0.10559000000000002  0.04962  1.0000
  C   C119      1.0  0.8210300000000003  0.232  0.06386  1.0000
  C   C120      1.0  0.80444  0.25955000000000006  0.09984  1.0000
  C   C121      1.0  0.63468  0.49283  0.12358  1.0000
  C   C122      1.0  0.7586  0.46369  0.13738  1.0000
  C   C123      1.0  0.7890900000000001  0.4996500000000001  0.17237  1.0000
  C   C124      1.0  0.6973  0.561  0.19308  1.0000
  C   C125      1.0  0.57097  0.5796900000000001  0.17957  1.0000
  C   C126      1.0  0.53675  0.54531  0.14456  1.0000
  C   C127      1.0  0.28010000000000007  0.3344300000000001  0.12754  1.0000
  C   C128      1.0  0.32391  0.45609  0.11036  1.0000
  C   C129      1.0  0.29045  0.47031000000000006  0.07474  1.0000
  C   C130      1.0  0.21593  0.36501  0.056920000000000005  1.0000
  C   C131      1.0  0.17871  0.24288000000000007  0.07412  1.0000
  C   C132      1.0  0.21046000000000004  0.22503000000000004  0.10974000000000002  1.0000
  C   C133      1.0  0.6290000000000001  0.92001  0.13111  1.0000
  C   C134      1.0  0.85585  0.39735  0.11425999999999999  1.0000
  C   C135      1.0  0.3995600000000001  0.5702700000000002  0.13071  1.0000
  C   C136      1.0  0.16889  0.09150000000000001  0.12784  1.0000
  C   C137      1.0  0.3689100000000001  0.8939700000000003  0.07631  1.0000
  C   C138      1.0  0.37591000000000013  0.9083700000000001  0.03625  1.0000
  C   C139      1.0  0.8513300000000001  0.15339  0.17514  1.0000
  C   C140      1.0  0.8405200000000002  0.15374  0.21531  1.0000
  C   C141      1.0  0.6384200000000001  0.59978  0.06932  1.0000
  C   C142      1.0  0.63581  0.5858700000000001  0.02934  1.0000
  C   C143      1.0  0.18761000000000003  0.3444800000000001  0.18423  1.0000
  C   C144      1.0  0.21963000000000002  0.39437  0.22145000000000004  1.0000
  O   O1        1.0  0.90032  0.01974  0.40548  1.0000
  O   O2        1.0  0.8786900000000001  0.79359  0.47888  1.0000
  O   O3        1.0  0.8739100000000001  0.02108  0.47867  1.0000
  O   O4        1.0  0.22813000000000005  0.1734  0.34253  1.0000
  O   O5        1.0  0.45488000000000006  0.15027000000000004  0.26985  1.0000
  O   O6        1.0  0.22963  0.15340000000000004  0.26925  1.0000
  O   O7        1.0  0.11330000000000004  0.4725800000000001  0.41263  1.0000
  O   O8        1.0  0.1409  0.70129  0.48582999999999993  1.0000
  O   O9        1.0  0.13228000000000004  0.47285  0.4857000000000001  1.0000
  O   O10       1.0  0.80572  0.32709  0.33626  1.0000
  O   O11       1.0  0.61414  0.4141000000000001  0.26109  1.0000
  O   O12       1.0  0.8384600000000001  0.41374  0.26758  1.0000
  O   O13       1.0  0.59968  0.98026  0.90548  1.0000
  O   O14       1.0  0.62131  0.20641000000000004  0.9788800000000001  1.0000
  O   O15       1.0  0.6260900000000001  0.9789300000000001  0.97867  1.0000
  O   O16       1.0  0.27188  0.8266  0.84253  1.0000
  O   O17       1.0  0.04514000000000002  0.8497400000000002  0.76985  1.0000
  O   O18       1.0  0.27039  0.84661  0.76925  1.0000
  O   O19       1.0  0.3867  0.5274300000000001  0.9126299999999999  1.0000
  O   O20       1.0  0.3591  0.29871  0.9858300000000001  1.0000
  O   O21       1.0  0.3677200000000001  0.5271500000000001  0.9857  1.0000
  O   O22       1.0  0.69429  0.67291  0.83626  1.0000
  O   O23       1.0  0.88587  0.5859  0.76109  1.0000
  O   O24       1.0  0.6615400000000002  0.5862600000000002  0.76758  1.0000
  O   O25       1.0  0.09968  0.98026  0.59452  1.0000
  O   O26       1.0  0.12131  0.20641000000000004  0.52111  1.0000
  O   O27       1.0  0.12609000000000006  0.9789300000000001  0.52133  1.0000
  O   O28       1.0  0.77188  0.8266  0.65747  1.0000
  O   O29       1.0  0.54514  0.8497400000000002  0.73014  1.0000
  O   O30       1.0  0.7703900000000001  0.84661  0.73075  1.0000
  O   O31       1.0  0.8867000000000002  0.5274300000000001  0.58736  1.0000
  O   O32       1.0  0.8591  0.29871  0.51417  1.0000
  O   O33       1.0  0.8677200000000002  0.5271500000000001  0.51429  1.0000
  O   O34       1.0  0.19429000000000002  0.67291  0.66374  1.0000
  O   O35       1.0  0.38587  0.5859  0.73891  1.0000
  O   O36       1.0  0.16154000000000002  0.5862600000000002  0.73242  1.0000
  O   O37       1.0  0.40032000000000006  0.01974  0.09452  1.0000
  O   O38       1.0  0.37869000000000014  0.79359  0.02111  1.0000
  O   O39       1.0  0.37391  0.02108  0.02133  1.0000
  O   O40       1.0  0.7281200000000002  0.1734  0.15747  1.0000
  O   O41       1.0  0.9548700000000002  0.15027000000000004  0.23015  1.0000
  O   O42       1.0  0.72962  0.15340000000000004  0.23075000000000004  1.0000
  O   O43       1.0  0.6133000000000001  0.4725800000000001  0.08737  1.0000
  O   O44       1.0  0.6409  0.70129  0.01417  1.0000
  O   O45       1.0  0.6322800000000002  0.47285  0.014299999999999998  1.0000
  O   O46       1.0  0.30572  0.32709  0.16374  1.0000
  O   O47       1.0  0.11414000000000003  0.4141000000000001  0.23891000000000004  1.0000
  O   O48       1.0  0.33846  0.41374  0.23242  1.0000
