data_image0
_chemical_formula_structural       Cd8H88C116S4N8O32
_chemical_formula_sum              "Cd8 H88 C116 S4 N8 O32"
_cell_length_a       11.08795
_cell_length_b       17.512059999999998
_cell_length_c       19.86016
_cell_angle_alpha    89.87702999999999
_cell_angle_beta     97.25362
_cell_angle_gamma    90.1193

_symmetry_space_group_name_H-M    'P 1'
_symmetry_Int_Tables_number       1

loop_
  _symmetry_equiv_pos_as_xyz
  'x,y,z'

loop_
  _atom_site_type_symbol
  _atom_site_label
  _atom_site_symmetry_multiplicity
  _atom_site_fract_x
  _atom_site_fract_y
  _atom_site_fract_z
  _atom_site_occupancy
  Cd  Cd1       1.0  0.60627  0.6167600000000001  0.56192  1.0000
  Cd  Cd2       1.0  0.54656  0.55754  0.38152  1.0000
  Cd  Cd3       1.0  0.39193  0.1169  0.93884  1.0000
  Cd  Cd4       1.0  0.45422  0.05702999999999999  0.11942  1.0000
  Cd  Cd5       1.0  0.39374  0.38323  0.43807  1.0000
  Cd  Cd6       1.0  0.45344  0.44246  0.61848  1.0000
  Cd  Cd7       1.0  0.60807  0.88309  0.061160000000000006  1.0000
  Cd  Cd8       1.0  0.54578  0.94297  0.88058  1.0000
  H   H1        1.0  0.35719  0.7222500000000001  0.43744  1.0000
  H   H2        1.0  0.15286  0.73731  0.37491  1.0000
  H   H3        1.0  0.12123  0.82042  0.27112  1.0000
  H   H4        1.0  0.29528  0.88361  0.22829  1.0000
  H   H5        1.0  0.74843  0.92286  0.24544000000000002  1.0000
  H   H6        1.0  0.95106  0.90527  0.30928  1.0000
  H   H7        1.0  0.97736  0.82927  0.4168299999999999  1.0000
  H   H8        1.0  0.7986300000000001  0.77223  0.46032999999999996  1.0000
  H   H9        1.0  0.8514900000000001  0.5797400000000001  0.50143  1.0000
  H   H10       1.0  0.06934000000000003  0.6211200000000002  0.51114  1.0000
  H   H11       1.0  0.0028999999999999955  0.7586400000000002  0.68292  1.0000
  H   H12       1.0  0.78926  0.7095000000000001  0.66774  1.0000
  H   H13       1.0  0.24225  0.68232  0.58292  1.0000
  H   H14       1.0  0.21748  0.73157  0.65766  1.0000
  H   H15       1.0  0.16183  0.79268  0.51192  1.0000
  H   H16       1.0  0.12517  0.84095  0.58413  1.0000
  H   H17       1.0  0.38261  0.7961  0.55465  1.0000
  H   H18       1.0  0.32005  0.88861  0.54906  1.0000
  H   H19       1.0  0.29971  0.93996  0.79266  1.0000
  H   H20       1.0  0.21324  0.9167300000000002  0.67272  1.0000
  H   H21       1.0  0.53113  0.78149  0.65071  1.0000
  H   H22       1.0  0.6061800000000002  0.81137  0.77149  1.0000
  H   H23       1.0  0.64284  0.22276000000000007  0.06321  1.0000
  H   H24       1.0  0.84708  0.23801000000000003  0.12579  1.0000
  H   H25       1.0  0.87892  0.32084  0.22948  1.0000
  H   H26       1.0  0.70511  0.38388000000000005  0.27199  1.0000
  H   H27       1.0  0.25245  0.42304  0.25481  1.0000
  H   H28       1.0  0.04961  0.40523  0.19128  1.0000
  H   H29       1.0  0.02274  0.32953  0.08386  1.0000
  H   H30       1.0  0.201  0.27261  0.04033  1.0000
  H   H31       1.0  0.14749  0.07949  0.9987099999999999  1.0000
  H   H32       1.0  0.92992  0.12104000000000001  0.98895  1.0000
  H   H33       1.0  0.99712  0.25866  0.81686  1.0000
  H   H34       1.0  0.21052  0.20958  0.83211  1.0000
  H   H35       1.0  0.7574500000000001  0.18210000000000004  0.91721  1.0000
  H   H36       1.0  0.78209  0.23128000000000004  0.8422099999999999  1.0000
  H   H37       1.0  0.8382100000000001  0.2926600000000001  0.98764  1.0000
  H   H38       1.0  0.8746000000000002  0.34096  0.91516  1.0000
  H   H39       1.0  0.6172499999999999  0.29557  0.945  1.0000
  H   H40       1.0  0.6799  0.38816  0.95037  1.0000
  H   H41       1.0  0.69969  0.44054  0.70675  1.0000
  H   H42       1.0  0.78636  0.41691000000000006  0.82663  1.0000
  H   H43       1.0  0.46843  0.28111  0.84904  1.0000
  H   H44       1.0  0.39277000000000006  0.31153  0.72839  1.0000
  H   H45       1.0  0.64281  0.27775  0.56256  1.0000
  H   H46       1.0  0.84714  0.26269000000000003  0.62508  1.0000
  H   H47       1.0  0.87877  0.17958  0.72888  1.0000
  H   H48       1.0  0.70472  0.11639  0.77171  1.0000
  H   H49       1.0  0.25157  0.07714  0.75455  1.0000
  H   H50       1.0  0.04894  0.09473  0.69071  1.0000
  H   H51       1.0  0.022640000000000004  0.17073  0.58317  1.0000
  H   H52       1.0  0.20137  0.22776999999999997  0.53966  1.0000
  H   H53       1.0  0.14850999999999998  0.42026  0.49856999999999996  1.0000
  H   H54       1.0  0.9306600000000002  0.37887  0.48885999999999996  1.0000
  H   H55       1.0  0.9971  0.24136  0.31708  1.0000
  H   H56       1.0  0.21074000000000004  0.29049  0.33226  1.0000
  H   H57       1.0  0.7577600000000001  0.31768  0.41708  1.0000
  H   H58       1.0  0.78253  0.26843  0.34234  1.0000
  H   H59       1.0  0.83817  0.20732  0.48808  1.0000
  H   H60       1.0  0.87483  0.15904  0.41587  1.0000
  H   H61       1.0  0.61739  0.2039  0.44535  1.0000
  H   H62       1.0  0.67995  0.11139  0.45094  1.0000
  H   H63       1.0  0.70029  0.06004  0.20734000000000002  1.0000
  H   H64       1.0  0.78676  0.08327  0.32728  1.0000
  H   H65       1.0  0.46887  0.21851  0.34929  1.0000
  H   H66       1.0  0.39382  0.18863  0.2285  1.0000
  H   H67       1.0  0.35716  0.77723  0.93679  1.0000
  H   H68       1.0  0.15293000000000004  0.76198  0.87421  1.0000
  H   H69       1.0  0.12108  0.67916  0.77052  1.0000
  H   H70       1.0  0.29489  0.61611  0.72801  1.0000
  H   H71       1.0  0.7475500000000002  0.57696  0.74519  1.0000
  H   H72       1.0  0.9503900000000001  0.59476  0.80871  1.0000
  H   H73       1.0  0.9772600000000001  0.67047  0.91614  1.0000
  H   H74       1.0  0.799  0.72739  0.95966  1.0000
  H   H75       1.0  0.8525100000000001  0.9205100000000002  0.00129  1.0000
  H   H76       1.0  0.07008  0.8789600000000001  0.01105  1.0000
  H   H77       1.0  0.0028799999999999967  0.74134  0.18314  1.0000
  H   H78       1.0  0.7894800000000001  0.79042  0.16788  1.0000
  H   H79       1.0  0.24256  0.8179  0.08278  1.0000
  H   H80       1.0  0.21791  0.76872  0.15779  1.0000
  H   H81       1.0  0.16179  0.70733  0.01236  1.0000
  H   H82       1.0  0.12540000000000004  0.65903  0.08484  1.0000
  H   H83       1.0  0.38275  0.70443  0.054990000000000004  1.0000
  H   H84       1.0  0.3201  0.61184  0.04963  1.0000
  H   H85       1.0  0.30031  0.55945  0.29325  1.0000
  H   H86       1.0  0.21364  0.58309  0.17337  1.0000
  H   H87       1.0  0.53157  0.71888  0.15096  1.0000
  H   H88       1.0  0.60723  0.68847  0.27161  1.0000
  C   C1        1.0  0.58421  0.72908  0.46141  1.0000
  C   C2        1.0  0.56526  0.78234  0.40211  1.0000
  C   C3        1.0  0.44704  0.79385  0.36876  1.0000
  C   C4        1.0  0.34399  0.75801  0.39216  1.0000
  C   C5        1.0  0.22967000000000004  0.7666700000000002  0.35727  1.0000
  C   C6        1.0  0.21232000000000004  0.81301  0.2979  1.0000
  C   C7        1.0  0.30927  0.84809  0.27354  1.0000
  C   C8        1.0  0.43039  0.83902  0.30714  1.0000
  C   C9        1.0  0.53365  0.86795  0.28043  1.0000
  C   C10       1.0  0.652  0.8583200000000001  0.31562  1.0000
  C   C11       1.0  0.7583100000000002  0.8902  0.29236  1.0000
  C   C12       1.0  0.87188  0.88014  0.32803  1.0000
  C   C13       1.0  0.8869700000000001  0.8369500000000001  0.38923  1.0000
  C   C14       1.0  0.7874700000000001  0.80518  0.41343  1.0000
  C   C15       1.0  0.66786  0.81507  0.37811  1.0000
  C   C16       1.0  0.52102  0.90264  0.21040000000000003  1.0000
  C   C17       1.0  0.88924  0.61928  0.54084  1.0000
  C   C18       1.0  0.009899999999999999  0.6429400000000001  0.54644  1.0000
  C   C19       1.0  0.05448  0.69417  0.59781  1.0000
  C   C20       1.0  0.9732500000000001  0.71886  0.64205  1.0000
  C   C21       1.0  0.8540200000000001  0.69233  0.63375  1.0000
  C   C22       1.0  0.18267  0.72369  0.60385  1.0000
  C   C23       1.0  0.19012  0.80056  0.56655  1.0000
  C   C24       1.0  0.3196  0.83408  0.57682  1.0000
  C   C25       1.0  0.34859  0.90591  0.7591  1.0000
  C   C26       1.0  0.301  0.8923100000000003  0.69219  1.0000
  C   C27       1.0  0.36682000000000003  0.84844  0.65028  1.0000
  C   C28       1.0  0.47782  0.81799  0.67997  1.0000
  C   C29       1.0  0.52025  0.8344  0.74737  1.0000
  C   C30       1.0  0.41566  0.22899000000000003  0.0396  1.0000
  C   C31       1.0  0.43474  0.28263  0.09847  1.0000
  C   C32       1.0  0.5531  0.29444  0.13156  1.0000
  C   C33       1.0  0.65602  0.25857  0.10835999999999998  1.0000
  C   C34       1.0  0.7703400000000001  0.26727  0.1433  1.0000
  C   C35       1.0  0.7878899999999998  0.31356  0.20254  1.0000
  C   C36       1.0  0.69111  0.3487400000000001  0.22663999999999998  1.0000
  C   C37       1.0  0.5700699999999999  0.33983  0.1929  1.0000
  C   C38       1.0  0.46711  0.3689300000000001  0.21948  1.0000
  C   C39       1.0  0.34859  0.35911  0.18447  1.0000
  C   C40       1.0  0.24243  0.39072  0.20783  1.0000
  C   C41       1.0  0.12869  0.38038  0.17241  1.0000
  C   C42       1.0  0.11325000000000002  0.33723  0.11135000000000002  1.0000
  C   C43       1.0  0.21255  0.30557  0.08713  1.0000
  C   C44       1.0  0.33235  0.3156  0.12225  1.0000
  C   C45       1.0  0.4795499999999999  0.40313  0.2896  1.0000
  C   C46       1.0  0.10998000000000004  0.11909  0.95919  1.0000
  C   C47       1.0  0.98952  0.14278  0.95358  1.0000
  C   C48       1.0  0.94517  0.19408  0.9020999999999999  1.0000
  C   C49       1.0  0.026539999999999973  0.21879000000000007  0.8577799999999999  1.0000
  C   C50       1.0  0.14563000000000004  0.19228000000000003  0.86611  1.0000
  C   C51       1.0  0.81705  0.22352  0.89604  1.0000
  C   C52       1.0  0.8097500000000001  0.30044000000000004  0.93299  1.0000
  C   C53       1.0  0.68027  0.3337  0.92269  1.0000
  C   C54       1.0  0.65074  0.40628  0.74034  1.0000
  C   C55       1.0  0.69858  0.39238  0.8072  1.0000
  C   C56       1.0  0.6329100000000002  0.3482  0.84923  1.0000
  C   C57       1.0  0.52171  0.31777  0.81966  1.0000
  C   C58       1.0  0.47894  0.33451  0.75234  1.0000
  C   C59       1.0  0.41579000000000005  0.27092  0.53859  1.0000
  C   C60       1.0  0.43474  0.21766  0.59789  1.0000
  C   C61       1.0  0.55296  0.20614000000000002  0.63123  1.0000
  C   C62       1.0  0.65601  0.24198  0.60784  1.0000
  C   C63       1.0  0.77033  0.23332000000000003  0.64273  1.0000
  C   C64       1.0  0.78768  0.18698  0.70209  1.0000
  C   C65       1.0  0.6907299999999998  0.15191000000000002  0.72646  1.0000
  C   C66       1.0  0.56961  0.16098  0.69286  1.0000
  C   C67       1.0  0.46636  0.13204  0.71957  1.0000
  C   C68       1.0  0.348  0.14168  0.68438  1.0000
  C   C69       1.0  0.24169  0.1098  0.70764  1.0000
  C   C70       1.0  0.12812  0.11986  0.67196  1.0000
  C   C71       1.0  0.11303  0.16305000000000006  0.61077  1.0000
  C   C72       1.0  0.21253  0.19482000000000002  0.58657  1.0000
  C   C73       1.0  0.33214  0.18492  0.62189  1.0000
  C   C74       1.0  0.4789800000000001  0.09736  0.7896  1.0000
  C   C75       1.0  0.11075999999999998  0.38071  0.45915999999999996  1.0000
  C   C76       1.0  0.9901  0.35705  0.45356  1.0000
  C   C77       1.0  0.9455200000000002  0.30582  0.40219  1.0000
  C   C78       1.0  0.026749999999999996  0.28114  0.35795  1.0000
  C   C79       1.0  0.14598  0.30767  0.36625  1.0000
  C   C80       1.0  0.8173300000000001  0.27631  0.39615  1.0000
  C   C81       1.0  0.80988  0.19943  0.43345  1.0000
  C   C82       1.0  0.6804  0.16592000000000007  0.42318000000000006  1.0000
  C   C83       1.0  0.65141  0.09409  0.24090000000000003  1.0000
  C   C84       1.0  0.699  0.10768  0.3078  1.0000
  C   C85       1.0  0.63319  0.15155  0.34972  1.0000
  C   C86       1.0  0.52218  0.18201  0.32003  1.0000
  C   C87       1.0  0.47975000000000007  0.1656  0.25263  1.0000
  C   C88       1.0  0.5843400000000001  0.771  0.9604000000000001  1.0000
  C   C89       1.0  0.56526  0.71736  0.9015300000000002  1.0000
  C   C90       1.0  0.44691  0.70556  0.8684400000000001  1.0000
  C   C91       1.0  0.34398  0.74143  0.89164  1.0000
  C   C92       1.0  0.22966000000000003  0.73272  0.8567  1.0000
  C   C93       1.0  0.21211  0.68644  0.79746  1.0000
  C   C94       1.0  0.30889  0.65126  0.77336  1.0000
  C   C95       1.0  0.42993  0.66016  0.8071  1.0000
  C   C96       1.0  0.53289  0.63107  0.78052  1.0000
  C   C97       1.0  0.65141  0.64088  0.81553  1.0000
  C   C98       1.0  0.75757  0.60927  0.79217  1.0000
  C   C99       1.0  0.8713200000000001  0.6196200000000001  0.82758  1.0000
  C   C100      1.0  0.8867500000000001  0.6627700000000002  0.8886400000000001  1.0000
  C   C101      1.0  0.78745  0.69443  0.91287  1.0000
  C   C102      1.0  0.6676499999999999  0.6844  0.8777399999999999  1.0000
  C   C103      1.0  0.52045  0.59687  0.71039  1.0000
  C   C104      1.0  0.89002  0.88091  0.04081  1.0000
  C   C105      1.0  0.01048  0.85721  0.04642  1.0000
  C   C106      1.0  0.05483  0.80592  0.0979  1.0000
  C   C107      1.0  0.9734599999999999  0.7812  0.14221  1.0000
  C   C108      1.0  0.8543700000000001  0.80772  0.13389  1.0000
  C   C109      1.0  0.18296  0.77648  0.10396  1.0000
  C   C110      1.0  0.19025  0.69956  0.06701  1.0000
  C   C111      1.0  0.31974000000000014  0.6663  0.0773  1.0000
  C   C112      1.0  0.34926  0.5937100000000001  0.25966  1.0000
  C   C113      1.0  0.30142  0.60761  0.1928  1.0000
  C   C114      1.0  0.3670900000000001  0.6517900000000002  0.15077  1.0000
  C   C115      1.0  0.47829  0.68223  0.18033  1.0000
  C   C116      1.0  0.52106  0.6654900000000001  0.24765999999999996  1.0000
  S   S1        1.0  0.32037  0.55544  0.49072  1.0000
  S   S2        1.0  0.67728  0.05614  0.01002  1.0000
  S   S3        1.0  0.67963  0.44456  0.50928  1.0000
  S   S4        1.0  0.32272  0.94385  0.98998  1.0000
  N   N1        1.0  0.8118700000000001  0.64345  0.5837  1.0000
  N   N2        1.0  0.4578900000000001  0.87862  0.78647  1.0000
  N   N3        1.0  0.18747  0.14332  0.9162699999999999  1.0000
  N   N4        1.0  0.54122  0.379  0.71313  1.0000
  N   N5        1.0  0.18813  0.35655  0.4163  1.0000
  N   N6        1.0  0.54211  0.12138000000000002  0.21352  1.0000
  N   N7        1.0  0.8125300000000001  0.85668  0.08373  1.0000
  N   N8        1.0  0.45878  0.621  0.28687  1.0000
  O   O1        1.0  0.61277  0.65917  0.4481899999999999  1.0000
  O   O2        1.0  0.57562  0.75071  0.52077  1.0000
  O   O3        1.0  0.45463  0.9614200000000002  0.19849  1.0000
  O   O4        1.0  0.58084  0.86752  0.16923  1.0000
  O   O5        1.0  0.39519000000000004  0.62091  0.52145  1.0000
  O   O6        1.0  0.39446  0.51478  0.43906  1.0000
  O   O7        1.0  0.20376000000000002  0.57995  0.45456  1.0000
  O   O8        1.0  0.30265  0.49621  0.54453  1.0000
  O   O9        1.0  0.38709000000000005  0.1591  0.053259999999999995  1.0000
  O   O10       1.0  0.42419  0.25060000000000004  0.98013  1.0000
  O   O11       1.0  0.54582  0.4617299999999999  0.30267  1.0000
  O   O12       1.0  0.41864  0.36731  0.33008  1.0000
  O   O13       1.0  0.59957  0.12054000000000001  0.97969  1.0000
  O   O14       1.0  0.60674  0.014830000000000001  0.06322  1.0000
  O   O15       1.0  0.79409  0.08325  0.0441  1.0000
  O   O16       1.0  0.6948499999999999  0.9964100000000001  0.95687  1.0000
  O   O17       1.0  0.3872300000000001  0.34083  0.5518  1.0000
  O   O18       1.0  0.42439  0.24929  0.47923  1.0000
  O   O19       1.0  0.5453700000000001  0.03857  0.80151  1.0000
  O   O20       1.0  0.41916  0.13247  0.83077  1.0000
  O   O21       1.0  0.60482  0.37909  0.4785400000000001  1.0000
  O   O22       1.0  0.60554  0.4852099999999999  0.56094  1.0000
  O   O23       1.0  0.79624  0.4200400000000001  0.54544  1.0000
  O   O24       1.0  0.69735  0.50379  0.45547  1.0000
  O   O25       1.0  0.61291  0.84089  0.94674  1.0000
  O   O26       1.0  0.5758099999999999  0.7494  0.01987  1.0000
  O   O27       1.0  0.45418  0.5382700000000001  0.69733  1.0000
  O   O28       1.0  0.5813699999999999  0.63269  0.66992  1.0000
  O   O29       1.0  0.40043  0.87946  0.0203  1.0000
  O   O30       1.0  0.39327000000000006  0.98517  0.9367800000000001  1.0000
  O   O31       1.0  0.20591999999999996  0.91674  0.9558899999999999  1.0000
  O   O32       1.0  0.30515  0.0035900000000000003  0.04313  1.0000
