data_image0
_chemical_formula_structural       K4Cu8H108C152N24O20
_chemical_formula_sum              "K4 Cu8 H108 C152 N24 O20"
_cell_length_a       8.31241
_cell_length_b       19.91462
_cell_length_c       22.32468
_cell_angle_alpha    90.0
_cell_angle_beta     90.0
_cell_angle_gamma    89.95704000000002

_symmetry_space_group_name_H-M    'P 1'
_symmetry_Int_Tables_number       1

loop_
  _symmetry_equiv_pos_as_xyz
  'x,y,z'

loop_
  _atom_site_type_symbol
  _atom_site_label
  _atom_site_symmetry_multiplicity
  _atom_site_fract_x
  _atom_site_fract_y
  _atom_site_fract_z
  _atom_site_occupancy
  K   K1        1.0  0.16594  0.00321  0.64927  1.0000
  K   K2        1.0  0.33406  0.9967899999999998  0.14926  1.0000
  K   K3        1.0  0.83251  0.50325  0.8501499999999999  1.0000
  K   K4        1.0  0.6675  0.49675  0.35015  1.0000
  Cu  Cu1       1.0  0.00247  0.07415  0.40834  1.0000
  Cu  Cu2       1.0  0.6860700000000001  0.16992  0.36533  1.0000
  Cu  Cu3       1.0  0.49753000000000003  0.9258499999999998  0.90834  1.0000
  Cu  Cu4       1.0  0.81393  0.8300799999999999  0.86533  1.0000
  Cu  Cu5       1.0  0.99557  0.5743599999999999  0.09191  1.0000
  Cu  Cu6       1.0  0.31075000000000014  0.66916  0.13494  1.0000
  Cu  Cu7       1.0  0.50444  0.42564  0.59191  1.0000
  Cu  Cu8       1.0  0.18926  0.33083999999999997  0.63494  1.0000
  H   H1        1.0  0.81555  0.14738  0.46321  1.0000
  H   H2        1.0  0.8235000000000001  0.9437799999999998  0.55273  1.0000
  H   H3        1.0  0.63418  0.97171  0.63491  1.0000
  H   H4        1.0  0.61122  0.08921999999999998  0.67176  1.0000
  H   H5        1.0  0.77143  0.17952  0.6221  1.0000
  H   H6        1.0  0.95839  0.15182999999999996  0.53933  1.0000
  H   H7        1.0  0.32953  0.87648  0.46642000000000006  1.0000
  H   H8        1.0  0.43275  0.8549699999999999  0.36139  1.0000
  H   H9        1.0  0.33643  0.92778  0.27692  1.0000
  H   H10       1.0  0.90751  0.08723  0.21012  1.0000
  H   H11       1.0  0.8183  0.18482  0.1501  1.0000
  H   H12       1.0  0.8536000000000002  0.30134  0.18955  1.0000
  H   H13       1.0  0.96929  0.31747  0.29151  1.0000
  H   H14       1.0  0.05784000000000001  0.21916999999999998  0.35121  1.0000
  H   H15       1.0  0.34361  0.14559  0.18349  1.0000
  H   H16       1.0  0.28774  0.26922  0.17522  1.0000
  H   H17       1.0  0.42236  0.34938  0.24654999999999996  1.0000
  H   H18       1.0  0.77009  0.98765  0.25202  1.0000
  H   H19       1.0  0.88827  0.8798099999999998  0.28527  1.0000
  H   H20       1.0  0.8684600000000002  0.84444  0.39208  1.0000
  H   H21       1.0  0.72953  0.91957  0.46537000000000006  1.0000
  H   H22       1.0  0.6230200000000002  0.02953  0.43285000000000007  1.0000
  H   H23       1.0  0.62524  0.23418999999999998  0.49834  1.0000
  H   H24       1.0  0.74445  0.28492  0.59002  1.0000
  H   H25       1.0  0.93225  0.38114999999999993  0.58251  1.0000
  H   H26       1.0  0.014869999999999998  0.42233  0.48071  1.0000
  H   H27       1.0  0.8999400000000001  0.37083  0.38991  1.0000
  H   H28       1.0  0.68446  0.85262  0.96321  1.0000
  H   H29       1.0  0.67651  0.05622  0.05273  1.0000
  H   H30       1.0  0.86582  0.02828  0.13491  1.0000
  H   H31       1.0  0.8887800000000002  0.91078  0.17176  1.0000
  H   H32       1.0  0.7285800000000002  0.8204799999999999  0.1221  1.0000
  H   H33       1.0  0.54162  0.84817  0.03933  1.0000
  H   H34       1.0  0.17047000000000007  0.12350999999999998  0.96642  1.0000
  H   H35       1.0  0.06725  0.14502  0.8613899999999999  1.0000
  H   H36       1.0  0.16357  0.07220999999999998  0.77692  1.0000
  H   H37       1.0  0.59249  0.91277  0.71012  1.0000
  H   H38       1.0  0.68171  0.81518  0.6501  1.0000
  H   H39       1.0  0.64641  0.69866  0.68955  1.0000
  H   H40       1.0  0.53072  0.68253  0.79151  1.0000
  H   H41       1.0  0.44216  0.78083  0.85121  1.0000
  H   H42       1.0  0.15639  0.8544099999999999  0.68349  1.0000
  H   H43       1.0  0.21226000000000006  0.73077  0.67522  1.0000
  H   H44       1.0  0.07764  0.6506199999999999  0.74655  1.0000
  H   H45       1.0  0.72991  0.012349999999999998  0.75202  1.0000
  H   H46       1.0  0.6117400000000001  0.12019  0.7852699999999999  1.0000
  H   H47       1.0  0.63155  0.15555  0.89208  1.0000
  H   H48       1.0  0.7704700000000002  0.08043  0.96537  1.0000
  H   H49       1.0  0.87699  0.97046  0.93285  1.0000
  H   H50       1.0  0.8747700000000002  0.76581  0.99834  1.0000
  H   H51       1.0  0.7555600000000002  0.71507  0.09002  1.0000
  H   H52       1.0  0.56776  0.61884  0.08251  1.0000
  H   H53       1.0  0.48513000000000006  0.57766  0.9807100000000001  1.0000
  H   H54       1.0  0.60006  0.62917  0.88991  1.0000
  H   H55       1.0  0.18282000000000004  0.6462299999999999  0.03726  1.0000
  H   H56       1.0  0.17262  0.44348999999999994  0.94722  1.0000
  H   H57       1.0  0.36342  0.4711999999999999  0.8654  1.0000
  H   H58       1.0  0.38864  0.5887899999999999  0.8290299999999999  1.0000
  H   H59       1.0  0.22847  0.67938  0.87852  1.0000
  H   H60       1.0  0.04024  0.65179  0.96101  1.0000
  H   H61       1.0  0.6661000000000002  0.3776999999999999  0.03367  1.0000
  H   H62       1.0  0.56828  0.35461  0.13938  1.0000
  H   H63       1.0  0.66752  0.4266399999999999  0.2239  1.0000
  H   H64       1.0  0.09331000000000003  0.58704  0.2901  1.0000
  H   H65       1.0  0.1819  0.68488  0.34999  1.0000
  H   H66       1.0  0.14569  0.80128  0.31034  1.0000
  H   H67       1.0  0.02956  0.8170599999999999  0.20848  1.0000
  H   H68       1.0  0.9412600000000002  0.7186  0.14896  1.0000
  H   H69       1.0  0.65489  0.64402  0.31604  1.0000
  H   H70       1.0  0.71193  0.76747  0.32467  1.0000
  H   H71       1.0  0.57784  0.84817  0.25363  1.0000
  H   H72       1.0  0.22901000000000005  0.48646  0.24764999999999998  1.0000
  H   H73       1.0  0.11077  0.3788099999999999  0.21419  1.0000
  H   H74       1.0  0.13005  0.34374  0.10732  1.0000
  H   H75       1.0  0.26976  0.41882999999999987  0.03424  1.0000
  H   H76       1.0  0.37638  0.52867  0.067  1.0000
  H   H77       1.0  0.3746000000000001  0.73359  0.00169  1.0000
  H   H78       1.0  0.25595  0.7847799999999999  0.9099600000000001  1.0000
  H   H79       1.0  0.06868  0.8813  0.91764  1.0000
  H   H80       1.0  0.9847500000000001  0.922  0.01947  1.0000
  H   H81       1.0  0.09966  0.8701899999999999  0.11022  1.0000
  H   H82       1.0  0.31719  0.35377  0.53726  1.0000
  H   H83       1.0  0.32738  0.55651  0.44722  1.0000
  H   H84       1.0  0.13658  0.52879  0.3654  1.0000
  H   H85       1.0  0.11137  0.41119999999999995  0.32903  1.0000
  H   H86       1.0  0.27153  0.32062  0.37852  1.0000
  H   H87       1.0  0.45977  0.34821  0.46101  1.0000
  H   H88       1.0  0.83391  0.6223  0.53368  1.0000
  H   H89       1.0  0.93172  0.64539  0.63938  1.0000
  H   H90       1.0  0.83249  0.57336  0.7239000000000001  1.0000
  H   H91       1.0  0.40669  0.41296  0.7901  1.0000
  H   H92       1.0  0.3181  0.31512  0.84999  1.0000
  H   H93       1.0  0.35432  0.19872  0.81034  1.0000
  H   H94       1.0  0.47045000000000003  0.18294  0.70848  1.0000
  H   H95       1.0  0.55874  0.2814  0.64896  1.0000
  H   H96       1.0  0.8451100000000002  0.35597  0.81604  1.0000
  H   H97       1.0  0.7880700000000003  0.23253  0.8246700000000001  1.0000
  H   H98       1.0  0.9221700000000003  0.15182  0.7536300000000001  1.0000
  H   H99       1.0  0.27100000000000013  0.51354  0.74765  1.0000
  H   H100      1.0  0.38923  0.6211899999999999  0.71419  1.0000
  H   H101      1.0  0.36995  0.65626  0.60732  1.0000
  H   H102      1.0  0.23024000000000006  0.58116  0.53424  1.0000
  H   H103      1.0  0.12362000000000001  0.47133  0.56701  1.0000
  H   H104      1.0  0.1254  0.26639999999999997  0.50169  1.0000
  H   H105      1.0  0.24405  0.21522  0.40996  1.0000
  H   H106      1.0  0.4313200000000001  0.11869999999999999  0.41764000000000007  1.0000
  H   H107      1.0  0.51525  0.078  0.51947  1.0000
  H   H108      1.0  0.40034  0.12981  0.61022  1.0000
  C   C1        1.0  0.90202  0.04596  0.53918  1.0000
  C   C2        1.0  0.8089500000000002  0.9955399999999998  0.56712  1.0000
  C   C3        1.0  0.70418  0.011399999999999999  0.61385  1.0000
  C   C4        1.0  0.69019  0.0776  0.63425  1.0000
  C   C5        1.0  0.7797  0.12795  0.60632  1.0000
  C   C6        1.0  0.88381  0.11269999999999998  0.55904  1.0000
  C   C7        1.0  0.1104  0.97787  0.49656  1.0000
  C   C8        1.0  0.19097  0.9614599999999999  0.43818  1.0000
  C   C9        1.0  0.29531  0.90774  0.42857  1.0000
  C   C10       1.0  0.35016  0.8962499999999999  0.37018999999999996  1.0000
  C   C11       1.0  0.29885  0.9371099999999999  0.32286  1.0000
  C   C12       1.0  0.19691  0.9909499999999999  0.33607  1.0000
  C   C13       1.0  0.12943000000000005  0.04044  0.29176  1.0000
  C   C14       1.0  0.99571  0.14629  0.2839  1.0000
  C   C15       1.0  0.9239100000000001  0.13764999999999997  0.22719  1.0000
  C   C16       1.0  0.8734  0.19294  0.19374  1.0000
  C   C17       1.0  0.89225  0.25824  0.21582000000000004  1.0000
  C   C18       1.0  0.95879  0.26724  0.27271  1.0000
  C   C19       1.0  0.00893  0.21213  0.30653  1.0000
  C   C20       1.0  0.689  0.01664  0.34024  1.0000
  C   C21       1.0  0.7634  0.9731099999999999  0.29876  1.0000
  C   C22       1.0  0.82818  0.9120999999999999  0.31765  1.0000
  C   C23       1.0  0.8168700000000002  0.8919699999999999  0.37759  1.0000
  C   C24       1.0  0.74089  0.9342699999999999  0.41868  1.0000
  C   C25       1.0  0.6797100000000001  0.99627  0.40049  1.0000
  C   C26       1.0  0.55055  0.08765999999999999  0.27127  1.0000
  C   C27       1.0  0.49666  0.15863999999999998  0.26062  1.0000
  C   C28       1.0  0.39724  0.18125999999999998  0.21443  1.0000
  C   C29       1.0  0.36729  0.25027  0.21008  1.0000
  C   C30       1.0  0.44053  0.29536  0.24968  1.0000
  C   C31       1.0  0.53737  0.26903999999999995  0.29499  1.0000
  C   C32       1.0  0.62736  0.30875  0.34116  1.0000
  C   C33       1.0  0.7531100000000001  0.2993799999999999  0.43754000000000004  1.0000
  C   C34       1.0  0.7124600000000001  0.27480999999999994  0.49479  1.0000
  C   C35       1.0  0.77788  0.30392  0.54612  1.0000
  C   C36       1.0  0.88472  0.35793  0.54196  1.0000
  C   C37       1.0  0.9290900000000002  0.38135  0.48531  1.0000
  C   C38       1.0  0.86455  0.35238  0.43364  1.0000
  C   C39       1.0  0.59798  0.9540399999999999  0.03918  1.0000
  C   C40       1.0  0.69106  0.00445  0.06712  1.0000
  C   C41       1.0  0.79583  0.98859  0.11384  1.0000
  C   C42       1.0  0.80981  0.9223999999999999  0.13425  1.0000
  C   C43       1.0  0.72031  0.87205  0.10631999999999998  1.0000
  C   C44       1.0  0.61619  0.8873  0.05904  1.0000
  C   C45       1.0  0.3896  0.02213  0.99656  1.0000
  C   C46       1.0  0.30903  0.03853999999999999  0.9381800000000001  1.0000
  C   C47       1.0  0.20469  0.09225999999999998  0.9285700000000001  1.0000
  C   C48       1.0  0.14984000000000006  0.10374  0.8701900000000001  1.0000
  C   C49       1.0  0.20115  0.06289  0.82286  1.0000
  C   C50       1.0  0.30309  0.00905  0.83607  1.0000
  C   C51       1.0  0.37057  0.9595599999999997  0.79176  1.0000
  C   C52       1.0  0.5043  0.8537  0.7839  1.0000
  C   C53       1.0  0.57609  0.86234  0.72719  1.0000
  C   C54       1.0  0.6266100000000001  0.80705  0.69374  1.0000
  C   C55       1.0  0.60775  0.74175  0.71583  1.0000
  C   C56       1.0  0.54122  0.73276  0.7727099999999999  1.0000
  C   C57       1.0  0.49108000000000007  0.78787  0.80653  1.0000
  C   C58       1.0  0.81101  0.98335  0.8402400000000001  1.0000
  C   C59       1.0  0.73661  0.026889999999999997  0.79876  1.0000
  C   C60       1.0  0.6718300000000003  0.08789999999999999  0.81765  1.0000
  C   C61       1.0  0.68314  0.10802  0.8775900000000001  1.0000
  C   C62       1.0  0.75911  0.06572  0.91868  1.0000
  C   C63       1.0  0.82029  0.003729999999999999  0.90049  1.0000
  C   C64       1.0  0.9494600000000002  0.9123399999999999  0.7712700000000001  1.0000
  C   C65       1.0  0.00334  0.84136  0.76062  1.0000
  C   C66       1.0  0.10276  0.8187399999999999  0.71443  1.0000
  C   C67       1.0  0.13271  0.74973  0.71008  1.0000
  C   C68       1.0  0.05947000000000001  0.7046399999999999  0.74968  1.0000
  C   C69       1.0  0.96264  0.7309599999999999  0.79499  1.0000
  C   C70       1.0  0.8726500000000001  0.69125  0.84116  1.0000
  C   C71       1.0  0.7469  0.70062  0.93754  1.0000
  C   C72       1.0  0.78754  0.72518  0.99479  1.0000
  C   C73       1.0  0.72213  0.69608  0.04612  1.0000
  C   C74       1.0  0.61529  0.64207  0.04196  1.0000
  C   C75       1.0  0.57092  0.61865  0.98531  1.0000
  C   C76       1.0  0.6354500000000002  0.64761  0.93365  1.0000
  C   C77       1.0  0.09555000000000002  0.54594  0.96098  1.0000
  C   C78       1.0  0.18804  0.49527  0.9330000000000002  1.0000
  C   C79       1.0  0.29354  0.51098  0.88646  1.0000
  C   C80       1.0  0.3086200000000001  0.5772199999999998  0.86624  1.0000
  C   C81       1.0  0.21946000000000004  0.62776  0.8941299999999999  1.0000
  C   C82       1.0  0.11473000000000001  0.6126399999999999  0.94123  1.0000
  C   C83       1.0  0.8851100000000002  0.47899  0.0035099999999999997  1.0000
  C   C84       1.0  0.8062100000000001  0.46204999999999996  0.06207  1.0000
  C   C85       1.0  0.70215  0.40829999999999994  0.07173  1.0000
  C   C86       1.0  0.6500100000000002  0.39611  0.13038  1.0000
  C   C87       1.0  0.70327  0.43639999999999995  0.1778  1.0000
  C   C88       1.0  0.80429  0.49043999999999993  0.16443  1.0000
  C   C89       1.0  0.8735  0.53952  0.20865  1.0000
  C   C90       1.0  0.00471  0.64592  0.21632  1.0000
  C   C91       1.0  0.07661  0.63744  0.27302  1.0000
  C   C92       1.0  0.12658  0.69284  0.30638  1.0000
  C   C93       1.0  0.10715000000000002  0.75808  0.28421  1.0000
  C   C94       1.0  0.04044999999999999  0.76688  0.22733  1.0000
  C   C95       1.0  0.99069  0.7117  0.19359  1.0000
  C   C96       1.0  0.30956  0.51571  0.15949  1.0000
  C   C97       1.0  0.23548  0.47207  0.20088  1.0000
  C   C98       1.0  0.1706  0.41118  0.18186  1.0000
  C   C99       1.0  0.18172  0.39121  0.12188  1.0000
  C   C100      1.0  0.25803  0.43349999999999994  0.08092  1.0000
  C   C101      1.0  0.3192  0.49542  0.09924  1.0000
  C   C102      1.0  0.4481900000000001  0.58659  0.22841  1.0000
  C   C103      1.0  0.50168  0.65762  0.23914  1.0000
  C   C104      1.0  0.60152  0.67994  0.28525  1.0000
  C   C105      1.0  0.63203  0.74885  0.28981  1.0000
  C   C106      1.0  0.55885  0.79421  0.25041  1.0000
  C   C107      1.0  0.46145  0.76825  0.20512  1.0000
  C   C108      1.0  0.3723  0.8084  0.15894  1.0000
  C   C109      1.0  0.24715  0.79907  0.06247  1.0000
  C   C110      1.0  0.28793  0.77449  0.00523  1.0000
  C   C111      1.0  0.22266  0.80374  0.9539100000000001  1.0000
  C   C112      1.0  0.11584000000000003  0.8578399999999999  0.95815  1.0000
  C   C113      1.0  0.07101000000000003  0.88113  0.01481  1.0000
  C   C114      1.0  0.13552  0.8520499999999998  0.06642  1.0000
  C   C115      1.0  0.40445  0.45404999999999995  0.46097  1.0000
  C   C116      1.0  0.31197000000000014  0.50473  0.433  1.0000
  C   C117      1.0  0.20646  0.48900999999999994  0.38646  1.0000
  C   C118      1.0  0.19138  0.42278  0.36624  1.0000
  C   C119      1.0  0.28054  0.37222999999999995  0.39413  1.0000
  C   C120      1.0  0.38527  0.38736  0.44123000000000007  1.0000
  C   C121      1.0  0.6149  0.521  0.50351  1.0000
  C   C122      1.0  0.69379  0.5379499999999999  0.56207  1.0000
  C   C123      1.0  0.79785  0.5917  0.57174  1.0000
  C   C124      1.0  0.85  0.60389  0.63038  1.0000
  C   C125      1.0  0.79674  0.5636  0.6778  1.0000
  C   C126      1.0  0.69572  0.50956  0.66443  1.0000
  C   C127      1.0  0.62651  0.46048  0.70865  1.0000
  C   C128      1.0  0.49529000000000006  0.35408  0.71632  1.0000
  C   C129      1.0  0.42339  0.36256  0.77302  1.0000
  C   C130      1.0  0.37343  0.30716  0.80638  1.0000
  C   C131      1.0  0.39285  0.24192  0.78421  1.0000
  C   C132      1.0  0.4595500000000001  0.23311999999999994  0.72733  1.0000
  C   C133      1.0  0.50932  0.2883  0.6936  1.0000
  C   C134      1.0  0.19044  0.48429  0.65949  1.0000
  C   C135      1.0  0.26453  0.52793  0.70088  1.0000
  C   C136      1.0  0.32940000000000014  0.58882  0.68186  1.0000
  C   C137      1.0  0.31828  0.60879  0.62188  1.0000
  C   C138      1.0  0.24198  0.56649  0.58092  1.0000
  C   C139      1.0  0.1808  0.50458  0.59924  1.0000
  C   C140      1.0  0.05181000000000001  0.41341  0.72841  1.0000
  C   C141      1.0  0.9983300000000002  0.34237999999999996  0.73914  1.0000
  C   C142      1.0  0.8984900000000002  0.32006  0.78526  1.0000
  C   C143      1.0  0.86797  0.25115  0.78981  1.0000
  C   C144      1.0  0.94116  0.20577999999999996  0.75041  1.0000
  C   C145      1.0  0.03855  0.23175  0.70512  1.0000
  C   C146      1.0  0.1277  0.19159  0.65894  1.0000
  C   C147      1.0  0.25285  0.20092  0.56247  1.0000
  C   C148      1.0  0.21207  0.22551  0.50523  1.0000
  C   C149      1.0  0.27734  0.19625999999999996  0.45391000000000004  1.0000
  C   C150      1.0  0.3841600000000001  0.14216  0.45815000000000006  1.0000
  C   C151      1.0  0.42899  0.11885999999999998  0.51481  1.0000
  C   C152      1.0  0.36448  0.14794  0.56643  1.0000
  N   N1        1.0  0.008170000000000004  0.030719999999999997  0.49179999999999996  1.0000
  N   N2        1.0  0.14941  0.0014  0.39258  1.0000
  N   N3        1.0  0.05409000000000001  0.09269999999999999  0.31895  1.0000
  N   N4        1.0  0.62778  0.08018  0.32447  1.0000
  N   N5        1.0  0.5577900000000002  0.20268999999999998  0.29959  1.0000
  N   N6        1.0  0.67845  0.27009  0.38724  1.0000
  N   N7        1.0  0.49183  0.96928  0.9918000000000001  1.0000
  N   N8        1.0  0.35059  0.9985899999999999  0.89258  1.0000
  N   N9        1.0  0.44592  0.9072999999999999  0.8189500000000001  1.0000
  N   N10       1.0  0.87222  0.91981  0.8244800000000001  1.0000
  N   N11       1.0  0.94222  0.7972999999999999  0.7996  1.0000
  N   N12       1.0  0.82155  0.72991  0.88724  1.0000
  N   N13       1.0  0.98925  0.53113  0.00841  1.0000
  N   N14       1.0  0.84958  0.50144  0.10777999999999999  1.0000
  N   N15       1.0  0.9465  0.59226  0.18141  1.0000
  N   N16       1.0  0.37008  0.57929  0.17539  1.0000
  N   N17       1.0  0.44031  0.70191  0.20037  1.0000
  N   N18       1.0  0.3211300000000001  0.76973  0.11288  1.0000
  N   N19       1.0  0.5107600000000002  0.46887  0.50841  1.0000
  N   N20       1.0  0.65043  0.49854999999999994  0.60778  1.0000
  N   N21       1.0  0.5535100000000002  0.40773999999999994  0.68141  1.0000
  N   N22       1.0  0.12992  0.4207099999999999  0.67539  1.0000
  N   N23       1.0  0.05969  0.29809  0.70038  1.0000
  N   N24       1.0  0.17887  0.23025999999999996  0.61288  1.0000
  O   O1        1.0  0.85004  0.14474  0.42163  1.0000
  O   O2        1.0  0.14202000000000006  0.9429  0.54209  1.0000
  O   O3        1.0  0.1491  0.03029  0.23672000000000004  1.0000
  O   O4        1.0  0.52268  0.04377999999999999  0.23246  1.0000
  O   O5        1.0  0.6436100000000001  0.37077  0.33327  1.0000
  O   O6        1.0  0.64997  0.8552499999999998  0.9216300000000001  1.0000
  O   O7        1.0  0.35799  0.05709999999999999  0.04209  1.0000
  O   O8        1.0  0.35091  0.9697099999999998  0.73672  1.0000
  O   O9        1.0  0.97732  0.9562199999999998  0.73246  1.0000
  O   O10       1.0  0.85639  0.62923  0.83327  1.0000
  O   O11       1.0  0.14492  0.64599  0.07846  1.0000
  O   O12       1.0  0.85096  0.44478999999999996  0.95782  1.0000
  O   O13       1.0  0.85734  0.5286  0.26371  1.0000
  O   O14       1.0  0.4773000000000001  0.5424299999999999  0.26692  1.0000
  O   O15       1.0  0.35691  0.8705199999999998  0.16674  1.0000
  O   O16       1.0  0.35509  0.354  0.57846  1.0000
  O   O17       1.0  0.64905  0.5551999999999999  0.45782000000000006  1.0000
  O   O18       1.0  0.64267  0.47139  0.76371  1.0000
  O   O19       1.0  0.0227  0.45757  0.76692  1.0000
  O   O20       1.0  0.14309  0.12948  0.66674  1.0000
