data_image0
_chemical_formula_structural       Cu16H112C176I8N32O32
_chemical_formula_sum              "Cu16 H112 C176 I8 N32 O32"
_cell_length_a       15.35248
_cell_length_b       25.48266
_cell_length_c       25.47294
_cell_angle_alpha    84.82284
_cell_angle_beta     72.48762
_cell_angle_gamma    72.5096

_symmetry_space_group_name_H-M    'P 1'
_symmetry_Int_Tables_number       1

loop_
  _symmetry_equiv_pos_as_xyz
  'x,y,z'

loop_
  _atom_site_type_symbol
  _atom_site_label
  _atom_site_symmetry_multiplicity
  _atom_site_fract_x
  _atom_site_fract_y
  _atom_site_fract_z
  _atom_site_occupancy
  Cu  Cu1       1.0  0.56044  0.52417  0.002629999999999999  1.0000
  Cu  Cu2       1.0  0.03376000000000002  0.9677499999999999  0.03468  1.0000
  Cu  Cu3       1.0  0.08735000000000001  0.9760899999999999  0.49741  1.0000
  Cu  Cu4       1.0  0.035290000000000016  0.53222  0.46519  1.0000
  Cu  Cu5       1.0  0.5847299999999996  0.0026199999999999995  0.97604  1.0000
  Cu  Cu6       1.0  0.50185  0.03474  0.53199  1.0000
  Cu  Cu7       1.0  0.5635199999999999  0.49751  0.52393  1.0000
  Cu  Cu8       1.0  0.0677  0.46521  0.96788  1.0000
  Cu  Cu9       1.0  0.4395600000000001  0.4758299999999999  0.99737  1.0000
  Cu  Cu10      1.0  0.9662400000000001  0.03225  0.9653199999999998  1.0000
  Cu  Cu11      1.0  0.9126599999999997  0.023909999999999997  0.5025899999999999  1.0000
  Cu  Cu12      1.0  0.9647099999999997  0.46777999999999986  0.53481  1.0000
  Cu  Cu13      1.0  0.41528000000000004  0.99738  0.023959999999999995  1.0000
  Cu  Cu14      1.0  0.4981599999999998  0.96525  0.46801  1.0000
  Cu  Cu15      1.0  0.43647999999999976  0.5024899999999999  0.47606  1.0000
  Cu  Cu16      1.0  0.9323  0.53479  0.03212  1.0000
  H   H1        1.0  0.3837  0.6901699999999998  0.03238  1.0000
  H   H2        1.0  0.25489  0.77861  0.058299999999999984  1.0000
  H   H3        1.0  0.04914000000000002  0.69969  0.04735999999999999  1.0000
  H   H4        1.0  0.17878  0.61181  0.0206  1.0000
  H   H5        1.0  0.13978000000000004  0.8492  0.014259999999999997  1.0000
  H   H6        1.0  0.8761700000000001  0.9317499999999997  0.11676  1.0000
  H   H7        1.0  0.9666399999999999  0.76155  0.13303  1.0000
  H   H8        1.0  0.6878599999999998  0.55215  0.8286799999999998  1.0000
  H   H9        1.0  0.7490900000000003  0.54877  0.7260599999999999  1.0000
  H   H10       1.0  0.5518600000000001  0.46020999999999995  0.72218  1.0000
  H   H11       1.0  0.48915000000000014  0.4661399999999999  0.8246199999999998  1.0000
  H   H12       1.0  0.8407599999999998  0.4908  0.64917  1.0000
  H   H13       1.0  0.7859399999999999  0.48019999999999996  0.50117  1.0000
  H   H14       1.0  0.55458  0.51024  0.64153  1.0000
  H   H15       1.0  0.10626000000000003  0.8097899999999999  0.46763  1.0000
  H   H16       1.0  0.0917600000000001  0.7213799999999999  0.4416199999999999  1.0000
  H   H17       1.0  0.79634  0.8002  0.45243  1.0000
  H   H18       1.0  0.8113399999999998  0.888  0.47931999999999997  1.0000
  H   H19       1.0  0.0033499999999999485  0.6505  0.48541  1.0000
  H   H20       1.0  0.9242599999999995  0.56823  0.3827399999999999  1.0000
  H   H21       1.0  0.8614399999999995  0.73841  0.36674  1.0000
  H   H22       1.0  0.06775000000000005  0.9488699999999999  0.6709799999999999  1.0000
  H   H23       1.0  0.023469999999999984  0.95141  0.77363  1.0000
  H   H24       1.0  0.7336299999999999  0.03982  0.7781  1.0000
  H   H25       1.0  0.77883  0.034589999999999996  0.67562  1.0000
  H   H26       1.0  0.9800999999999997  0.00936  0.8508599999999998  1.0000
  H   H27       1.0  0.7664700000000001  0.02013  0.99875  1.0000
  H   H28       1.0  0.70595  0.9896899999999998  0.85832  1.0000
  H   H29       1.0  0.57413  0.03253  0.80953  1.0000
  H   H30       1.0  0.5333499999999995  0.058309999999999994  0.72119  1.0000
  H   H31       1.0  0.24884999999999985  0.04737  0.8004799999999999  1.0000
  H   H32       1.0  0.29104  0.02073  0.8882299999999999  1.0000
  H   H33       1.0  0.4889299999999998  0.01441  0.65057  1.0000
  H   H34       1.0  0.30793999999999977  0.11691  0.56801  1.0000
  H   H35       1.0  0.22828  0.1331  0.7383  1.0000
  H   H36       1.0  0.7388999999999999  0.8289799999999998  0.9480899999999998  1.0000
  H   H37       1.0  0.7973300000000004  0.72645  0.9514099999999998  1.0000
  H   H38       1.0  0.5119800000000001  0.7219799999999997  0.04002  1.0000
  H   H39       1.0  0.4546099999999999  0.8243299999999999  0.03415  1.0000
  H   H40       1.0  0.8313599999999995  0.64931  0.00908  1.0000
  H   H41       1.0  0.7654300000000002  0.50143  0.02005  1.0000
  H   H42       1.0  0.5645000000000001  0.6417  0.98979  1.0000
  H   H43       1.0  0.4166899999999999  0.4676  0.69057  1.0000
  H   H44       1.0  0.3133400000000001  0.4416099999999999  0.7788499999999999  1.0000
  H   H45       1.0  0.09737000000000007  0.45268  0.69935  1.0000
  H   H46       1.0  0.20068999999999992  0.47952  0.61169  1.0000
  H   H47       1.0  0.15401  0.4855799999999999  0.84936  1.0000
  H   H48       1.0  0.9926299999999999  0.38303  0.9316  1.0000
  H   H49       1.0  0.10001000000000006  0.36688999999999994  0.76132  1.0000
  H   H50       1.0  0.5163399999999999  0.67101  0.5510699999999998  1.0000
  H   H51       1.0  0.47495  0.7736199999999998  0.54858  1.0000
  H   H52       1.0  0.2732299999999998  0.7782399999999999  0.4602  1.0000
  H   H53       1.0  0.3128099999999999  0.67587  0.46538  1.0000
  H   H54       1.0  0.4892600000000002  0.8509699999999999  0.49076  1.0000
  H   H55       1.0  0.2863899999999999  0.9987799999999999  0.4801299999999999  1.0000
  H   H56       1.0  0.19551000000000004  0.8583699999999999  0.51031  1.0000
  H   H57       1.0  0.6163099999999997  0.30983  0.96762  1.0000
  H   H58       1.0  0.74511  0.22139  0.9416999999999998  1.0000
  H   H59       1.0  0.9508599999999999  0.30030999999999997  0.95264  1.0000
  H   H60       1.0  0.8212299999999996  0.38818  0.9793899999999999  1.0000
  H   H61       1.0  0.86022  0.1508  0.98574  1.0000
  H   H62       1.0  0.1238300000000001  0.06825  0.8832399999999998  1.0000
  H   H63       1.0  0.03337000000000003  0.23845  0.86697  1.0000
  H   H64       1.0  0.31215  0.44785  0.17132  1.0000
  H   H65       1.0  0.2509199999999998  0.4512299999999999  0.27394  1.0000
  H   H66       1.0  0.44813999999999976  0.53979  0.27782  1.0000
  H   H67       1.0  0.5108599999999998  0.53386  0.17538  1.0000
  H   H68       1.0  0.15925000000000006  0.5092  0.35083  1.0000
  H   H69       1.0  0.21406000000000006  0.5198  0.49882999999999994  1.0000
  H   H70       1.0  0.4454199999999999  0.48975999999999986  0.35847  1.0000
  H   H71       1.0  0.8937499999999996  0.19021  0.53237  1.0000
  H   H72       1.0  0.90824  0.27862  0.55838  1.0000
  H   H73       1.0  0.20366999999999993  0.19979999999999998  0.54757  1.0000
  H   H74       1.0  0.18866000000000005  0.11199999999999999  0.5206799999999999  1.0000
  H   H75       1.0  0.9966499999999999  0.3495  0.51459  1.0000
  H   H76       1.0  0.07574000000000011  0.4317699999999999  0.61726  1.0000
  H   H77       1.0  0.13857  0.26159  0.63326  1.0000
  H   H78       1.0  0.93225  0.051129999999999995  0.32902  1.0000
  H   H79       1.0  0.9765299999999997  0.048589999999999994  0.22636999999999996  1.0000
  H   H80       1.0  0.26637000000000005  0.9601799999999999  0.22189999999999996  1.0000
  H   H81       1.0  0.22118000000000013  0.9653999999999998  0.32438  1.0000
  H   H82       1.0  0.019910000000000073  0.99064  0.14914  1.0000
  H   H83       1.0  0.23353000000000002  0.97987  0.00124  1.0000
  H   H84       1.0  0.29406  0.01031  0.14168  1.0000
  H   H85       1.0  0.4258799999999999  0.96747  0.19047  1.0000
  H   H86       1.0  0.46664999999999973  0.9416899999999999  0.2788  1.0000
  H   H87       1.0  0.7511600000000002  0.9526299999999998  0.19952  1.0000
  H   H88       1.0  0.70896  0.9792699999999999  0.11177  1.0000
  H   H89       1.0  0.51107  0.98559  0.34943  1.0000
  H   H90       1.0  0.6920700000000001  0.8830899999999998  0.43198999999999993  1.0000
  H   H91       1.0  0.7717299999999999  0.8669  0.2617  1.0000
  H   H92       1.0  0.2610999999999999  0.17102  0.05189999999999999  1.0000
  H   H93       1.0  0.20266999999999996  0.27355  0.04859  1.0000
  H   H94       1.0  0.48802  0.27802  0.95998  1.0000
  H   H95       1.0  0.5454  0.17567  0.96585  1.0000
  H   H96       1.0  0.16864000000000012  0.3506899999999999  0.99092  1.0000
  H   H97       1.0  0.2345800000000001  0.49856999999999996  0.9799499999999998  1.0000
  H   H98       1.0  0.4355099999999998  0.3583  0.01021  1.0000
  H   H99       1.0  0.5833099999999999  0.5324  0.30943  1.0000
  H   H100      1.0  0.6866699999999999  0.55839  0.22114999999999999  1.0000
  H   H101      1.0  0.9026399999999997  0.54732  0.30065  1.0000
  H   H102      1.0  0.79932  0.52048  0.38831  1.0000
  H   H103      1.0  0.846  0.51442  0.15062999999999996  1.0000
  H   H104      1.0  0.007380000000000001  0.6169699999999999  0.0684  1.0000
  H   H105      1.0  0.8999999999999995  0.63311  0.23868  1.0000
  H   H106      1.0  0.48365999999999965  0.32899  0.44893  1.0000
  H   H107      1.0  0.5250599999999999  0.22637999999999997  0.45141999999999993  1.0000
  H   H108      1.0  0.7267799999999996  0.22175999999999996  0.5398  1.0000
  H   H109      1.0  0.6871899999999999  0.32413  0.53462  1.0000
  H   H110      1.0  0.5107399999999997  0.14903  0.50924  1.0000
  H   H111      1.0  0.71361  0.00122  0.51987  1.0000
  H   H112      1.0  0.8044899999999996  0.14163  0.48969  1.0000
  C   C1        1.0  0.36626  0.5922  0.012739999999999998  1.0000
  C   C2        1.0  0.2889999999999999  0.64552  0.025719999999999996  1.0000
  C   C3        1.0  0.31027000000000005  0.6929  0.03556  1.0000
  C   C4        1.0  0.23826999999999998  0.74217  0.04985  1.0000
  C   C5        1.0  0.14310999999999988  0.7447799999999999  0.05515999999999999  1.0000
  C   C6        1.0  0.12228999999999998  0.69738  0.044669999999999994  1.0000
  C   C7        1.0  0.19455999999999982  0.64826  0.029739999999999992  1.0000
  C   C8        1.0  0.06674000000000006  0.7966699999999999  0.07175  1.0000
  C   C9        1.0  0.07714999999999984  0.84691  0.04788  1.0000
  C   C10       1.0  0.9298000000000001  0.89239  0.10429  1.0000
  C   C11       1.0  0.9803599999999997  0.7990199999999998  0.11258999999999998  1.0000
  C   C12       1.0  0.55017  0.50945  0.8942  1.0000
  C   C13       1.0  0.58491  0.50938  0.83258  1.0000
  C   C14       1.0  0.65854  0.5324499999999999  0.8047499999999999  1.0000
  C   C15       1.0  0.6931000000000002  0.52996  0.7475  1.0000
  C   C16       1.0  0.6547999999999999  0.50413  0.71708  1.0000
  C   C17       1.0  0.58051  0.48134999999999994  0.7452699999999999  1.0000
  C   C18       1.0  0.5458  0.4840699999999999  0.80237  1.0000
  C   C19       1.0  0.6916199999999996  0.49986  0.65666  1.0000
  C   C20       1.0  0.7880399999999999  0.4921  0.6280599999999998  1.0000
  C   C21       1.0  0.75844  0.4865999999999999  0.54556  1.0000
  C   C22       1.0  0.6313800000000002  0.5022699999999999  0.6241  1.0000
  C   C23       1.0  0.9711300000000002  0.90771  0.48741  1.0000
  C   C24       1.0  0.9602799999999999  0.85436  0.47436  1.0000
  C   C25       1.0  0.03873000000000001  0.80701  0.46448  1.0000
  C   C26       1.0  0.030249999999999982  0.75775  0.45012  1.0000
  C   C27       1.0  0.94309  0.75507  0.44475  1.0000
  C   C28       1.0  0.8644599999999995  0.80245  0.45523  1.0000
  C   C29       1.0  0.8726799999999997  0.85157  0.4702399999999999  1.0000
  C   C30       1.0  0.93519  0.70318  0.42804  1.0000
  C   C31       1.0  0.9719299999999998  0.65288  0.45181  1.0000
  C   C32       1.0  0.9262499999999999  0.60754  0.39527  1.0000
  C   C33       1.0  0.8920300000000002  0.7008899999999998  0.38715  1.0000
  C   C34       1.0  0.9521399999999997  0.99158  0.60578  1.0000
  C   C35       1.0  0.9257500000000001  0.99147  0.6674099999999998  1.0000
  C   C36       1.0  0.99487  0.9683  0.69506  1.0000
  C   C37       1.0  0.9699500000000001  0.9703599999999998  0.75233  1.0000
  C   C38       1.0  0.8754799999999997  0.99596  0.7829  1.0000
  C   C39       1.0  0.8064299999999999  0.01886  0.7548699999999999  1.0000
  C   C40       1.0  0.8312599999999999  0.016519999999999996  0.69777  1.0000
  C   C41       1.0  0.8476899999999999  0.0001  0.84331  1.0000
  C   C42       1.0  0.9076500000000001  0.007979999999999996  0.8719499999999999  1.0000
  C   C43       1.0  0.78993  0.01365  0.9543699999999998  1.0000
  C   C44       1.0  0.7573000000000001  0.9977099999999999  0.8757899999999998  1.0000
  C   C45       1.0  0.45909000000000005  0.01271  0.9076499999999998  1.0000
  C   C46       1.0  0.43494999999999995  0.02575  0.85435  1.0000
  C   C47       1.0  0.5033999999999995  0.03563  0.80689  1.0000
  C   C48       1.0  0.4804099999999999  0.04988  0.75767  1.0000
  C   C49       1.0  0.38783999999999985  0.05515  0.7551199999999999  1.0000
  C   C50       1.0  0.31979  0.04469999999999998  0.8026099999999999  1.0000
  C   C51       1.0  0.34318  0.029799999999999993  0.8517  1.0000
  C   C52       1.0  0.36330999999999986  0.07176  0.70319  1.0000
  C   C53       1.0  0.42397999999999997  0.04797  0.6529  1.0000
  C   C54       1.0  0.32223  0.10440999999999999  0.60738  1.0000
  C   C55       1.0  0.2794099999999999  0.11264  0.7008099999999999  1.0000
  C   C56       1.0  0.5580800000000001  0.8942199999999998  0.9912699999999999  1.0000
  C   C57       1.0  0.59328  0.8326  0.99096  1.0000
  C   C58       1.0  0.69005  0.80498  0.9677899999999999  1.0000
  C   C59       1.0  0.7224599999999997  0.74776  0.9701799999999999  1.0000
  C   C60       1.0  0.6586100000000003  0.71717  0.9959599999999997  1.0000
  C   C61       1.0  0.56153  0.7451699999999999  0.01881  1.0000
  C   C62       1.0  0.5291999999999999  0.8022199999999999  0.01618  1.0000
  C   C63       1.0  0.69123  0.6567899999999999  0.00016  1.0000
  C   C64       1.0  0.7799  0.62819  0.00789  1.0000
  C   C65       1.0  0.7445  0.54579  0.01364  1.0000
  C   C66       1.0  0.6332599999999999  0.6242799999999998  0.99785  1.0000
  C   C67       1.0  0.38011000000000017  0.48738  0.5924299999999999  1.0000
  C   C68       1.0  0.3156799999999999  0.47435  0.64569  1.0000
  C   C69       1.0  0.34648  0.46441999999999994  0.69316  1.0000
  C   C70       1.0  0.28850999999999993  0.45007  0.74233  1.0000
  C   C71       1.0  0.1987199999999999  0.44475999999999993  0.74478  1.0000
  C   C72       1.0  0.16776999999999997  0.45532  0.69725  1.0000
  C   C73       1.0  0.22534  0.47033  0.64823  1.0000
  C   C74       1.0  0.1386800000000002  0.4281399999999999  0.7966199999999999  1.0000
  C   C75       1.0  0.12503000000000009  0.4519599999999999  0.84696  1.0000
  C   C76       1.0  0.033939999999999984  0.39551  0.89228  1.0000
  C   C77       1.0  0.09312999999999999  0.38731  0.7988599999999999  1.0000
  C   C78       1.0  0.4437999999999998  0.60595  0.50841  1.0000
  C   C79       1.0  0.41685999999999995  0.66755  0.50852  1.0000
  C   C80       1.0  0.46286000000000005  0.69519  0.5317  1.0000
  C   C81       1.0  0.44015  0.75241  0.52967  1.0000
  C   C82       1.0  0.3712399999999998  0.78299  0.50409  1.0000
  C   C83       1.0  0.32499999999999996  0.75499  0.48119  1.0000
  C   C84       1.0  0.3473399999999999  0.69791  0.48349  1.0000
  C   C85       1.0  0.3476100000000001  0.8433699999999997  0.4999899999999999  1.0000
  C   C86       1.0  0.41541  0.8720099999999998  0.49217  1.0000
  C   C87       1.0  0.30334  0.9544099999999999  0.48655  1.0000
  C   C88       1.0  0.2548499999999998  0.87584  0.50236  1.0000
  C   C89       1.0  0.63375  0.40779999999999994  0.98726  1.0000
  C   C90       1.0  0.7110099999999997  0.3544799999999999  0.97428  1.0000
  C   C91       1.0  0.6897300000000001  0.3071  0.9644399999999999  1.0000
  C   C92       1.0  0.7617399999999995  0.25783  0.9501499999999999  1.0000
  C   C93       1.0  0.8568899999999999  0.25522  0.9448399999999998  1.0000
  C   C94       1.0  0.8777099999999997  0.30261  0.95533  1.0000
  C   C95       1.0  0.8054399999999999  0.35174  0.97026  1.0000
  C   C96       1.0  0.9332599999999996  0.20333  0.92825  1.0000
  C   C97       1.0  0.9228599999999997  0.15308999999999998  0.95212  1.0000
  C   C98       1.0  0.07020000000000007  0.10760999999999997  0.89571  1.0000
  C   C99       1.0  0.01964000000000004  0.20098  0.88741  1.0000
  C   C100      1.0  0.44982999999999995  0.49055  0.1058  1.0000
  C   C101      1.0  0.4151000000000001  0.49062  0.16742  1.0000
  C   C102      1.0  0.34146000000000004  0.46755  0.19525  1.0000
  C   C103      1.0  0.3069099999999998  0.47004  0.2525  1.0000
  C   C104      1.0  0.3452100000000001  0.49587  0.28292  1.0000
  C   C105      1.0  0.41949000000000003  0.5186499999999999  0.25473  1.0000
  C   C106      1.0  0.45421  0.51593  0.19762999999999994  1.0000
  C   C107      1.0  0.30838999999999994  0.50014  0.34334  1.0000
  C   C108      1.0  0.21196000000000007  0.5078999999999999  0.37194  1.0000
  C   C109      1.0  0.24156999999999998  0.5134  0.45444  1.0000
  C   C110      1.0  0.36863  0.49773  0.37589999999999996  1.0000
  C   C111      1.0  0.02886999999999999  0.09229  0.51259  1.0000
  C   C112      1.0  0.03971999999999998  0.14564  0.52564  1.0000
  C   C113      1.0  0.96128  0.19299  0.53552  1.0000
  C   C114      1.0  0.9697499999999997  0.24225  0.54988  1.0000
  C   C115      1.0  0.05692000000000001  0.24492999999999998  0.55525  1.0000
  C   C116      1.0  0.13554000000000002  0.19754999999999995  0.54477  1.0000
  C   C117      1.0  0.12733000000000003  0.14843  0.52976  1.0000
  C   C118      1.0  0.06480999999999999  0.29682  0.57196  1.0000
  C   C119      1.0  0.028079999999999987  0.34711  0.54819  1.0000
  C   C120      1.0  0.07376000000000005  0.39245999999999986  0.60473  1.0000
  C   C121      1.0  0.10798000000000003  0.2991  0.61285  1.0000
  C   C122      1.0  0.04785999999999999  0.008419999999999999  0.39422  1.0000
  C   C123      1.0  0.07424999999999998  0.008529999999999998  0.33259  1.0000
  C   C124      1.0  0.005139999999999985  0.0317  0.30494  1.0000
  C   C125      1.0  0.030050000000000028  0.02964  0.24766999999999995  1.0000
  C   C126      1.0  0.12451999999999998  0.004039999999999999  0.21709999999999993  1.0000
  C   C127      1.0  0.19357  0.9811399999999999  0.24512999999999996  1.0000
  C   C128      1.0  0.16875000000000015  0.9834799999999998  0.30223  1.0000
  C   C129      1.0  0.15230999999999995  0.9999  0.15669  1.0000
  C   C130      1.0  0.09235999999999993  0.99202  0.12805  1.0000
  C   C131      1.0  0.21007000000000015  0.9863499999999997  0.04563  1.0000
  C   C132      1.0  0.24270000000000003  0.00229  0.12420999999999997  1.0000
  C   C133      1.0  0.54091  0.9872899999999998  0.09235  1.0000
  C   C134      1.0  0.5650499999999998  0.9742499999999997  0.14565  1.0000
  C   C135      1.0  0.49659999999999993  0.9643699999999997  0.19310999999999998  1.0000
  C   C136      1.0  0.5196  0.95012  0.24232999999999996  1.0000
  C   C137      1.0  0.61216  0.94485  0.24487999999999993  1.0000
  C   C138      1.0  0.6802199999999999  0.9552999999999999  0.19739  1.0000
  C   C139      1.0  0.6568299999999997  0.9702  0.14829  1.0000
  C   C140      1.0  0.6366900000000001  0.92824  0.29681  1.0000
  C   C141      1.0  0.5760299999999999  0.95203  0.3471  1.0000
  C   C142      1.0  0.6777700000000002  0.8955899999999998  0.3926199999999999  1.0000
  C   C143      1.0  0.7205999999999997  0.8873599999999999  0.29918999999999996  1.0000
  C   C144      1.0  0.4419299999999999  0.10578  0.00873  1.0000
  C   C145      1.0  0.40671999999999997  0.16739999999999994  0.00904  1.0000
  C   C146      1.0  0.30995  0.19502  0.03221  1.0000
  C   C147      1.0  0.27754  0.25224  0.02982  1.0000
  C   C148      1.0  0.3413899999999998  0.28283  0.00404  1.0000
  C   C149      1.0  0.4384700000000002  0.25483  0.98119  1.0000
  C   C150      1.0  0.47081  0.19778  0.9838199999999999  1.0000
  C   C151      1.0  0.30877000000000004  0.34321  0.99984  1.0000
  C   C152      1.0  0.2201  0.3718099999999999  0.9921099999999999  1.0000
  C   C153      1.0  0.25550999999999996  0.45421  0.98636  1.0000
  C   C154      1.0  0.36675  0.37572  0.00215  1.0000
  C   C155      1.0  0.6198899999999997  0.51262  0.40757  1.0000
  C   C156      1.0  0.6843299999999999  0.52565  0.3543099999999999  1.0000
  C   C157      1.0  0.6535199999999995  0.53558  0.30683  1.0000
  C   C158      1.0  0.71149  0.54993  0.25767  1.0000
  C   C159      1.0  0.8012800000000002  0.55524  0.25522  1.0000
  C   C160      1.0  0.8322400000000002  0.54467  0.30275  1.0000
  C   C161      1.0  0.7746699999999995  0.52967  0.35177  1.0000
  C   C162      1.0  0.8613200000000001  0.57186  0.20338  1.0000
  C   C163      1.0  0.8749699999999997  0.54804  0.15304  1.0000
  C   C164      1.0  0.96606  0.6044899999999999  0.10772  1.0000
  C   C165      1.0  0.9068699999999997  0.6126899999999998  0.20114  1.0000
  C   C166      1.0  0.5562000000000001  0.39405  0.49159  1.0000
  C   C167      1.0  0.58315  0.33245  0.49148  1.0000
  C   C168      1.0  0.5371499999999999  0.30480999999999997  0.46829999999999994  1.0000
  C   C169      1.0  0.5598500000000001  0.24758999999999998  0.47033  1.0000
  C   C170      1.0  0.6287599999999998  0.21701  0.49591  1.0000
  C   C171      1.0  0.6749999999999999  0.24501  0.51881  1.0000
  C   C172      1.0  0.6526699999999999  0.30209  0.51651  1.0000
  C   C173      1.0  0.65239  0.15662999999999996  0.50001  1.0000
  C   C174      1.0  0.5845900000000002  0.12799  0.5078299999999999  1.0000
  C   C175      1.0  0.6966599999999997  0.04558999999999999  0.51345  1.0000
  C   C176      1.0  0.74515  0.12415999999999999  0.49764  1.0000
  I   I1        1.0  0.13103999999999996  0.95311  0.92767  1.0000
  I   I2        1.0  0.011709999999999996  0.54751  0.5721  1.0000
  I   I3        1.0  0.5839999999999996  0.9277999999999997  0.54724  1.0000
  I   I4        1.0  0.05918999999999998  0.57224  0.9526299999999999  1.0000
  I   I5        1.0  0.8689599999999996  0.046879999999999984  0.07233  1.0000
  I   I6        1.0  0.9882899999999997  0.4524899999999999  0.4279  1.0000
  I   I7        1.0  0.41600999999999977  0.0722  0.45276  1.0000
  I   I8        1.0  0.9408199999999999  0.42775999999999986  0.047369999999999995  1.0000
  N   N1        1.0  0.009409999999999967  0.895  0.06404  1.0000
  N   N2        1.0  0.9120499999999997  0.84664  0.129  1.0000
  N   N3        1.0  0.82177  0.4852699999999999  0.57293  1.0000
  N   N4        1.0  0.6648199999999995  0.49536  0.56926  1.0000
  N   N5        1.0  0.9682799999999997  0.60484  0.43553  1.0000
  N   N6        1.0  0.88757  0.65335  0.3706  1.0000
  N   N7        1.0  0.8793399999999998  0.01491  0.9270699999999998  1.0000
  N   N8        1.0  0.7288799999999999  0.00481  0.9306  1.0000
  N   N9        1.0  0.4044  0.06417  0.60476  1.0000
  N   N10       1.0  0.25876  0.12911  0.65316  1.0000
  N   N11       1.0  0.8067099999999998  0.57309  0.01481  1.0000
  N   N12       1.0  0.6595999999999995  0.5695  0.00494  1.0000
  N   N13       1.0  0.07330999999999999  0.43575  0.89501  1.0000
  N   N14       1.0  0.041049999999999975  0.37085999999999997  0.84643  1.0000
  N   N15       1.0  0.3939800000000001  0.9271099999999999  0.48527999999999993  1.0000
  N   N16       1.0  0.23349999999999996  0.93063  0.49532999999999994  1.0000
  N   N17       1.0  0.9905899999999999  0.105  0.93596  1.0000
  N   N18       1.0  0.08796000000000018  0.15336  0.8709999999999998  1.0000
  N   N19       1.0  0.17823999999999993  0.51473  0.42707  1.0000
  N   N20       1.0  0.3351800000000001  0.5046399999999999  0.43074  1.0000
  N   N21       1.0  0.03173000000000002  0.39516  0.56447  1.0000
  N   N22       1.0  0.11243000000000007  0.34665  0.6294  1.0000
  N   N23       1.0  0.12066999999999999  0.98509  0.07292999999999998  1.0000
  N   N24       1.0  0.27111999999999986  0.9951899999999999  0.06939  1.0000
  N   N25       1.0  0.5956  0.9358299999999998  0.3952399999999999  1.0000
  N   N26       1.0  0.74125  0.87089  0.34684  1.0000
  N   N27       1.0  0.1933000000000001  0.42691  0.9851899999999998  1.0000
  N   N28       1.0  0.3404  0.4305  0.9950599999999998  1.0000
  N   N29       1.0  0.9266999999999995  0.56425  0.10499  1.0000
  N   N30       1.0  0.9589600000000003  0.6291399999999999  0.15357  1.0000
  N   N31       1.0  0.6060199999999998  0.07289  0.51472  1.0000
  N   N32       1.0  0.7664999999999996  0.06937  0.50467  1.0000
  O   O1        1.0  0.45021999999999995  0.5928399999999999  0.01071  1.0000
  O   O2        1.0  0.3425500000000001  0.5500199999999998  0.00571  1.0000
  O   O3        1.0  0.5902499999999999  0.53098  0.92011  1.0000
  O   O4        1.0  0.4839499999999996  0.48672  0.91577  1.0000
  O   O5        1.0  0.05362000000000004  0.9072499999999999  0.48942  1.0000
  O   O6        1.0  0.8981399999999999  0.9497499999999998  0.49447999999999986  1.0000
  O   O7        1.0  0.03986000000000008  0.97091  0.57983  1.0000
  O   O8        1.0  0.8842999999999996  0.013359999999999997  0.5843199999999998  1.0000
  O   O9        1.0  0.5436299999999997  0.01074  0.9071  1.0000
  O   O10       1.0  0.39332000000000006  0.005499999999999999  0.94975  1.0000
  O   O11       1.0  0.6198300000000002  0.9201799999999998  0.97067  1.0000
  O   O12       1.0  0.46886999999999995  0.91564  0.01331  1.0000
  O   O13       1.0  0.4620999999999996  0.48945999999999995  0.59296  1.0000
  O   O14       1.0  0.34928999999999966  0.49435  0.55029  1.0000
  O   O15       1.0  0.5109500000000001  0.5802  0.52909  1.0000
  O   O16       1.0  0.39802000000000004  0.5843  0.48663  1.0000
  O   O17       1.0  0.5497799999999997  0.40715999999999997  0.98929  1.0000
  O   O18       1.0  0.6574600000000002  0.4499699999999999  0.9942899999999998  1.0000
  O   O19       1.0  0.4097499999999999  0.4690199999999999  0.07988  1.0000
  O   O20       1.0  0.5160499999999999  0.5132799999999998  0.08423  1.0000
  O   O21       1.0  0.9463799999999997  0.09274  0.51058  1.0000
  O   O22       1.0  0.10187  0.05025  0.50552  1.0000
  O   O23       1.0  0.96014  0.029089999999999998  0.42017  1.0000
  O   O24       1.0  0.1157  0.98664  0.41568  1.0000
  O   O25       1.0  0.45637999999999984  0.98926  0.0929  1.0000
  O   O26       1.0  0.60668  0.9945  0.05025  1.0000
  O   O27       1.0  0.3801699999999999  0.07982  0.02932999999999999  1.0000
  O   O28       1.0  0.5311399999999996  0.08435999999999998  0.98669  1.0000
  O   O29       1.0  0.5379  0.51054  0.40703  1.0000
  O   O30       1.0  0.65071  0.50565  0.44971  1.0000
  O   O31       1.0  0.48904999999999993  0.4198  0.47091  1.0000
  O   O32       1.0  0.6019900000000001  0.4157  0.51337  1.0000
