data_image0
_chemical_formula_structural       Cu8H96C76N24O24
_chemical_formula_sum              "Cu8 H96 C76 N24 O24"
_cell_length_a       13.18253
_cell_length_b       14.43444
_cell_length_c       16.30863
_cell_angle_alpha    90.0
_cell_angle_beta     90.0
_cell_angle_gamma    90.0

_symmetry_space_group_name_H-M    'P 1'
_symmetry_Int_Tables_number       1

loop_
  _symmetry_equiv_pos_as_xyz
  'x,y,z'

loop_
  _atom_site_type_symbol
  _atom_site_label
  _atom_site_symmetry_multiplicity
  _atom_site_fract_x
  _atom_site_fract_y
  _atom_site_fract_z
  _atom_site_occupancy
  Cu  Cu1       1.0  0.21235  0.7050200000000002  0.16203  1.0000
  Cu  Cu2       1.0  0.9403800000000001  0.9619000000000002  0.08394999999999997  1.0000
  Cu  Cu3       1.0  0.78764  0.20501  0.3379699999999999  1.0000
  Cu  Cu4       1.0  0.28765  0.2949900000000001  0.66203  1.0000
  Cu  Cu5       1.0  0.55962  0.03811000000000001  0.58395  1.0000
  Cu  Cu6       1.0  0.7123500000000003  0.7949900000000002  0.83797  1.0000
  Cu  Cu7       1.0  0.05962000000000001  0.4619000000000001  0.41605  1.0000
  Cu  Cu8       1.0  0.44038  0.53811  0.91605  1.0000
  H   H1        1.0  0.51616  0.7335600000000002  0.54235  1.0000
  H   H2        1.0  0.9154600000000003  0.04430000000000001  0.73547  1.0000
  H   H3        1.0  0.43146000000000007  0.5998700000000002  0.48569  1.0000
  H   H4        1.0  0.42758  0.18572000000000002  0.08328  1.0000
  H   H5        1.0  0.57242  0.68572  0.41672  1.0000
  H   H6        1.0  0.9922700000000002  0.6601600000000002  0.97296  1.0000
  H   H7        1.0  0.8638600000000002  0.9544400000000002  0.91278  1.0000
  H   H8        1.0  0.01616  0.7664500000000002  0.45765  1.0000
  H   H9        1.0  0.43849  0.42292000000000013  0.53075  1.0000
  H   H10       1.0  0.00773  0.16016000000000005  0.52703  1.0000
  H   H11       1.0  0.41546  0.4557000000000001  0.26453  1.0000
  H   H12       1.0  0.22054000000000007  0.6178  0.33129  1.0000
  H   H13       1.0  0.89568  0.27681  0.8177  1.0000
  H   H14       1.0  0.20670000000000002  0.52485  0.72294  1.0000
  H   H15       1.0  0.07908  0.5840900000000002  0.92183  1.0000
  H   H16       1.0  0.39568000000000003  0.22319000000000003  0.1823  1.0000
  H   H17       1.0  0.82814  0.82529  0.49322999999999995  1.0000
  H   H18       1.0  0.59509  0.09092  0.8740499999999998  1.0000
  H   H19       1.0  0.50773  0.33984  0.47297  1.0000
  H   H20       1.0  0.9049100000000001  0.9090800000000002  0.37405  1.0000
  H   H21       1.0  0.13613  0.4544400000000001  0.58722  1.0000
  H   H22       1.0  0.949  0.6571700000000003  0.81404  1.0000
  H   H23       1.0  0.51675  0.17927000000000007  0.82982  1.0000
  H   H24       1.0  0.06151  0.57708  0.03075  1.0000
  H   H25       1.0  0.54237  0.7547200000000002  0.18852  1.0000
  H   H26       1.0  0.93146  0.9001400000000003  0.5143099999999998  1.0000
  H   H27       1.0  0.45145  0.025370000000000007  0.7907999999999997  1.0000
  H   H28       1.0  0.72054  0.8822100000000003  0.66871  1.0000
  H   H29       1.0  0.27946  0.3822100000000001  0.83128  1.0000
  H   H30       1.0  0.47369  0.3309000000000001  0.89126  1.0000
  H   H31       1.0  0.45763  0.25472  0.31148  1.0000
  H   H32       1.0  0.10432  0.7768200000000002  0.6823  1.0000
  H   H33       1.0  0.09509  0.40908  0.12595  1.0000
  H   H34       1.0  0.33017  0.36166  0.2526499999999999  1.0000
  H   H35       1.0  0.40491  0.59092  0.62595  1.0000
  H   H36       1.0  0.05100000000000001  0.15717000000000006  0.68595  1.0000
  H   H37       1.0  0.2933  0.47516  0.22294  1.0000
  H   H38       1.0  0.07242  0.81429  0.58328  1.0000
  H   H39       1.0  0.54854  0.5253700000000001  0.7092  1.0000
  H   H40       1.0  0.52631  0.8309  0.60873  1.0000
  H   H41       1.0  0.92092  0.08408  0.57816  1.0000
  H   H42       1.0  0.36277  0.6539300000000001  0.71354  1.0000
  H   H43       1.0  0.19437  0.43637000000000004  0.9638199999999998  1.0000
  H   H44       1.0  0.30563  0.56363  0.46382  1.0000
  H   H45       1.0  0.9138700000000002  0.6877500000000001  0.44924999999999987  1.0000
  H   H46       1.0  0.6698300000000001  0.8616600000000002  0.24735  1.0000
  H   H47       1.0  0.06836  0.2609400000000001  0.62813  1.0000
  H   H48       1.0  0.48324  0.67927  0.67017  1.0000
  H   H49       1.0  0.01675  0.32074000000000014  0.17017  1.0000
  H   H50       1.0  0.32814  0.67471  0.50677  1.0000
  H   H51       1.0  0.48384  0.23356000000000005  0.95765  1.0000
  H   H52       1.0  0.08454000000000003  0.5443  0.76453  1.0000
  H   H53       1.0  0.13723  0.34608  0.21354  1.0000
  H   H54       1.0  0.7933000000000001  0.02485  0.77706  1.0000
  H   H55       1.0  0.65405  0.7565000000000001  0.0608  1.0000
  H   H56       1.0  0.58454  0.9557  0.23547  1.0000
  H   H57       1.0  0.63722  0.15393  0.7864599999999998  1.0000
  H   H58       1.0  0.60432  0.7231900000000002  0.31769999999999987  1.0000
  H   H59       1.0  0.16983  0.6383500000000002  0.75265  1.0000
  H   H60       1.0  0.41387  0.8122500000000002  0.55075  1.0000
  H   H61       1.0  0.04237  0.7452800000000003  0.8114799999999998  1.0000
  H   H62       1.0  0.57908  0.9159200000000002  0.07817  1.0000
  H   H63       1.0  0.56836  0.23907000000000006  0.37187  1.0000
  H   H64       1.0  0.95763  0.24528000000000005  0.68852  1.0000
  H   H65       1.0  0.7067  0.9751600000000002  0.27706  1.0000
  H   H66       1.0  0.67186  0.17471  0.9932299999999998  1.0000
  H   H67       1.0  0.95146  0.47463  0.2092  1.0000
  H   H68       1.0  0.63613  0.04556000000000002  0.41278  1.0000
  H   H69       1.0  0.43164000000000013  0.7390700000000002  0.12813  1.0000
  H   H70       1.0  0.93164  0.7609400000000002  0.87187  1.0000
  H   H71       1.0  0.551  0.34284000000000003  0.31404  1.0000
  H   H72       1.0  0.58612  0.31225000000000014  0.94925  1.0000
  H   H73       1.0  0.56151  0.9229200000000002  0.96924  1.0000
  H   H74       1.0  0.36386  0.54556  0.08721999999999998  1.0000
  H   H75       1.0  0.97369  0.16910000000000006  0.10872999999999997  1.0000
  H   H76       1.0  0.02631  0.6691  0.39126  1.0000
  H   H77       1.0  0.449  0.8428400000000003  0.18595  1.0000
  H   H78       1.0  0.17186  0.32529000000000013  0.006769999999999998  1.0000
  H   H79       1.0  0.83017  0.13834  0.7473499999999998  1.0000
  H   H80       1.0  0.98324  0.82074  0.3298199999999999  1.0000
  H   H81       1.0  0.86277  0.8460800000000003  0.28646  1.0000
  H   H82       1.0  0.08612  0.18775000000000006  0.05075  1.0000
  H   H83       1.0  0.8459500000000002  0.24351000000000006  0.5608  1.0000
  H   H84       1.0  0.04854  0.9746300000000002  0.2908  1.0000
  H   H85       1.0  0.15405  0.74351  0.9391999999999998  1.0000
  H   H86       1.0  0.8056300000000001  0.9363700000000003  0.53618  1.0000
  H   H87       1.0  0.49227000000000004  0.8398400000000001  0.02702999999999999  1.0000
  H   H88       1.0  0.34595  0.2565  0.4392  1.0000
  H   H89       1.0  0.9275800000000002  0.31428  0.9167199999999998  1.0000
  H   H90       1.0  0.42092000000000007  0.4159200000000001  0.42183  1.0000
  H   H91       1.0  0.69437  0.06363000000000003  0.03618  1.0000
  H   H92       1.0  0.77946  0.11780000000000003  0.16871  1.0000
  H   H93       1.0  0.9838400000000002  0.26645000000000013  0.04235  1.0000
  H   H94       1.0  0.06854  0.40013  0.98569  1.0000
  H   H95       1.0  0.56854  0.09987  0.01431  1.0000
  H   H96       1.0  0.93849  0.07708  0.46925  1.0000
  C   C1        1.0  0.42619000000000007  0.18501000000000006  0.57863  1.0000
  C   C2        1.0  0.40896  0.4689200000000001  0.7530499999999998  1.0000
  C   C3        1.0  0.15048  0.6954500000000002  0.9914999999999999  1.0000
  C   C4        1.0  0.43487  0.3759400000000001  0.47792  1.0000
  C   C5        1.0  0.06295  0.6681500000000001  0.60007  1.0000
  C   C6        1.0  0.03965  0.23259000000000005  0.6860899999999998  1.0000
  C   C7        1.0  0.44559  0.7080200000000002  0.33741  1.0000
  C   C8        1.0  0.47961  0.55178  0.73964  1.0000
  C   C9        1.0  0.60341  0.9098500000000003  0.36021  1.0000
  C   C10       1.0  0.74775  0.14449000000000006  0.50173  1.0000
  C   C11       1.0  0.24775000000000003  0.35551  0.49827  1.0000
  C   C12       1.0  0.04991000000000002  0.76574  0.63207  1.0000
  C   C13       1.0  0.85741  0.8767600000000002  0.5369099999999999  1.0000
  C   C14       1.0  0.64259  0.12324000000000003  0.036909999999999984  1.0000
  C   C15       1.0  0.10341  0.5901600000000002  0.63979  1.0000
  C   C16       1.0  0.40865  0.72326  0.25718  1.0000
  C   C17       1.0  0.0029200000000000003  0.19301  0.04947  1.0000
  C   C18       1.0  0.86679  0.8379  0.62134  1.0000
  C   C19       1.0  0.09135  0.27674  0.7571799999999997  1.0000
  C   C20       1.0  0.95899  0.13842  0.9806499999999998  1.0000
  C   C21       1.0  0.57074  0.12363000000000003  0.81671  1.0000
  C   C22       1.0  0.56295  0.8318600000000003  0.39993  1.0000
  C   C23       1.0  0.49708  0.8069900000000002  0.54947  1.0000
  C   C24       1.0  0.89659  0.09016000000000003  0.8602099999999998  1.0000
  C   C25       1.0  0.59103  0.9689200000000001  0.74695  1.0000
  C   C26       1.0  0.8568700000000001  0.07393000000000002  0.7757  1.0000
  C   C27       1.0  0.4589900000000001  0.3615800000000001  0.01934  1.0000
  C   C28       1.0  0.06513  0.62406  0.97792  1.0000
  C   C29       1.0  0.56513  0.8759400000000003  0.02208  1.0000
  C   C30       1.0  0.35687  0.4260700000000001  0.2243  1.0000
  C   C31       1.0  0.9298400000000001  0.34433  0.3320099999999999  1.0000
  C   C32       1.0  0.84952  0.19545  0.50849  1.0000
  C   C33       1.0  0.93487  0.12406000000000002  0.52208  1.0000
  C   C34       1.0  0.07381  0.8149900000000001  0.07864  1.0000
  C   C35       1.0  0.09103  0.5310800000000002  0.25305  1.0000
  C   C36       1.0  0.93704  0.16815  0.8999299999999998  1.0000
  C   C37       1.0  0.0544  0.29199  0.83741  1.0000
  C   C38       1.0  0.65048  0.8045500000000002  0.00849  1.0000
  C   C39       1.0  0.39659000000000005  0.4098500000000001  0.13979  1.0000
  C   C40       1.0  0.90865  0.77674  0.74282  1.0000
  C   C41       1.0  0.50292  0.30699  0.95053  1.0000
  C   C42       1.0  0.54991  0.73427  0.36792  1.0000
  C   C43       1.0  0.35741  0.6232400000000002  0.4630899999999999  1.0000
  C   C44       1.0  0.07074  0.3763700000000001  0.18329  1.0000
  C   C45       1.0  0.53965  0.26741  0.3139099999999999  1.0000
  C   C46       1.0  0.92619  0.31499  0.42136  1.0000
  C   C47       1.0  0.52039  0.051780000000000014  0.76035  1.0000
  C   C48       1.0  0.64313  0.92607  0.2757  1.0000
  C   C49       1.0  0.34952000000000005  0.30455  0.49151  1.0000
  C   C50       1.0  0.57381  0.68502  0.92136  1.0000
  C   C51       1.0  0.59135  0.22326000000000004  0.24282  1.0000
  C   C52       1.0  0.13321  0.3379000000000001  0.87866  1.0000
  C   C53       1.0  0.57016  0.65567  0.83201  1.0000
  C   C54       1.0  0.54101  0.8615800000000002  0.48065  1.0000
  C   C55       1.0  0.94559  0.7919900000000002  0.66258  1.0000
  C   C56       1.0  0.95009  0.26574  0.86792  1.0000
  C   C57       1.0  0.14313  0.57394  0.72429  1.0000
  C   C58       1.0  0.9796100000000001  0.9482200000000002  0.26036  1.0000
  C   C59       1.0  0.42926  0.62364  0.68329  1.0000
  C   C60       1.0  0.43705  0.33186  0.10007  1.0000
  C   C61       1.0  0.02039  0.44822000000000006  0.23964  1.0000
  C   C62       1.0  0.92926  0.87637  0.31671  1.0000
  C   C63       1.0  0.07016  0.8443300000000002  0.16799  1.0000
  C   C64       1.0  0.45009000000000005  0.23427000000000006  0.13208  1.0000
  C   C65       1.0  0.9089600000000001  0.031080000000000007  0.24695  1.0000
  C   C66       1.0  0.96034  0.7325900000000002  0.8138999999999997  1.0000
  C   C67       1.0  0.36679  0.66211  0.37866  1.0000
  C   C68       1.0  0.04101  0.6384200000000001  0.51934  1.0000
  C   C69       1.0  0.9970800000000001  0.6930100000000002  0.45053  1.0000
  C   C70       1.0  0.46035  0.7674100000000001  0.18608999999999998  1.0000
  C   C71       1.0  0.14259  0.3767600000000001  0.96309  1.0000
  C   C72       1.0  0.25225  0.6445000000000002  0.9982699999999999  1.0000
  C   C73       1.0  0.42984  0.15567  0.6679899999999998  1.0000
  C   C74       1.0  0.6332100000000002  0.16211  0.12134  1.0000
  C   C75       1.0  0.7522500000000001  0.8555100000000002  0.0017299999999999996  1.0000
  C   C76       1.0  0.5544  0.20802000000000007  0.16258  1.0000
  N   N1        1.0  0.50357  0.58968  0.8194299999999998  1.0000
  N   N2        1.0  0.56643  0.9515500000000002  0.48937999999999987  1.0000
  N   N3        1.0  0.13496  0.7443500000000001  0.06778  1.0000
  N   N4        1.0  0.43357  0.4515500000000001  0.01062  1.0000
  N   N5        1.0  0.39733  0.47982000000000014  0.08427  1.0000
  N   N6        1.0  0.60266  0.97982  0.41572999999999993  1.0000
  N   N7        1.0  0.21103  0.3458400000000001  0.8248  1.0000
  N   N8        1.0  0.68659  0.18986  0.24951  1.0000
  N   N9        1.0  0.31341  0.68986  0.25049  1.0000
  N   N10       1.0  0.06642  0.54846  0.51062  1.0000
  N   N11       1.0  0.9335700000000001  0.048450000000000014  0.9893699999999999  1.0000
  N   N12       1.0  0.99643  0.41032  0.31943  1.0000
  N   N13       1.0  0.3650400000000001  0.25565  0.56778  1.0000
  N   N14       1.0  0.18659  0.31014  0.75049  1.0000
  N   N15       1.0  0.8650400000000003  0.24435000000000007  0.43222  1.0000
  N   N16       1.0  0.8973300000000001  0.020190000000000007  0.91573  1.0000
  N   N17       1.0  0.0035700000000000003  0.9103200000000002  0.18057  1.0000
  N   N18       1.0  0.49643  0.08968000000000002  0.68056  1.0000
  N   N19       1.0  0.28897  0.6541600000000001  0.32481  1.0000
  N   N20       1.0  0.63496  0.75566  0.93222  1.0000
  N   N21       1.0  0.10266  0.52019  0.58427  1.0000
  N   N22       1.0  0.78897  0.8458400000000003  0.67519  1.0000
  N   N23       1.0  0.7110300000000003  0.15416  0.17519  1.0000
  N   N24       1.0  0.8134100000000001  0.8101400000000002  0.74951  1.0000
  O   O1        1.0  0.88373  0.050860000000000016  0.17157  1.0000
  O   O2        1.0  0.98028  0.35756  0.47496  1.0000
  O   O3        1.0  0.79373  0.8587800000000002  0.9292899999999997  1.0000
  O   O4        1.0  0.28773  0.60615  0.93566  1.0000
  O   O5        1.0  0.12707  0.8044600000000002  0.22128  1.0000
  O   O6        1.0  0.21227  0.39385000000000003  0.43566  1.0000
  O   O7        1.0  0.37815000000000004  0.42559000000000013  0.69152  1.0000
  O   O8        1.0  0.6162700000000002  0.9491500000000003  0.67157  1.0000
  O   O9        1.0  0.12185000000000003  0.5744100000000001  0.19152  1.0000
  O   O10       1.0  0.29373  0.6412300000000002  0.07071  1.0000
  O   O11       1.0  0.78773  0.8938500000000003  0.06433999999999997  1.0000
  O   O12       1.0  0.11627000000000001  0.55086  0.32843  1.0000
  O   O13       1.0  0.38373000000000007  0.4491500000000001  0.8284299999999998  1.0000
  O   O14       1.0  0.20627  0.35878  0.57071  1.0000
  O   O15       1.0  0.48028  0.14245  0.5250399999999997  1.0000
  O   O16       1.0  0.51972  0.64245  0.97496  1.0000
  O   O17       1.0  0.87815  0.07441000000000003  0.30847  1.0000
  O   O18       1.0  0.62707  0.6955400000000003  0.77871  1.0000
  O   O19       1.0  0.019720000000000005  0.8575600000000002  0.025039999999999996  1.0000
  O   O20       1.0  0.8729300000000001  0.30446  0.27871  1.0000
  O   O21       1.0  0.6218500000000002  0.9255900000000002  0.80847  1.0000
  O   O22       1.0  0.37293  0.19554000000000005  0.72128  1.0000
  O   O23       1.0  0.71227  0.10615000000000002  0.56434  1.0000
  O   O24       1.0  0.70627  0.14123  0.42929  1.0000
