data_image0
_chemical_formula_structural       Co6H76C120N24O24
_chemical_formula_sum              "Co6 H76 C120 N24 O24"
_cell_length_a       13.4537
_cell_length_b       13.78032
_cell_length_c       22.79589
_cell_angle_alpha    74.43469
_cell_angle_beta     72.77765
_cell_angle_gamma    60.75021999999999

_space_group_name_H-M_alt    "P 1"
_space_group_IT_number       1

loop_
  _space_group_symop_operation_xyz
  'x, y, z'

loop_
  _atom_site_type_symbol
  _atom_site_label
  _atom_site_symmetry_multiplicity
  _atom_site_fract_x
  _atom_site_fract_y
  _atom_site_fract_z
  _atom_site_occupancy
  Co  Co1       1.0  0.53695  0.16378  0.04778999999999999  1.0000
  Co  Co2       1.0  0.7478900000000003  0.33698  0.45128  1.0000
  Co  Co3       1.0  0.4633700000000001  0.83666  0.95111  1.0000
  Co  Co4       1.0  0.25204999999999994  0.66285  0.54882  1.0000
  Co  Co5       1.0  0.20798  0.25005999999999995  0.7498500000000001  1.0000
  Co  Co6       1.0  0.7919600000000001  0.75002  0.24941999999999998  1.0000
  H   H1        1.0  0.8345799999999999  0.05618000000000003  0.87846  1.0000
  H   H2        1.0  0.14389000000000013  0.88185  0.7476699999999998  1.0000
  H   H3        1.0  0.8523900000000003  0.80707  0.78957  1.0000
  H   H4        1.0  0.16130000000000003  0.049879999999999994  0.73268  1.0000
  H   H5        1.0  0.06517000000000002  0.21511999999999998  0.88577  1.0000
  H   H6        1.0  0.9438100000000003  0.08936  0.9136700000000001  1.0000
  H   H7        1.0  0.11531999999999991  0.85946  0.63907  1.0000
  H   H8        1.0  0.12939000000000003  0.53938  0.66069  1.0000
  H   H9        1.0  0.032870000000000094  0.61411  0.77452  1.0000
  H   H10       1.0  0.7313100000000001  0.7817099999999998  0.88363  1.0000
  H   H11       1.0  0.4497700000000003  0.08096999999999999  0.94021  1.0000
  H   H12       1.0  0.6379700000000001  0.12522  0.88333  1.0000
  H   H13       1.0  0.34796  0.28715  0.88876  1.0000
  H   H14       1.0  0.2269100000000001  0.5323  0.00926  1.0000
  H   H15       1.0  0.016839999999999956  0.57589  0.88508  1.0000
  H   H16       1.0  0.8805500000000004  0.65368  0.9777700000000001  1.0000
  H   H17       1.0  0.7377200000000005  0.84218  0.00711  1.0000
  H   H18       1.0  0.017420000000000095  0.92592  0.98392  1.0000
  H   H19       1.0  0.15919000000000003  0.73773  0.95861  1.0000
  H   H20       1.0  0.76974  0.44359  0.62153  1.0000
  H   H21       1.0  0.7736299999999999  0.61784  0.7522600000000002  1.0000
  H   H22       1.0  0.44917000000000007  0.69302  0.71039  1.0000
  H   H23       1.0  0.9442900000000001  0.45002  0.7670499999999999  1.0000
  H   H24       1.0  0.16641999999999998  0.28407  0.61407  1.0000
  H   H25       1.0  0.9470400000000005  0.41044  0.5863  1.0000
  H   H26       1.0  0.6136099999999999  0.6401200000000002  0.86076  1.0000
  H   H27       1.0  0.3295900000000001  0.96049  0.8394  1.0000
  H   H28       1.0  0.42181000000000013  0.8860799999999999  0.72545  1.0000
  H   H29       1.0  0.3965500000000001  0.7178600000000002  0.61664  1.0000
  H   H30       1.0  0.47202000000000005  0.41864  0.5597  1.0000
  H   H31       1.0  0.64769  0.37458  0.61646  1.0000
  H   H32       1.0  0.5241  0.21276  0.61097  1.0000
  H   H33       1.0  0.7689299999999999  0.9674000000000001  0.49041999999999997  1.0000
  H   H34       1.0  0.47795000000000004  0.92404  0.61511  1.0000
  H   H35       1.0  0.5116700000000001  0.8468799999999999  0.52208  1.0000
  H   H36       1.0  0.58597  0.65839  0.49305  1.0000
  H   H37       1.0  0.9266000000000002  0.5731800000000002  0.51628  1.0000
  H   H38       1.0  0.8556000000000001  0.7615  0.54135  1.0000
  H   H39       1.0  0.1654999999999999  0.9443300000000001  0.12122  1.0000
  H   H40       1.0  0.85643  0.11781  0.25236  1.0000
  H   H41       1.0  0.14770000000000008  0.19301  0.21047000000000002  1.0000
  H   H42       1.0  0.8387100000000001  0.95009  0.2671  1.0000
  H   H43       1.0  0.93533  0.7848700000000001  0.11394  1.0000
  H   H44       1.0  0.05684000000000003  0.91045  0.08633  1.0000
  H   H45       1.0  0.88511  0.13998000000000002  0.36112  1.0000
  H   H46       1.0  0.8699200000000005  0.46046  0.33957  1.0000
  H   H47       1.0  0.9666  0.38591  0.2257  1.0000
  H   H48       1.0  0.26882  0.21869999999999998  0.116  1.0000
  H   H49       1.0  0.5497600000000001  0.9198  0.05868999999999999  1.0000
  H   H50       1.0  0.36191999999999996  0.87525  0.11624  1.0000
  H   H51       1.0  0.6519300000000002  0.71325  0.11034  1.0000
  H   H52       1.0  0.7736400000000001  0.4673499999999999  0.9901500000000001  1.0000
  H   H53       1.0  0.9822400000000004  0.42411  0.11513  1.0000
  H   H54       1.0  0.11956  0.34651  0.02205  1.0000
  H   H55       1.0  0.26277999999999996  0.15832999999999994  0.9925300000000001  1.0000
  H   H56       1.0  0.9839800000000002  0.07335  0.01596  1.0000
  H   H57       1.0  0.8414500000000003  0.26141  0.04128  1.0000
  H   H58       1.0  0.23060999999999987  0.5559100000000002  0.37835  1.0000
  H   H59       1.0  0.2265900000000001  0.38231  0.24733  1.0000
  H   H60       1.0  0.5511200000000003  0.3068900000000001  0.28925  1.0000
  H   H61       1.0  0.05598000000000001  0.54988  0.23266000000000003  1.0000
  H   H62       1.0  0.8336799999999999  0.7158  0.38564  1.0000
  H   H63       1.0  0.052889999999999965  0.5895699999999999  0.41348000000000007  1.0000
  H   H64       1.0  0.3866  0.36021  0.13857  1.0000
  H   H65       1.0  0.67018  0.039599999999999996  0.15991  1.0000
  H   H66       1.0  0.5782800000000001  0.11388  0.27381  1.0000
  H   H67       1.0  0.60348  0.28147000000000005  0.38354  1.0000
  H   H68       1.0  0.52755  0.58058  0.4408000000000001  1.0000
  H   H69       1.0  0.35270000000000024  0.62492  0.3834  1.0000
  H   H70       1.0  0.47600000000000003  0.78646  0.38976999999999995  1.0000
  H   H71       1.0  0.23159000000000007  0.032510000000000004  0.51  1.0000
  H   H72       1.0  0.52208  0.07570999999999999  0.3846  1.0000
  H   H73       1.0  0.48844000000000015  0.15298999999999993  0.47788  1.0000
  H   H74       1.0  0.41392000000000007  0.34164000000000005  0.5069  1.0000
  H   H75       1.0  0.07336999999999999  0.42662  0.48363  1.0000
  H   H76       1.0  0.14449  0.23820999999999995  0.45862  1.0000
  C   C1        1.0  0.8820300000000004  0.99463  0.84666  1.0000
  C   C2        1.0  0.9931400000000005  0.97795  0.8130100000000001  1.0000
  C   C3        1.0  0.05598999999999985  0.8977300000000001  0.7722900000000001  1.0000
  C   C4        1.0  0.0036700000000000534  0.83657  0.76486  1.0000
  C   C5        1.0  0.8930499999999999  0.85191  0.79816  1.0000
  C   C6        1.0  0.83324  0.9307300000000001  0.8391999999999998  1.0000
  C   C7        1.0  0.11952000000000003  0.07600999999999997  0.77801  1.0000
  C   C8        1.0  0.06653000000000002  0.16154000000000002  0.85817  1.0000
  C   C9        1.0  0.006100000000000016  0.09952000000000003  0.87239  1.0000
  C   C10       1.0  0.10674000000000006  0.78286  0.65981  1.0000
  C   C11       1.0  0.10979999999999986  0.6182400000000002  0.67311  1.0000
  C   C12       1.0  0.06069000000000009  0.6551700000000001  0.72967  1.0000
  C   C13       1.0  0.6789900000000003  0.8693  0.8892900000000001  1.0000
  C   C14       1.0  0.5366  0.025920000000000033  0.91932  1.0000
  C   C15       1.0  0.6294800000000002  0.04854999999999998  0.89114  1.0000
  C   C16       1.0  0.15342  0.38871  0.83575  1.0000
  C   C17       1.0  0.18056000000000005  0.4287099999999999  0.8814700000000001  1.0000
  C   C18       1.0  0.2830700000000001  0.36605  0.9052100000000001  1.0000
  C   C19       1.0  0.2972  0.4024400000000001  0.95268  1.0000
  C   C20       1.0  0.3887999999999999  0.32707  0.98995  1.0000
  C   C21       1.0  0.21461000000000022  0.50607  0.97207  1.0000
  C   C22       1.0  0.11506999999999995  0.57229  0.9462100000000001  1.0000
  C   C23       1.0  0.0969899999999999  0.5300000000000002  0.90287  1.0000
  C   C24       1.0  0.029750000000000058  0.68321  0.9648000000000001  1.0000
  C   C25       1.0  0.9101599999999999  0.71394  0.9785800000000001  1.0000
  C   C26       1.0  0.83006  0.8191300000000001  0.9952599999999999  1.0000
  C   C27       1.0  0.8666600000000002  0.8982199999999999  0.99594  1.0000
  C   C28       1.0  0.7786600000000002  0.014690000000000002  0.00837  1.0000
  C   C29       1.0  0.9861299999999998  0.86737  0.9825999999999999  1.0000
  C   C30       1.0  0.06682999999999996  0.76045  0.96843  1.0000
  C   C31       1.0  0.72368  0.50522  0.65331  1.0000
  C   C32       1.0  0.7844000000000002  0.5219599999999999  0.68687  1.0000
  C   C33       1.0  0.7262299999999999  0.60217  0.72759  1.0000
  C   C34       1.0  0.60526  0.66342  0.735  1.0000
  C   C35       1.0  0.5433200000000001  0.64806  0.70176  1.0000
  C   C36       1.0  0.60349  0.56915  0.66076  1.0000
  C   C37       1.0  0.97387  0.42394  0.72173  1.0000
  C   C38       1.0  0.08666000000000008  0.33804  0.64164  1.0000
  C   C39       1.0  0.9783800000000005  0.4001  0.6275  1.0000
  C   C40       1.0  0.5493600000000004  0.7168499999999999  0.84003  1.0000
  C   C41       1.0  0.40118000000000004  0.8816  0.82692  1.0000
  C   C42       1.0  0.44570999999999994  0.84495  0.77028  1.0000
  C   C43       1.0  0.43775000000000003  0.63028  0.61091  1.0000
  C   C44       1.0  0.48277000000000003  0.47366  0.58066  1.0000
  C   C45       1.0  0.5699700000000001  0.45116  0.60881  1.0000
  C   C46       1.0  0.37772000000000017  0.11149000000000003  0.6639  1.0000
  C   C47       1.0  0.4909899999999999  0.07114000000000001  0.6184  1.0000
  C   C48       1.0  0.5546299999999998  0.13378000000000007  0.59462  1.0000
  C   C49       1.0  0.6528100000000002  0.09732  0.54711  1.0000
  C   C50       1.0  0.70632  0.17263  0.50939  1.0000
  C   C51       1.0  0.6932800000000003  0.9936199999999998  0.52779  1.0000
  C   C52       1.0  0.6339  0.9275699999999999  0.55368  1.0000
  C   C53       1.0  0.5300300000000003  0.96991  0.59705  1.0000
  C   C54       1.0  0.6776800000000001  0.81677  0.53513  1.0000
  C   C55       1.0  0.6022599999999999  0.78639  0.52144  1.0000
  C   C56       1.0  0.6437000000000007  0.68126  0.50477  1.0000
  C   C57       1.0  0.7600699999999996  0.60195  0.50413  1.0000
  C   C58       1.0  0.8013900000000004  0.48542  0.49167  1.0000
  C   C59       1.0  0.8355999999999999  0.63238  0.51745  1.0000
  C   C60       1.0  0.7954800000000001  0.73913  0.53165  1.0000
  C   C61       1.0  0.11812  0.005610000000000003  0.1532  1.0000
  C   C62       1.0  0.007109999999999977  0.022029999999999998  0.18691000000000002  1.0000
  C   C63       1.0  0.94429  0.10207999999999999  0.22774000000000003  1.0000
  C   C64       1.0  0.9965500000000002  0.16324  0.23525  1.0000
  C   C65       1.0  0.10710000000000001  0.14812000000000003  0.20187  1.0000
  C   C66       1.0  0.16684999999999994  0.06952000000000001  0.16068  1.0000
  C   C67       1.0  0.8805300000000005  0.92407  0.22176000000000004  1.0000
  C   C68       1.0  0.9337800000000002  0.83853  0.14157  1.0000
  C   C69       1.0  0.9944200000000004  0.9003  0.12752  1.0000
  C   C70       1.0  0.8934400000000002  0.21669  0.34039  1.0000
  C   C71       1.0  0.8898599999999999  0.38150999999999996  0.32713  1.0000
  C   C72       1.0  0.93899  0.3447  0.27055  1.0000
  C   C73       1.0  0.32099000000000005  0.13116000000000003  0.11024000000000002  1.0000
  C   C74       1.0  0.46306000000000025  0.97478  0.07977  1.0000
  C   C75       1.0  0.37039  0.95196  0.10833  1.0000
  C   C76       1.0  0.8454600000000003  0.61174  0.16392  1.0000
  C   C77       1.0  0.8187800000000002  0.57137  0.11822  1.0000
  C   C78       1.0  0.7167700000000001  0.6342  0.09407999999999998  1.0000
  C   C79       1.0  0.70311  0.59773  0.04647  1.0000
  C   C80       1.0  0.6117600000000001  0.6731000000000001  0.00902  1.0000
  C   C81       1.0  0.7855700000000001  0.4938  0.027400000000000004  1.0000
  C   C82       1.0  0.8848  0.42757  0.05354999999999999  1.0000
  C   C83       1.0  0.9024800000000002  0.47001  0.09698000000000001  1.0000
  C   C84       1.0  0.9704200000000002  0.31669  0.03501  1.0000
  C   C85       1.0  0.09000999999999999  0.28618  0.02128  1.0000
  C   C86       1.0  0.17043000000000003  0.18117  0.00438  1.0000
  C   C87       1.0  0.13394  0.10208  0.00357  1.0000
  C   C88       1.0  0.22126999999999997  0.9857  0.9907  1.0000
  C   C89       1.0  0.014609999999999995  0.13246  0.01719  1.0000
  C   C90       1.0  0.93368  0.23914  0.0315  1.0000
  C   C91       1.0  0.2765900000000002  0.49447  0.34648  1.0000
  C   C92       1.0  0.2158  0.47797  0.31283  1.0000
  C   C93       1.0  0.27401000000000003  0.3979299999999999  0.27201  1.0000
  C   C94       1.0  0.39501000000000003  0.33669  0.26449  1.0000
  C   C95       1.0  0.45697000000000004  0.35184000000000004  0.29784  1.0000
  C   C96       1.0  0.39683000000000007  0.43052  0.33899  1.0000
  C   C97       1.0  0.02627999999999999  0.57613  0.27795  1.0000
  C   C98       1.0  0.9134500000000004  0.6619999999999999  0.35802  1.0000
  C   C99       1.0  0.021699999999999945  0.59982  0.37223  1.0000
  C   C100      1.0  0.4507  0.28338  0.15931  1.0000
  C   C101      1.0  0.59856  0.11847  0.1724  1.0000
  C   C102      1.0  0.5543200000000003  0.15516  0.22901  1.0000
  C   C103      1.0  0.56225  0.36905  0.38927999999999996  1.0000
  C   C104      1.0  0.51707  0.5256  0.41968  1.0000
  C   C105      1.0  0.43018  0.54827  0.39120000000000005  1.0000
  C   C106      1.0  0.6222700000000001  0.8882299999999999  0.33597  1.0000
  C   C107      1.0  0.5092200000000001  0.9283100000000001  0.38175000000000003  1.0000
  C   C108      1.0  0.4456500000000001  0.8656299999999999  0.40588  1.0000
  C   C109      1.0  0.34764999999999996  0.9022600000000001  0.45347  1.0000
  C   C110      1.0  0.29407000000000005  0.82708  0.49118  1.0000
  C   C111      1.0  0.3072400000000001  0.006040000000000003  0.47266  1.0000
  C   C112      1.0  0.36639000000000016  0.07224000000000001  0.44637  1.0000
  C   C113      1.0  0.47000999999999993  0.029830000000000006  0.40286  1.0000
  C   C114      1.0  0.3224800000000001  0.18320999999999996  0.46475  1.0000
  C   C115      1.0  0.3978300000000001  0.21361  0.47847999999999996  1.0000
  C   C116      1.0  0.35625  0.31881  0.4951  1.0000
  C   C117      1.0  0.2398600000000001  0.3980599999999999  0.49575  1.0000
  C   C118      1.0  0.19855999999999993  0.51452  0.50832  1.0000
  C   C119      1.0  0.16440000000000007  0.36754999999999993  0.48240999999999995  1.0000
  C   C120      1.0  0.2045900000000001  0.26071  0.46825  1.0000
  N   N1        1.0  0.13666000000000014  0.14651000000000003  0.7994299999999999  1.0000
  N   N2        1.0  0.040399999999999964  0.044859999999999976  0.82115  1.0000
  N   N3        1.0  0.13775000000000007  0.69836  0.63  1.0000
  N   N4        1.0  0.05968000000000005  0.7597799999999999  0.72097  1.0000
  N   N5        1.0  0.56859  0.91412  0.9181500000000001  1.0000
  N   N6        1.0  0.7197200000000001  0.9487399999999999  0.87155  1.0000
  N   N7        1.0  0.08292000000000004  0.35313  0.70035  1.0000
  N   N8        1.0  0.9067500000000005  0.45499999999999996  0.67868  1.0000
  N   N9        1.0  0.4660600000000003  0.80121  0.8699499999999999  1.0000
  N   N10       1.0  0.5404899999999999  0.74018  0.7788900000000001  1.0000
  N   N11       1.0  0.40139000000000014  0.5853599999999999  0.58196  1.0000
  N   N12       1.0  0.54037  0.55096  0.62852  1.0000
  N   N13       1.0  0.8635  0.85355  0.20027  1.0000
  N   N14       1.0  0.95992  0.95504  0.17875  1.0000
  N   N15       1.0  0.8621099999999999  0.3012699999999999  0.37021  1.0000
  N   N16       1.0  0.9404300000000004  0.23991  0.27922  1.0000
  N   N17       1.0  0.4311500000000001  0.08654  0.08097  1.0000
  N   N18       1.0  0.28033  0.05164  0.12818  1.0000
  N   N19       1.0  0.9171900000000003  0.64688  0.2993  1.0000
  N   N20       1.0  0.0934100000000001  0.54496  0.32103  1.0000
  N   N21       1.0  0.53382  0.19896  0.12934  1.0000
  N   N22       1.0  0.45966000000000007  0.26006  0.22047  1.0000
  N   N23       1.0  0.59837  0.4138899999999999  0.41843  1.0000
  N   N24       1.0  0.4598700000000002  0.44849  0.3714  1.0000
  O   O1        1.0  0.23821999999999988  0.3020000000000001  0.81106  1.0000
  O   O2        1.0  0.05287999999999999  0.4389  0.82414  1.0000
  O   O3        1.0  0.48694000000000026  0.2511900000000001  0.96589  1.0000
  O   O4        1.0  0.36570000000000014  0.33379  0.04739  1.0000
  O   O5        1.0  0.8049300000000001  0.09493000000000001  0.9909499999999999  1.0000
  O   O6        1.0  0.6754600000000002  0.02321  0.03608  1.0000
  O   O7        1.0  0.35067000000000004  0.19888000000000006  0.68802  1.0000
  O   O8        1.0  0.31570000000000015  0.06127999999999998  0.67575  1.0000
  O   O9        1.0  0.7050800000000003  0.24874000000000004  0.53294  1.0000
  O   O10       1.0  0.7467500000000001  0.16556  0.452  1.0000
  O   O11       1.0  0.8904800000000002  0.40519  0.50914  1.0000
  O   O12       1.0  0.7348  0.47693  0.46376  1.0000
  O   O13       1.0  0.7607700000000005  0.69904  0.18814  1.0000
  O   O14       1.0  0.9457300000000006  0.56144  0.17588  1.0000
  O   O15       1.0  0.5138100000000002  0.74956  0.03285  1.0000
  O   O16       1.0  0.6348000000000005  0.66574  0.95174  1.0000
  O   O17       1.0  0.19490000000000007  0.9055  0.00901  1.0000
  O   O18       1.0  0.32384000000000024  0.9772400000000001  0.9614899999999998  1.0000
  O   O19       1.0  0.6493300000000004  0.8010900000000001  0.3116  1.0000
  O   O20       1.0  0.68404  0.93869  0.32414  1.0000
  O   O21       1.0  0.2944399999999999  0.75185  0.4673  1.0000
  O   O22       1.0  0.25436000000000003  0.83349  0.5487  1.0000
  O   O23       1.0  0.10947  0.59475  0.49086  1.0000
  O   O24       1.0  0.26524  0.52295  0.5362  1.0000
