data_image0
_chemical_formula_structural       Zn16H96C172N28O64
_chemical_formula_sum              "Zn16 H96 C172 N28 O64"
_cell_length_a       14.10205
_cell_length_b       22.0308
_cell_length_c       25.07819
_cell_angle_alpha    108.70617
_cell_angle_beta     89.98263
_cell_angle_gamma    89.92416

_symmetry_space_group_name_H-M    'P 1'
_symmetry_Int_Tables_number       1

loop_
  _symmetry_equiv_pos_as_xyz
  'x,y,z'

loop_
  _atom_site_type_symbol
  _atom_site_label
  _atom_site_symmetry_multiplicity
  _atom_site_fract_x
  _atom_site_fract_y
  _atom_site_fract_z
  _atom_site_occupancy
  Zn  Zn1       1.0  0.8687  0.61349  0.71828  1.0000
  Zn  Zn2       1.0  0.37322  0.87773  0.7500400000000002  1.0000
  Zn  Zn3       1.0  0.38411  0.58964  0.61021  1.0000
  Zn  Zn4       1.0  0.87414  0.90158  0.8616700000000002  1.0000
  Zn  Zn5       1.0  0.36822  0.3867900000000001  0.78229  1.0000
  Zn  Zn6       1.0  0.87301  0.12157000000000001  0.7481800000000001  1.0000
  Zn  Zn7       1.0  0.88362  0.40929  0.8893800000000002  1.0000
  Zn  Zn8       1.0  0.37363  0.09862  0.63672  1.0000
  Zn  Zn9       1.0  0.1313  0.38652  0.2817200000000001  1.0000
  Zn  Zn10      1.0  0.62678  0.12227  0.24996000000000002  1.0000
  Zn  Zn11      1.0  0.61588  0.41036  0.38979  1.0000
  Zn  Zn12      1.0  0.12586  0.09842  0.13833  1.0000
  Zn  Zn13      1.0  0.63179  0.61321  0.21771000000000004  1.0000
  Zn  Zn14      1.0  0.127  0.8784300000000002  0.25185  1.0000
  Zn  Zn15      1.0  0.11639  0.59073  0.11063  1.0000
  Zn  Zn16      1.0  0.62637  0.90138  0.36328  1.0000
  H   H1        1.0  0.67493  0.58307  0.65801  1.0000
  H   H2        1.0  0.66692  0.43593  0.7688  1.0000
  H   H3        1.0  0.80904  0.50219  0.7662500000000001  1.0000
  H   H4        1.0  0.0729  0.5940400000000001  0.66543  1.0000
  H   H5        1.0  0.07405  0.8252  0.7649900000000001  1.0000
  H   H6        1.0  0.92808  0.7587600000000001  0.75556  1.0000
  H   H7        1.0  0.20238  0.9139100000000002  0.8356200000000003  1.0000
  H   H8        1.0  0.15592  0.040609999999999986  0.7088  1.0000
  H   H9        1.0  0.30343  0.97837  0.7078200000000001  1.0000
  H   H10       1.0  0.56134  0.89406  0.81584  1.0000
  H   H11       1.0  0.57371  0.6753800000000001  0.6829200000000001  1.0000
  H   H12       1.0  0.42538  0.73978  0.7028200000000002  1.0000
  H   H13       1.0  0.89627  0.48196000000000006  0.6436  1.0000
  H   H14       1.0  0.97459  0.42837  0.5523  1.0000
  H   H15       1.0  0.95304  0.6084000000000002  0.51757  1.0000
  H   H16       1.0  0.87449  0.6536000000000001  0.61102  1.0000
  H   H17       1.0  0.62981  0.76592  0.34925  1.0000
  H   H18       1.0  0.56556  0.6920900000000001  0.3947  1.0000
  H   H19       1.0  0.51023  0.63489  0.43284  1.0000
  H   H20       1.0  0.45496  0.5668300000000001  0.48764000000000013  1.0000
  H   H21       1.0  0.36130000000000007  0.72552  0.61879  1.0000
  H   H22       1.0  0.4227  0.8000200000000001  0.5734500000000001  1.0000
  H   H23       1.0  0.47406  0.85877  0.53289  1.0000
  H   H24       1.0  0.53263  0.9256500000000004  0.4777100000000001  1.0000
  H   H25       1.0  0.17537  0.41531  0.84174  1.0000
  H   H26       1.0  0.16502  0.56404  0.7324400000000001  1.0000
  H   H27       1.0  0.30811  0.49804  0.73436  1.0000
  H   H28       1.0  0.57221  0.40478  0.8354800000000001  1.0000
  H   H29       1.0  0.57447  0.17468  0.73194  1.0000
  H   H30       1.0  0.42785  0.2413200000000001  0.7429900000000002  1.0000
  H   H31       1.0  0.6997000000000001  0.08767  0.66396  1.0000
  H   H32       1.0  0.656  0.9584500000000001  0.78879  1.0000
  H   H33       1.0  0.80359  0.019970000000000033  0.78919  1.0000
  H   H34       1.0  0.06194  0.10632  0.68324  1.0000
  H   H35       1.0  0.07179  0.32419  0.81729  1.0000
  H   H36       1.0  0.92378  0.2595700000000001  0.7963600000000001  1.0000
  H   H37       1.0  0.3968700000000001  0.51835  0.8564700000000001  1.0000
  H   H38       1.0  0.47486  0.5717900000000001  0.9478000000000002  1.0000
  H   H39       1.0  0.45324  0.39163  0.9823400000000001  1.0000
  H   H40       1.0  0.37443  0.34681000000000006  0.8890200000000001  1.0000
  H   H41       1.0  0.12917  0.23319000000000004  0.15121  1.0000
  H   H42       1.0  0.06641  0.3069  0.10535  1.0000
  H   H43       1.0  0.00951  0.36448  0.06735  1.0000
  H   H44       1.0  0.9534200000000003  0.43243  0.01265  1.0000
  H   H45       1.0  0.86144  0.27373  0.88139  1.0000
  H   H46       1.0  0.9238300000000003  0.19928000000000007  0.92662  1.0000
  H   H47       1.0  0.97458  0.1403  0.96757  1.0000
  H   H48       1.0  0.03227  0.07345000000000002  0.02288  1.0000
  H   H49       1.0  0.32506  0.41693  0.34199  1.0000
  H   H50       1.0  0.33309  0.56407  0.2312  1.0000
  H   H51       1.0  0.19096  0.49782000000000004  0.23375000000000007  1.0000
  H   H52       1.0  0.9271  0.4059700000000001  0.33457000000000003  1.0000
  H   H53       1.0  0.92595  0.17481000000000002  0.23501000000000005  1.0000
  H   H54       1.0  0.07192000000000001  0.24125000000000002  0.24444  1.0000
  H   H55       1.0  0.79761  0.08609  0.16438  1.0000
  H   H56       1.0  0.84408  0.9593800000000001  0.29119000000000006  1.0000
  H   H57       1.0  0.69657  0.02163000000000002  0.29218  1.0000
  H   H58       1.0  0.43867  0.10594000000000003  0.18416000000000002  1.0000
  H   H59       1.0  0.42629  0.3246200000000001  0.31709  1.0000
  H   H60       1.0  0.5746200000000001  0.26022  0.29718  1.0000
  H   H61       1.0  0.10373  0.51805  0.35641  1.0000
  H   H62       1.0  0.025410000000000002  0.57163  0.4477  1.0000
  H   H63       1.0  0.04696  0.39161000000000007  0.48243000000000014  1.0000
  H   H64       1.0  0.12551  0.3464000000000001  0.38898000000000005  1.0000
  H   H65       1.0  0.37019  0.23408  0.65075  1.0000
  H   H66       1.0  0.43444  0.3079100000000001  0.6053  1.0000
  H   H67       1.0  0.48977  0.3651100000000001  0.56716  1.0000
  H   H68       1.0  0.54504  0.43317000000000005  0.51236  1.0000
  H   H69       1.0  0.6387  0.27448  0.38121  1.0000
  H   H70       1.0  0.5773  0.19998  0.42655  1.0000
  H   H71       1.0  0.52594  0.14123  0.46712  1.0000
  H   H72       1.0  0.46736000000000005  0.07434999999999999  0.52229  1.0000
  H   H73       1.0  0.82463  0.5846900000000002  0.15825  1.0000
  H   H74       1.0  0.83499  0.43596  0.26756  1.0000
  H   H75       1.0  0.6919  0.50197  0.26565  1.0000
  H   H76       1.0  0.42778  0.59522  0.16451  1.0000
  H   H77       1.0  0.4256  0.82531  0.2681  1.0000
  H   H78       1.0  0.57222  0.7586600000000001  0.25698  1.0000
  H   H79       1.0  0.30031  0.91235  0.33606  1.0000
  H   H80       1.0  0.34399  0.041550000000000004  0.21121  1.0000
  H   H81       1.0  0.1964  0.9800400000000001  0.21082000000000004  1.0000
  H   H82       1.0  0.93807  0.8936800000000001  0.31678  1.0000
  H   H83       1.0  0.92822  0.67582  0.18271  1.0000
  H   H84       1.0  0.07623  0.74043  0.20365  1.0000
  H   H85       1.0  0.60313  0.4816500000000001  0.14353000000000002  1.0000
  H   H86       1.0  0.52514  0.42821  0.0522  1.0000
  H   H87       1.0  0.54676  0.6083800000000001  0.01766  1.0000
  H   H88       1.0  0.62557  0.65319  0.11098000000000001  1.0000
  H   H89       1.0  0.8708300000000001  0.76681  0.84879  1.0000
  H   H90       1.0  0.93359  0.6931  0.89465  1.0000
  H   H91       1.0  0.9905  0.63553  0.93265  1.0000
  H   H92       1.0  0.04659  0.56758  0.98735  1.0000
  H   H93       1.0  0.13855  0.72628  0.11861000000000002  1.0000
  H   H94       1.0  0.07616  0.80073  0.07338  1.0000
  H   H95       1.0  0.02542  0.8597  0.03242  1.0000
  H   H96       1.0  0.96772  0.92655  0.9771200000000002  1.0000
  C   C1        1.0  0.67048  0.55033  0.6825300000000001  1.0000
  C   C2        1.0  0.58659  0.51645  0.68248  1.0000
  C   C3        1.0  0.50013  0.53119  0.65444  1.0000
  C   C4        1.0  0.58378  0.47380000000000005  0.71394  1.0000
  C   C5        1.0  0.49798  0.43308000000000013  0.7150500000000001  1.0000
  C   C6        1.0  0.66535  0.46821000000000007  0.7438900000000002  1.0000
  C   C7        1.0  0.74508  0.5049600000000001  0.74269  1.0000
  C   C8        1.0  0.07529  0.6454100000000002  0.6874800000000002  1.0000
  C   C9        1.0  0.16048  0.67878  0.68965  1.0000
  C   C10       1.0  0.24597  0.64304  0.66171  1.0000
  C   C11       1.0  0.16253  0.7449600000000002  0.7197400000000003  1.0000
  C   C12       1.0  0.24904000000000004  0.78762  0.73058  1.0000
  C   C13       1.0  0.07689  0.7738900000000002  0.74294  1.0000
  C   C14       1.0  0.9954300000000001  0.7371200000000002  0.7383600000000001  1.0000
  C   C15       1.0  0.19023000000000004  0.94356  0.80894  1.0000
  C   C16       1.0  0.10555  0.9780600000000003  0.81326  1.0000
  C   C17       1.0  0.03136  0.96812  0.8529  1.0000
  C   C18       1.0  0.09043  0.013230000000000056  0.7760600000000001  1.0000
  C   C19       1.0  0.00104  0.05098  0.77554  1.0000
  C   C20       1.0  0.16348  0.014020000000000008  0.73833  1.0000
  C   C21       1.0  0.24587000000000003  0.9789100000000001  0.73702  1.0000
  C   C22       1.0  0.56655  0.8455  0.78677  1.0000
  C   C23       1.0  0.6532200000000001  0.81295  0.7784900000000002  1.0000
  C   C24       1.0  0.73797  0.8469800000000001  0.80819  1.0000
  C   C25       1.0  0.6586700000000001  0.7505200000000001  0.73979  1.0000
  C   C26       1.0  0.74834  0.71127  0.7235  1.0000
  C   C27       1.0  0.57449  0.72369  0.71283  1.0000
  C   C28       1.0  0.4915000000000001  0.75945  0.72308  1.0000
  C   C29       1.0  0.9096400000000002  0.5076500000000002  0.61384  1.0000
  C   C30       1.0  0.9543  0.4784000000000001  0.56274  1.0000
  C   C31       1.0  0.974  0.51413  0.52666  1.0000
  C   C32       1.0  0.9424500000000001  0.57797  0.54362  1.0000
  C   C33       1.0  0.89838  0.6040300000000001  0.5953900000000001  1.0000
  C   C34       1.0  0.59366  0.7844900000000002  0.38966000000000006  1.0000
  C   C35       1.0  0.55863  0.74323  0.41665  1.0000
  C   C36       1.0  0.5134  0.7681300000000001  0.46911  1.0000
  C   C37       1.0  0.47497  0.72489  0.49863  1.0000
  C   C38       1.0  0.48098  0.6576700000000002  0.4747600000000001  1.0000
  C   C39       1.0  0.44846  0.6187900000000002  0.50488  1.0000
  C   C40       1.0  0.39735000000000004  0.70702  0.57836  1.0000
  C   C41       1.0  0.43102  0.74894  0.55156  1.0000
  C   C42       1.0  0.50639  0.83532  0.49202  1.0000
  C   C43       1.0  0.54066  0.8738100000000001  0.46198  1.0000
  C   C44       1.0  0.17044  0.4486600000000001  0.8178  1.0000
  C   C45       1.0  0.08638  0.4827600000000001  0.8184500000000001  1.0000
  C   C46       1.0  0.0004600000000000001  0.46780000000000005  0.84674  1.0000
  C   C47       1.0  0.08297  0.52572  0.78727  1.0000
  C   C48       1.0  0.99737  0.56682  0.7863700000000001  1.0000
  C   C49       1.0  0.16423000000000001  0.5316  0.7571900000000001  1.0000
  C   C50       1.0  0.24432000000000004  0.49492  0.75797  1.0000
  C   C51       1.0  0.57497  0.35369000000000006  0.81242  1.0000
  C   C52       1.0  0.66051  0.32032000000000005  0.8092600000000001  1.0000
  C   C53       1.0  0.74588  0.35590000000000005  0.8373900000000001  1.0000
  C   C54       1.0  0.66258  0.25439  0.77831  1.0000
  C   C55       1.0  0.74911  0.21159000000000008  0.7669300000000001  1.0000
  C   C56       1.0  0.57698  0.22577  0.75488  1.0000
  C   C57       1.0  0.4952  0.26259  0.76044  1.0000
  C   C58       1.0  0.6882600000000001  0.05734  0.69012  1.0000
  C   C59       1.0  0.60345  0.023039999999999995  0.68598  1.0000
  C   C60       1.0  0.52945  0.03430000000000001  0.64698  1.0000
  C   C61       1.0  0.58926  0.98686  0.72244  1.0000
  C   C62       1.0  0.50046  0.9490300000000002  0.7240600000000001  1.0000
  C   C63       1.0  0.66313  0.9853400000000001  0.7594800000000003  1.0000
  C   C64       1.0  0.74555  0.02013000000000004  0.7605000000000001  1.0000
  C   C65       1.0  0.06663  0.15472000000000005  0.71247  1.0000
  C   C66       1.0  0.15301  0.18740000000000004  0.72103  1.0000
  C   C67       1.0  0.23801  0.15378  0.6909700000000001  1.0000
  C   C68       1.0  0.15733000000000003  0.2495700000000001  0.7601800000000001  1.0000
  C   C69       1.0  0.24558  0.28961  0.77779  1.0000
  C   C70       1.0  0.07278  0.27606  0.78704  1.0000
  C   C71       1.0  0.9902000000000002  0.24022000000000002  0.77628  1.0000
  C   C72       1.0  0.41004000000000007  0.4926900000000001  0.88628  1.0000
  C   C73       1.0  0.4546  0.5218  0.9373500000000001  1.0000
  C   C74       1.0  0.47414  0.48594  0.97334  1.0000
  C   C75       1.0  0.44271  0.4221400000000001  0.9563600000000001  1.0000
  C   C76       1.0  0.3986100000000001  0.39627000000000007  0.90466  1.0000
  C   C77       1.0  0.09319  0.21456000000000006  0.11080000000000001  1.0000
  C   C78       1.0  0.05895000000000001  0.2558  0.08354  1.0000
  C   C79       1.0  0.01379  0.23102000000000011  0.031090000000000003  1.0000
  C   C80       1.0  0.9752800000000001  0.27434000000000003  0.00153  1.0000
  C   C81       1.0  0.98054  0.34160000000000007  0.02542  1.0000
  C   C82       1.0  0.94749  0.38046000000000013  0.9953300000000003  1.0000
  C   C83       1.0  0.8973  0.29224  0.92185  1.0000
  C   C84       1.0  0.9315200000000002  0.2503500000000001  0.94858  1.0000
  C   C85       1.0  0.00662  0.16383000000000003  0.00845  1.0000
  C   C86       1.0  0.04031  0.12528  0.03867000000000001  1.0000
  C   C87       1.0  0.32951  0.44967000000000007  0.31747  1.0000
  C   C88       1.0  0.41340000000000005  0.4835500000000001  0.31752  1.0000
  C   C89       1.0  0.49987  0.46881  0.34556000000000003  1.0000
  C   C90       1.0  0.41622  0.5262099999999998  0.28606  1.0000
  C   C91       1.0  0.50202  0.56692  0.28495  1.0000
  C   C92       1.0  0.33465  0.53179  0.25611  1.0000
  C   C93       1.0  0.25492  0.49504000000000004  0.25731  1.0000
  C   C94       1.0  0.92471  0.35459  0.31252  1.0000
  C   C95       1.0  0.8395200000000003  0.32122  0.31036  1.0000
  C   C96       1.0  0.75403  0.35697000000000007  0.33830000000000005  1.0000
  C   C97       1.0  0.83747  0.25505  0.28027  1.0000
  C   C98       1.0  0.7509600000000002  0.21239  0.26943  1.0000
  C   C99       1.0  0.92311  0.22611000000000003  0.25706  1.0000
  C   C100      1.0  0.00457  0.26289000000000007  0.26164  1.0000
  C   C101      1.0  0.80976  0.05644000000000001  0.19105000000000003  1.0000
  C   C102      1.0  0.8944500000000001  0.02194  0.18674  1.0000
  C   C103      1.0  0.96864  0.031889999999999995  0.1471  1.0000
  C   C104      1.0  0.90957  0.9867700000000003  0.22393  1.0000
  C   C105      1.0  0.99895  0.94902  0.22445  1.0000
  C   C106      1.0  0.8365100000000002  0.98597  0.26166  1.0000
  C   C107      1.0  0.75413  0.021090000000000025  0.26297  1.0000
  C   C108      1.0  0.43345  0.1545  0.21323  1.0000
  C   C109      1.0  0.34678  0.18705000000000002  0.22152000000000002  1.0000
  C   C110      1.0  0.26203  0.15302  0.19182  1.0000
  C   C111      1.0  0.34132  0.24949000000000002  0.26021  1.0000
  C   C112      1.0  0.25165  0.28873  0.2765  1.0000
  C   C113      1.0  0.42551  0.27631  0.28718  1.0000
  C   C114      1.0  0.50849  0.24056  0.27692  1.0000
  C   C115      1.0  0.09035  0.4923500000000001  0.38616000000000006  1.0000
  C   C116      1.0  0.0457  0.5216100000000001  0.43726  1.0000
  C   C117      1.0  0.02599  0.48588000000000003  0.47334  1.0000
  C   C118      1.0  0.057550000000000004  0.42203  0.45638  1.0000
  C   C119      1.0  0.10162  0.3959800000000001  0.40461  1.0000
  C   C120      1.0  0.40634  0.21551000000000006  0.61034  1.0000
  C   C121      1.0  0.44136  0.25677  0.58335  1.0000
  C   C122      1.0  0.4866  0.23187  0.53089  1.0000
  C   C123      1.0  0.52503  0.27511  0.50137  1.0000
  C   C124      1.0  0.51902  0.34233  0.52525  1.0000
  C   C125      1.0  0.55154  0.38121000000000005  0.49512000000000006  1.0000
  C   C126      1.0  0.60265  0.29298  0.42164000000000007  1.0000
  C   C127      1.0  0.56898  0.25106000000000006  0.44844  1.0000
  C   C128      1.0  0.4936100000000001  0.16468000000000002  0.50798  1.0000
  C   C129      1.0  0.45933  0.12618999999999997  0.53802  1.0000
  C   C130      1.0  0.82956  0.55134  0.18220000000000006  1.0000
  C   C131      1.0  0.9136200000000002  0.51724  0.18155  1.0000
  C   C132      1.0  0.99954  0.53221  0.15326  1.0000
  C   C133      1.0  0.91703  0.47428  0.21273  1.0000
  C   C134      1.0  0.0026300000000000004  0.43317000000000005  0.21361  1.0000
  C   C135      1.0  0.8357700000000001  0.4684  0.24280000000000002  1.0000
  C   C136      1.0  0.7556800000000001  0.50508  0.24202  1.0000
  C   C137      1.0  0.42504  0.64632  0.18758  1.0000
  C   C138      1.0  0.33949  0.67969  0.19079000000000002  1.0000
  C   C139      1.0  0.25413  0.64411  0.16264  1.0000
  C   C140      1.0  0.33741  0.74561  0.22178000000000003  1.0000
  C   C141      1.0  0.25086  0.78839  0.23314  1.0000
  C   C142      1.0  0.42305  0.77422  0.24516  1.0000
  C   C143      1.0  0.50484  0.7374  0.23955  1.0000
  C   C144      1.0  0.31174  0.94267  0.3099  1.0000
  C   C145      1.0  0.39655  0.97698  0.31403  1.0000
  C   C146      1.0  0.47056  0.9657100000000002  0.35302  1.0000
  C   C147      1.0  0.41073  0.013150000000000002  0.27757  1.0000
  C   C148      1.0  0.49954  0.05097  0.27595  1.0000
  C   C149      1.0  0.33686  0.014670000000000004  0.24053  1.0000
  C   C150      1.0  0.25444  0.9798800000000001  0.23952000000000004  1.0000
  C   C151      1.0  0.93338  0.84528  0.28755  1.0000
  C   C152      1.0  0.847  0.8126  0.27898  1.0000
  C   C153      1.0  0.762  0.84622  0.30903  1.0000
  C   C154      1.0  0.84268  0.75043  0.23983  1.0000
  C   C155      1.0  0.7544300000000002  0.71039  0.22221000000000005  1.0000
  C   C156      1.0  0.92723  0.72395  0.21296  1.0000
  C   C157      1.0  0.009810000000000001  0.7597800000000001  0.22374  1.0000
  C   C158      1.0  0.58996  0.50731  0.11372  1.0000
  C   C159      1.0  0.5454  0.47820000000000007  0.06266  1.0000
  C   C160      1.0  0.52586  0.51406  0.026660000000000007  1.0000
  C   C161      1.0  0.55729  0.57786  0.04364  1.0000
  C   C162      1.0  0.60139  0.60373  0.09534  1.0000
  C   C163      1.0  0.90681  0.78545  0.8892000000000001  1.0000
  C   C164      1.0  0.94105  0.7442  0.9164600000000003  1.0000
  C   C165      1.0  0.9862200000000001  0.76898  0.96891  1.0000
  C   C166      1.0  0.02472  0.7256600000000001  0.9984700000000001  1.0000
  C   C167      1.0  0.01947  0.65841  0.97458  1.0000
  C   C168      1.0  0.05252  0.6195500000000002  0.00467  1.0000
  C   C169      1.0  0.10270000000000003  0.7077700000000001  0.07816  1.0000
  C   C170      1.0  0.06848  0.74966  0.05142  1.0000
  C   C171      1.0  0.99338  0.83618  0.99155  1.0000
  C   C172      1.0  0.95969  0.8747300000000001  0.96133  1.0000
  N   N1        1.0  0.74778  0.5457900000000001  0.7124600000000001  1.0000
  N   N2        1.0  0.99485  0.6731200000000002  0.71244  1.0000
  N   N3        1.0  0.25816  0.94252  0.7708000000000003  1.0000
  N   N4        1.0  0.48747  0.8203400000000002  0.7584800000000002  1.0000
  N   N5        1.0  0.8837500000000001  0.56979  0.63055  1.0000
  N   N6        1.0  0.584  0.8489700000000002  0.41143  1.0000
  N   N7        1.0  0.40765  0.64267  0.55627  1.0000
  N   N8        1.0  0.24742  0.45365  0.7877700000000001  1.0000
  N   N9        1.0  0.49439  0.32631000000000004  0.78761  1.0000
  N   N10       1.0  0.75727  0.05715000000000002  0.72721  1.0000
  N   N11       1.0  0.98713  0.17952000000000007  0.74056  1.0000
  N   N12       1.0  0.38403  0.4306400000000001  0.86963  1.0000
  N   N13       1.0  0.08321000000000003  0.15008000000000002  0.08933000000000002  1.0000
  N   N14       1.0  0.90682  0.35661  0.94395  1.0000
  N   N15       1.0  0.25222  0.45421  0.28754  1.0000
  N   N16       1.0  0.005150000000000002  0.32687999999999995  0.28756  1.0000
  N   N17       1.0  0.74183  0.05748000000000003  0.22919000000000003  1.0000
  N   N18       1.0  0.51253  0.17967  0.24152  1.0000
  N   N19       1.0  0.11625  0.43021000000000004  0.36945000000000006  1.0000
  N   N20       1.0  0.41600000000000004  0.15103000000000005  0.58857  1.0000
  N   N21       1.0  0.59235  0.35734  0.44373  1.0000
  N   N22       1.0  0.75258  0.5463400000000002  0.21222  1.0000
  N   N23       1.0  0.50563  0.67368  0.21238  1.0000
  N   N24       1.0  0.24273  0.9428600000000001  0.27281  1.0000
  N   N25       1.0  0.012880000000000003  0.82048  0.25946  1.0000
  N   N26       1.0  0.61598  0.56936  0.13037  1.0000
  N   N27       1.0  0.91679  0.84992  0.91067  1.0000
  N   N28       1.0  0.09319  0.6434000000000001  0.056060000000000006  1.0000
  O   O1        1.0  0.51363  0.55531  0.61355  1.0000
  O   O2        1.0  0.41879  0.5243100000000002  0.67165  1.0000
  O   O3        1.0  0.47652  0.38824000000000003  0.67202  1.0000
  O   O4        1.0  0.45773  0.4482000000000001  0.76385  1.0000
  O   O5        1.0  0.23730000000000007  0.59024  0.621  1.0000
  O   O6        1.0  0.32836  0.66556  0.67801  1.0000
  O   O7        1.0  0.28604  0.80393  0.69055  1.0000
  O   O8        1.0  0.27554  0.80954  0.7812  1.0000
  O   O9        1.0  0.05168  0.9702000000000002  0.90157  1.0000
  O   O10       1.0  0.94852  0.95184  0.82836  1.0000
  O   O11       1.0  0.9668100000000001  0.08855  0.8204  1.0000
  O   O12       1.0  0.96737  0.044389999999999985  0.72635  1.0000
  O   O13       1.0  0.72844  0.8988900000000001  0.85017  1.0000
  O   O14       1.0  0.8202  0.82485  0.7916  1.0000
  O   O15       1.0  0.77913  0.70309  0.6751  1.0000
  O   O16       1.0  0.78082  0.68522  0.75926  1.0000
  O   O17       1.0  0.01427  0.44210000000000005  0.88649  1.0000
  O   O18       1.0  0.91867  0.47586000000000006  0.83066  1.0000
  O   O19       1.0  0.97642  0.6117800000000001  0.82947  1.0000
  O   O20       1.0  0.95726  0.55204  0.73762  1.0000
  O   O21       1.0  0.73688  0.40807  0.8788500000000001  1.0000
  O   O22       1.0  0.82835  0.3339  0.82038  1.0000
  O   O23       1.0  0.78579  0.19427000000000003  0.8066000000000001  1.0000
  O   O24       1.0  0.77586  0.1904900000000001  0.7163300000000002  1.0000
  O   O25       1.0  0.55199  0.03829  0.60032  1.0000
  O   O26       1.0  0.44418  0.045230000000000006  0.66923  1.0000
  O   O27       1.0  0.46691  0.9091300000000001  0.68002  1.0000
  O   O28       1.0  0.46701  0.9575200000000003  0.77349  1.0000
  O   O29       1.0  0.22834000000000004  0.10295000000000006  0.6479400000000001  1.0000
  O   O30       1.0  0.32029  0.17501  0.70813  1.0000
  O   O31       1.0  0.27129  0.3000000000000001  0.8275000000000002  1.0000
  O   O32       1.0  0.28151  0.31405000000000016  0.7418500000000001  1.0000
  O   O33       1.0  0.48637  0.44469  0.38645  1.0000
  O   O34       1.0  0.58121  0.47569  0.32835  1.0000
  O   O35       1.0  0.52348  0.6117600000000001  0.32798  1.0000
  O   O36       1.0  0.54227  0.5518000000000001  0.23616000000000004  1.0000
  O   O37       1.0  0.7627  0.40976000000000007  0.37901  1.0000
  O   O38       1.0  0.6716400000000002  0.3344500000000001  0.32200000000000006  1.0000
  O   O39       1.0  0.71396  0.19608  0.30945  1.0000
  O   O40       1.0  0.72446  0.19046000000000005  0.2188  1.0000
  O   O41       1.0  0.94832  0.029820000000000006  0.09843000000000002  1.0000
  O   O42       1.0  0.05148  0.04817  0.17164  1.0000
  O   O43       1.0  0.03318  0.9114400000000001  0.17959  1.0000
  O   O44       1.0  0.03263  0.9556  0.27364  1.0000
  O   O45       1.0  0.27156  0.10111  0.14983  1.0000
  O   O46       1.0  0.17979  0.17516  0.2084  1.0000
  O   O47       1.0  0.22086  0.29691  0.3249  1.0000
  O   O48       1.0  0.21917  0.31478000000000006  0.24074000000000007  1.0000
  O   O49       1.0  0.9857300000000002  0.55791  0.11351  1.0000
  O   O50       1.0  0.08134000000000001  0.52414  0.16933  1.0000
  O   O51       1.0  0.02357  0.38823000000000013  0.17051  1.0000
  O   O52       1.0  0.04274  0.44795  0.26236  1.0000
  O   O53       1.0  0.26314  0.59195  0.12117000000000001  1.0000
  O   O54       1.0  0.17165  0.6661100000000001  0.17964000000000005  1.0000
  O   O55       1.0  0.21421  0.8056800000000001  0.19345  1.0000
  O   O56       1.0  0.22409  0.8095300000000002  0.28374  1.0000
  O   O57       1.0  0.44801  0.9617100000000001  0.39969000000000005  1.0000
  O   O58       1.0  0.55583  0.95478  0.33077  1.0000
  O   O59       1.0  0.5331  0.09087  0.31998  1.0000
  O   O60       1.0  0.53298  0.04248000000000001  0.22651  1.0000
  O   O61       1.0  0.77166  0.89706  0.35207  1.0000
  O   O62       1.0  0.67973  0.8249900000000001  0.29187  1.0000
  O   O63       1.0  0.72871  0.7000000000000001  0.17250000000000001  1.0000
  O   O64       1.0  0.7185  0.6859600000000001  0.25816  1.0000
