data_image0
_chemical_formula_structural       Mg8Zn8H96C144O64
_chemical_formula_sum              "Mg8 Zn8 H96 C144 O64"
_cell_length_a       13.43814
_cell_length_b       17.12658
_cell_length_c       21.294590000000003
_cell_angle_alpha    90.03588000000002
_cell_angle_beta     89.98653999999999
_cell_angle_gamma    89.98413999999998

_space_group_name_H-M_alt    "P 1"
_space_group_IT_number       1

loop_
  _space_group_symop_operation_xyz
  'x, y, z'

loop_
  _atom_site_type_symbol
  _atom_site_label
  _atom_site_symmetry_multiplicity
  _atom_site_fract_x
  _atom_site_fract_y
  _atom_site_fract_z
  _atom_site_occupancy
  Mg  Mg1       1.0  0.22142  0.52457  0.75952  1.0000
  Mg  Mg2       1.0  0.72108  0.47633  0.74053  1.0000
  Mg  Mg3       1.0  0.77924  0.024050000000000005  0.24078999999999998  1.0000
  Mg  Mg4       1.0  0.27883  0.9760200000000001  0.25951  1.0000
  Mg  Mg5       1.0  0.77966  0.47576000000000007  0.24107999999999996  1.0000
  Mg  Mg6       1.0  0.28006  0.5242100000000002  0.25965  1.0000
  Mg  Mg7       1.0  0.22023  0.97553  0.75909  1.0000
  Mg  Mg8       1.0  0.71969  0.024050000000000005  0.74031  1.0000
  Zn  Zn1       1.0  0.97874  0.49852  0.6746  1.0000
  Zn  Zn2       1.0  0.4781300000000001  0.50117  0.82539  1.0000
  Zn  Zn3       1.0  0.02233  0.99841  0.32507  1.0000
  Zn  Zn4       1.0  0.52187  0.0010900000000000005  0.17484  1.0000
  Zn  Zn5       1.0  0.022  0.5021000000000002  0.32534  1.0000
  Zn  Zn6       1.0  0.52173  0.4981300000000001  0.17536  1.0000
  Zn  Zn7       1.0  0.9780200000000002  0.0018800000000000002  0.67492  1.0000
  Zn  Zn8       1.0  0.4782700000000001  0.9982000000000001  0.82494  1.0000
  H   H1        1.0  0.36547  0.59676  0.62082  1.0000
  H   H2        1.0  0.51542  0.66341  0.56358  1.0000
  H   H3        1.0  0.53616  0.63873  0.4832699999999999  1.0000
  H   H4        1.0  0.54775  0.56685  0.54262  1.0000
  H   H5        1.0  0.39832  0.59422  0.41922  1.0000
  H   H6        1.0  0.11868  0.53229  0.50354  1.0000
  H   H7        1.0  0.75386  0.62468  0.84263  1.0000
  H   H8        1.0  0.6517000000000001  0.6911500000000003  0.91809  1.0000
  H   H9        1.0  0.17914000000000002  0.37575  0.85879  1.0000
  H   H10       1.0  0.32014  0.28402  0.91503  1.0000
  H   H11       1.0  0.8653600000000001  0.40726  0.8797  1.0000
  H   H12       1.0  0.029560000000000003  0.3934900000000001  0.92412  1.0000
  H   H13       1.0  0.05089  0.41782  0.00413  1.0000
  H   H14       1.0  0.01758  0.32101  0.98298  1.0000
  H   H15       1.0  0.89832  0.40472  0.08132  1.0000
  H   H16       1.0  0.6175  0.46574  0.99818  1.0000
  H   H17       1.0  0.25367  0.37517  0.65651  1.0000
  H   H18       1.0  0.14567  0.19112  0.58426  1.0000
  H   H19       1.0  0.6759200000000001  0.62328  0.64089  1.0000
  H   H20       1.0  0.76861  0.68965  0.56023  1.0000
  H   H21       1.0  0.63555  0.09682000000000003  0.37916999999999995  1.0000
  H   H22       1.0  0.4492800000000001  0.0674  0.48142999999999997  1.0000
  H   H23       1.0  0.4793600000000001  0.14058000000000007  0.4257  1.0000
  H   H24       1.0  0.47498  0.16349000000000002  0.50715  1.0000
  H   H25       1.0  0.60264  0.09485000000000003  0.58067  1.0000
  H   H26       1.0  0.88213  0.03187000000000001  0.49666999999999994  1.0000
  H   H27       1.0  0.24658  0.12471  0.15751  1.0000
  H   H28       1.0  0.3055900000000001  0.28088  0.05642  1.0000
  H   H29       1.0  0.82315  0.87563  0.13993  1.0000
  H   H30       1.0  0.78546  0.78041  0.03547  1.0000
  H   H31       1.0  0.13499  0.90719  0.12053999999999998  1.0000
  H   H32       1.0  0.95446  0.89148  0.98436  1.0000
  H   H33       1.0  0.96086  0.92057  0.06436  1.0000
  H   H34       1.0  0.9862800000000003  0.8225800000000002  0.04365  1.0000
  H   H35       1.0  0.10114000000000001  0.9052300000000001  0.9189600000000001  1.0000
  H   H36       1.0  0.38232000000000005  0.9658800000000001  0.00189  1.0000
  H   H37       1.0  0.74633  0.87514  0.34362  1.0000
  H   H38       1.0  0.84933  0.69135  0.41892999999999997  1.0000
  H   H39       1.0  0.3224700000000001  0.12346  0.35837  1.0000
  H   H40       1.0  0.22870000000000004  0.18983  0.43836  1.0000
  H   H41       1.0  0.6346  0.40616  0.37889  1.0000
  H   H42       1.0  0.48301  0.3214  0.4833  1.0000
  H   H43       1.0  0.4693300000000001  0.39376  0.4244899999999999  1.0000
  H   H44       1.0  0.45011  0.4181600000000001  0.50469  1.0000
  H   H45       1.0  0.6021300000000002  0.40634  0.58048  1.0000
  H   H46       1.0  0.88325  0.4648800000000001  0.49672999999999995  1.0000
  H   H47       1.0  0.24575000000000005  0.3759400000000001  0.15649  1.0000
  H   H48       1.0  0.35324000000000005  0.19082  0.08517  1.0000
  H   H49       1.0  0.8229800000000002  0.6244  0.14011  1.0000
  H   H50       1.0  0.7301000000000002  0.6913600000000002  0.06001  1.0000
  H   H51       1.0  0.13628  0.59547  0.12090000000000001  1.0000
  H   H52       1.0  0.96475  0.6387  0.9838500000000001  1.0000
  H   H53       1.0  0.9858900000000003  0.66338  0.0641  1.0000
  H   H54       1.0  0.95314  0.5668  0.04319  1.0000
  H   H55       1.0  0.10187  0.59501  0.91942  1.0000
  H   H56       1.0  0.38208  0.5318600000000001  0.00237  1.0000
  H   H57       1.0  0.74582  0.6239000000000002  0.34453  1.0000
  H   H58       1.0  0.9015  0.77668  0.38473  1.0000
  H   H59       1.0  0.32141  0.37456  0.35919  1.0000
  H   H60       1.0  0.18056  0.2821400000000001  0.41496  1.0000
  H   H61       1.0  0.36527  0.90609  0.62136  1.0000
  H   H62       1.0  0.53983  0.92061  0.56421  1.0000
  H   H63       1.0  0.54454  0.89203  0.48406  1.0000
  H   H64       1.0  0.51413  0.82276  0.54322  1.0000
  H   H65       1.0  0.39847000000000005  0.90675  0.41979  1.0000
  H   H66       1.0  0.11695000000000003  0.96481  0.50324  1.0000
  H   H67       1.0  0.7543500000000002  0.87591  0.8440299999999998  1.0000
  H   H68       1.0  0.59883  0.7765900000000002  0.88454  1.0000
  H   H69       1.0  0.17841000000000004  0.12457000000000001  0.85939  1.0000
  H   H70       1.0  0.27273  0.1916  0.93866  1.0000
  H   H71       1.0  0.86395  0.09564  0.87969  1.0000
  H   H72       1.0  0.01967  0.14057  0.9256  1.0000
  H   H73       1.0  0.02503  0.16362  0.00707  1.0000
  H   H74       1.0  0.050700000000000016  0.06745  0.9812899999999999  1.0000
  H   H75       1.0  0.8975  0.09572  0.08121  1.0000
  H   H76       1.0  0.61796  0.03167  0.99783  1.0000
  H   H77       1.0  0.25341  0.12391000000000002  0.65599  1.0000
  H   H78       1.0  0.19386000000000006  0.2813500000000001  0.55605  1.0000
  H   H79       1.0  0.6767800000000002  0.87443  0.63986  1.0000
  H   H80       1.0  0.71356  0.7789300000000002  0.53573  1.0000
  H   H81       1.0  0.9473900000000002  0.7509600000000002  0.71756  1.0000
  H   H82       1.0  0.44735  0.2491  0.7815499999999999  1.0000
  H   H83       1.0  0.052220000000000016  0.25077  0.28235  1.0000
  H   H84       1.0  0.55273  0.74908  0.21846  1.0000
  H   H85       1.0  0.9986700000000001  0.24994  0.72606  1.0000
  H   H86       1.0  0.4994  0.75021  0.77517  1.0000
  H   H87       1.0  0.00219  0.74995  0.27355  1.0000
  H   H88       1.0  0.50046  0.25002  0.22477000000000003  1.0000
  H   H89       1.0  0.69237  0.7854  0.94234  1.0000
  H   H90       1.0  0.10045000000000001  0.2813500000000001  0.61437  1.0000
  H   H91       1.0  0.39938000000000007  0.28104  0.11446000000000002  1.0000
  H   H92       1.0  0.8081700000000003  0.78571  0.44261  1.0000
  H   H93       1.0  0.21445  0.27911  0.96438  1.0000
  H   H94       1.0  0.81923  0.78045  0.58523  1.0000
  H   H95       1.0  0.6800600000000002  0.7823000000000001  0.08518  1.0000
  H   H96       1.0  0.28655  0.2775  0.46403999999999995  1.0000
  C   C1        1.0  0.17405  0.54974  0.62501  1.0000
  C   C2        1.0  0.23617000000000005  0.56397  0.56796  1.0000
  C   C3        1.0  0.33566  0.58743  0.57389  1.0000
  C   C4        1.0  0.39605000000000007  0.59748  0.52076  1.0000
  C   C5        1.0  0.50443  0.61816  0.52773  1.0000
  C   C6        1.0  0.35377  0.5859200000000002  0.46137  1.0000
  C   C7        1.0  0.25406  0.56287  0.45489  1.0000
  C   C8        1.0  0.21013  0.54865  0.39144  1.0000
  C   C9        1.0  0.19548000000000004  0.5511  0.50835  1.0000
  C   C10       1.0  0.88496  0.60521  0.7478  1.0000
  C   C11       1.0  0.8538  0.6801600000000001  0.7773  1.0000
  C   C12       1.0  0.78223  0.68023  0.82541  1.0000
  C   C13       1.0  0.0585  0.39562000000000014  0.7592000000000001  1.0000
  C   C14       1.0  0.08603  0.32054  0.78976  1.0000
  C   C15       1.0  0.15235000000000004  0.32018  0.84058  1.0000
  C   C16       1.0  0.67259  0.45153  0.8762199999999999  1.0000
  C   C17       1.0  0.73495  0.43646  0.93312  1.0000
  C   C18       1.0  0.8351200000000001  0.41455000000000003  0.92676  1.0000
  C   C19       1.0  0.89572  0.4036200000000001  0.97958  1.0000
  C   C20       1.0  0.00423  0.3830000000000001  0.97234  1.0000
  C   C21       1.0  0.85338  0.4132600000000001  0.03933  1.0000
  C   C22       1.0  0.7535  0.4355400000000001  0.04628  1.0000
  C   C23       1.0  0.7100100000000001  0.45019  0.10989  1.0000
  C   C24       1.0  0.69447  0.44756  0.99295  1.0000
  C   C25       1.0  0.38492000000000004  0.3949700000000001  0.75094  1.0000
  C   C26       1.0  0.3536500000000001  0.31987  0.72169  1.0000
  C   C27       1.0  0.28199  0.31962000000000007  0.67384  1.0000
  C   C28       1.0  0.5579  0.6045400000000002  0.74209  1.0000
  C   C29       1.0  0.58507  0.6792400000000002  0.711  1.0000
  C   C30       1.0  0.6503500000000001  0.6790100000000001  0.65945  1.0000
  C   C31       1.0  0.8275000000000001  0.0495  0.37519  1.0000
  C   C32       1.0  0.7651100000000002  0.06367  0.43212  1.0000
  C   C33       1.0  0.66548  0.08736000000000002  0.42605  1.0000
  C   C34       1.0  0.60504  0.09768  0.47902999999999996  1.0000
  C   C35       1.0  0.4966300000000001  0.11874000000000003  0.4728  1.0000
  C   C36       1.0  0.6471800000000001  0.08619  0.53854  1.0000
  C   C37       1.0  0.7466  0.06286  0.54512  1.0000
  C   C38       1.0  0.79012  0.0485  0.60862  1.0000
  C   C39       1.0  0.80541  0.05082000000000001  0.49172  1.0000
  C   C40       1.0  0.11504000000000003  0.10526  0.25213  1.0000
  C   C41       1.0  0.14604  0.1801  0.22257  1.0000
  C   C42       1.0  0.21790000000000007  0.18024  0.17466  1.0000
  C   C43       1.0  0.9438  0.89578  0.23955000000000004  1.0000
  C   C44       1.0  0.91603  0.8205500000000002  0.2092  1.0000
  C   C45       1.0  0.84963  0.82012  0.15842  1.0000
  C   C46       1.0  0.32738  0.95139  0.12388000000000002  1.0000
  C   C47       1.0  0.26498  0.9363800000000001  0.06699  1.0000
  C   C48       1.0  0.16498  0.9144900000000002  0.07341  1.0000
  C   C49       1.0  0.10411000000000002  0.90383  0.02057  1.0000
  C   C50       1.0  0.9956100000000002  0.8835000000000002  0.02838  1.0000
  C   C51       1.0  0.14624  0.9136200000000002  0.96088  1.0000
  C   C52       1.0  0.24626000000000006  0.9358400000000002  0.9538700000000001  1.0000
  C   C53       1.0  0.28976  0.95037  0.8902599999999999  1.0000
  C   C54       1.0  0.30535  0.94774  0.0071  1.0000
  C   C55       1.0  0.6152700000000001  0.8949600000000002  0.24909  1.0000
  C   C56       1.0  0.6464800000000003  0.81986  0.27834  1.0000
  C   C57       1.0  0.71805  0.8196  0.32625  1.0000
  C   C58       1.0  0.44178000000000006  0.10449  0.25777  1.0000
  C   C59       1.0  0.41417  0.17923000000000006  0.28867  1.0000
  C   C60       1.0  0.3484000000000001  0.17913000000000007  0.33996  1.0000
  C   C61       1.0  0.8277100000000001  0.45015  0.37526  1.0000
  C   C62       1.0  0.76531  0.43561  0.43207  1.0000
  C   C63       1.0  0.66505  0.41387  0.42586  1.0000
  C   C64       1.0  0.60454  0.40391000000000005  0.47883  1.0000
  C   C65       1.0  0.49595000000000006  0.38336  0.47241  1.0000
  C   C66       1.0  0.6471  0.4140800000000001  0.53841  1.0000
  C   C67       1.0  0.74721  0.4355400000000001  0.5451  1.0000
  C   C68       1.0  0.79109  0.4499800000000001  0.60852  1.0000
  C   C69       1.0  0.80615  0.4469800000000001  0.4917  1.0000
  C   C70       1.0  0.11342000000000003  0.39637  0.25054  1.0000
  C   C71       1.0  0.14514  0.32113000000000014  0.22167  1.0000
  C   C72       1.0  0.21732000000000004  0.32053  0.17404  1.0000
  C   C73       1.0  0.9419700000000002  0.60465  0.24064  1.0000
  C   C74       1.0  0.9150400000000001  0.67966  0.20979  1.0000
  C   C75       1.0  0.84903  0.67998  0.15867  1.0000
  C   C76       1.0  0.32816  0.5484100000000002  0.12401000000000001  1.0000
  C   C77       1.0  0.26533  0.5630000000000002  0.06733  1.0000
  C   C78       1.0  0.1658  0.58642  0.07383  1.0000
  C   C79       1.0  0.10494  0.59716  0.02101  1.0000
  C   C80       1.0  0.99659  0.6180400000000003  0.02827  1.0000
  C   C81       1.0  0.14671000000000003  0.5862200000000002  0.96137  1.0000
  C   C82       1.0  0.24629  0.56319  0.9543199999999998  1.0000
  C   C83       1.0  0.28966  0.54967  0.8906  1.0000
  C   C84       1.0  0.3053400000000001  0.5507100000000003  0.00748  1.0000
  C   C85       1.0  0.61323  0.6034500000000003  0.25073  1.0000
  C   C86       1.0  0.64513  0.6787700000000002  0.27929  1.0000
  C   C87       1.0  0.71741  0.6793  0.32699  1.0000
  C   C88       1.0  0.4415000000000001  0.3953  0.2597  1.0000
  C   C89       1.0  0.41407000000000005  0.31991  0.28958  1.0000
  C   C90       1.0  0.34809  0.3191600000000001  0.34057  1.0000
  C   C91       1.0  0.17214  0.95001  0.6248  1.0000
  C   C92       1.0  0.23483  0.9355400000000001  0.56803  1.0000
  C   C93       1.0  0.3349900000000001  0.91386  0.57435  1.0000
  C   C94       1.0  0.39580000000000004  0.90402  0.52136  1.0000
  C   C95       1.0  0.50438  0.8837800000000001  0.5284  1.0000
  C   C96       1.0  0.35346  0.9142800000000002  0.46184  1.0000
  C   C97       1.0  0.25326  0.9356800000000001  0.45502  1.0000
  C   C98       1.0  0.20968000000000003  0.94981  0.39149999999999996  1.0000
  C   C99       1.0  0.19410000000000005  0.947  0.50829  1.0000
  C   C100      1.0  0.88661  0.8965300000000003  0.75018  1.0000
  C   C101      1.0  0.85459  0.8211700000000002  0.7785399999999999  1.0000
  C   C102      1.0  0.78264  0.8205100000000002  0.8262800000000001  1.0000
  C   C103      1.0  0.05828  0.10467000000000003  0.7593000000000001  1.0000
  C   C104      1.0  0.08575  0.17972000000000005  0.78991  1.0000
  C   C105      1.0  0.15203  0.1801  0.8409199999999999  1.0000
  C   C106      1.0  0.67255  0.04821  0.87616  1.0000
  C   C107      1.0  0.7348400000000003  0.06295  0.93306  1.0000
  C   C108      1.0  0.83439  0.08661  0.92672  1.0000
  C   C109      1.0  0.8948900000000002  0.09762  0.97954  1.0000
  C   C110      1.0  0.003180000000000001  0.11878000000000002  0.97286  1.0000
  C   C111      1.0  0.85291  0.08664  0.03918  1.0000
  C   C112      1.0  0.75356  0.06329000000000001  0.04607  1.0000
  C   C113      1.0  0.71018  0.04953000000000001  0.10973  1.0000
  C   C114      1.0  0.69465  0.05068000000000002  0.99279  1.0000
  C   C115      1.0  0.38684  0.10338  0.74925  1.0000
  C   C116      1.0  0.35459  0.17876  0.72096  1.0000
  C   C117      1.0  0.28203  0.17931000000000005  0.67342  1.0000
  C   C118      1.0  0.55809  0.8954  0.74012  1.0000
  C   C119      1.0  0.58504  0.8199800000000003  0.70998  1.0000
  C   C120      1.0  0.65051  0.81909  0.65874  1.0000
  C   C121      1.0  0.8917600000000002  0.7507700000000003  0.75465  1.0000
  C   C122      1.0  0.74651  0.75014  0.8509900000000001  1.0000
  C   C123      1.0  0.6684500000000002  0.75044  0.9017900000000001  1.0000
  C   C124      1.0  0.39171  0.2492  0.74452  1.0000
  C   C125      1.0  0.24585000000000007  0.24946000000000002  0.64865  1.0000
  C   C126      1.0  0.16743  0.25042  0.59809  1.0000
  C   C127      1.0  0.10789000000000003  0.25067  0.24529  1.0000
  C   C128      1.0  0.25372  0.25018  0.14931  1.0000
  C   C129      1.0  0.3319800000000001  0.25036  0.09862999999999998  1.0000
  C   C130      1.0  0.6082  0.7492  0.25561  1.0000
  C   C131      1.0  0.7538100000000001  0.74946  0.35164  1.0000
  C   C132      1.0  0.83213  0.7504100000000002  0.40225  1.0000
  C   C133      1.0  0.18424  0.25011  0.86793  1.0000
  C   C134      1.0  0.25171  0.25085  0.92437  1.0000
  C   C135      1.0  0.05048  0.25005000000000005  0.76525  1.0000
  C   C136      1.0  0.6823000000000001  0.7487  0.63184  1.0000
  C   C137      1.0  0.74964  0.74903  0.57534  1.0000
  C   C138      1.0  0.5502  0.7498300000000002  0.73542  1.0000
  C   C139      1.0  0.81715  0.74995  0.13146  1.0000
  C   C140      1.0  0.7494400000000002  0.7506400000000002  0.07515  1.0000
  C   C141      1.0  0.95078  0.7500500000000001  0.23415000000000002  1.0000
  C   C142      1.0  0.31634  0.24886  0.36751  1.0000
  C   C143      1.0  0.24924000000000004  0.24919  0.42411  1.0000
  C   C144      1.0  0.44929  0.24973000000000004  0.26433  1.0000
  O   O1        1.0  0.09364000000000003  0.51147  0.61631  1.0000
  O   O2        1.0  0.20523000000000005  0.57462  0.67808  1.0000
  O   O3        1.0  0.12494000000000001  0.51577  0.39061  1.0000
  O   O4        1.0  0.26019  0.56878  0.34299  1.0000
  O   O5        1.0  0.96048  0.6052000000000002  0.71133  1.0000
  O   O6        1.0  0.8351600000000001  0.54322  0.759  1.0000
  O   O7        1.0  0.98985  0.39503  0.71762  1.0000
  O   O8        1.0  0.10516  0.4576500000000001  0.7746500000000001  1.0000
  O   O9        1.0  0.59067  0.48782000000000003  0.8853099999999999  1.0000
  O   O10       1.0  0.70518  0.4289  0.82284  1.0000
  O   O11       1.0  0.62551  0.48425  0.11079999999999998  1.0000
  O   O12       1.0  0.7598700000000002  0.42973  0.15831  1.0000
  O   O13       1.0  0.46058  0.39495000000000013  0.78724  1.0000
  O   O14       1.0  0.3349200000000001  0.45693  0.73967  1.0000
  O   O15       1.0  0.48964  0.60529  0.78392  1.0000
  O   O16       1.0  0.60446  0.54243  0.72678  1.0000
  O   O17       1.0  0.90855  0.011780000000000004  0.38372  1.0000
  O   O18       1.0  0.79546  0.07415  0.32228  1.0000
  O   O19       1.0  0.87532  0.0156  0.60949  1.0000
  O   O20       1.0  0.73979  0.06842  0.65701  1.0000
  O   O21       1.0  0.03963000000000001  0.10531  0.28864  1.0000
  O   O22       1.0  0.16498  0.04323000000000001  0.24103000000000002  1.0000
  O   O23       1.0  0.014430000000000002  0.8958  0.27979  1.0000
  O   O24       1.0  0.8952100000000002  0.9573300000000001  0.22531  1.0000
  O   O25       1.0  0.4092300000000001  0.9877100000000001  0.11485  1.0000
  O   O26       1.0  0.29472  0.92869  0.17719  1.0000
  O   O27       1.0  0.37428  0.9843900000000001  0.8893000000000001  1.0000
  O   O28       1.0  0.23999000000000006  0.9297400000000002  0.8418300000000001  1.0000
  O   O29       1.0  0.53953  0.8949  0.21284000000000003  1.0000
  O   O30       1.0  0.6652  0.9569100000000001  0.26034  1.0000
  O   O31       1.0  0.51027  0.10527  0.21611  1.0000
  O   O32       1.0  0.39542  0.042310000000000014  0.27311  1.0000
  O   O33       1.0  0.90837  0.48823000000000005  0.38394999999999996  1.0000
  O   O34       1.0  0.7959  0.4255400000000001  0.32228  1.0000
  O   O35       1.0  0.87736  0.48091  0.60918  1.0000
  O   O36       1.0  0.73979  0.43230000000000013  0.65703  1.0000
  O   O37       1.0  0.03566  0.3975  0.28511  1.0000
  O   O38       1.0  0.16555  0.45750000000000013  0.24094  1.0000
  O   O39       1.0  0.01047  0.6052600000000002  0.28231  1.0000
  O   O40       1.0  0.8949300000000002  0.54277  0.22536  1.0000
  O   O41       1.0  0.40985000000000005  0.51187  0.11485  1.0000
  O   O42       1.0  0.29586000000000007  0.5716300000000001  0.17733  1.0000
  O   O43       1.0  0.37403  0.51558  0.8893500000000001  1.0000
  O   O44       1.0  0.23999000000000006  0.571  0.84229  1.0000
  O   O45       1.0  0.53545  0.60227  0.21621  1.0000
  O   O46       1.0  0.6653  0.5423  0.26063  1.0000
  O   O47       1.0  0.50985  0.3949200000000001  0.21790999999999996  1.0000
  O   O48       1.0  0.3952500000000001  0.4571400000000001  0.27607  1.0000
  O   O49       1.0  0.09148000000000002  0.9881000000000001  0.61602  1.0000
  O   O50       1.0  0.20362  0.9253800000000002  0.67783  1.0000
  O   O51       1.0  0.12347  0.9807600000000001  0.39072  1.0000
  O   O52       1.0  0.26091  0.9317700000000002  0.343  1.0000
  O   O53       1.0  0.9653700000000002  0.89785  0.71662  1.0000
  O   O54       1.0  0.8340600000000002  0.95752  0.75917  1.0000
  O   O55       1.0  0.9897000000000002  0.10525000000000002  0.7177  1.0000
  O   O56       1.0  0.10515  0.04275  0.77468  1.0000
  O   O57       1.0  0.59048  0.012070000000000003  0.8850399999999999  1.0000
  O   O58       1.0  0.7053500000000003  0.07093  0.8229  1.0000
  O   O59       1.0  0.62576  0.015540000000000002  0.11074000000000002  1.0000
  O   O60       1.0  0.7598700000000002  0.07064  0.15812  1.0000
  O   O61       1.0  0.4651  0.10203  0.78333  1.0000
  O   O62       1.0  0.33445  0.04236  0.73957  1.0000
  O   O63       1.0  0.48991  0.89508  0.78202  1.0000
  O   O64       1.0  0.60465  0.95707  0.72391  1.0000
