data_image0
_chemical_formula_structural       K12H180C132O28
_chemical_formula_sum              "K12 H180 C132 O28"
_cell_length_a       13.90224
_cell_length_b       15.9353
_cell_length_c       20.98202
_cell_angle_alpha    90.07351000000001
_cell_angle_beta     105.3766
_cell_angle_gamma    89.87899

_space_group_name_H-M_alt    "P 1"
_space_group_IT_number       1

loop_
  _space_group_symop_operation_xyz
  'x, y, z'

loop_
  _atom_site_type_symbol
  _atom_site_label
  _atom_site_symmetry_multiplicity
  _atom_site_fract_x
  _atom_site_fract_y
  _atom_site_fract_z
  _atom_site_occupancy
  K   K1        1.0  0.008599999999999932  0.39884999999999987  0.8871299999999999  1.0000
  K   K2        1.0  0.05806  0.36687  0.10762999999999999  1.0000
  K   K3        1.0  0.21374  0.49584  0.026969999999999997  1.0000
  K   K4        1.0  0.99244  0.89816  0.6135699999999998  1.0000
  K   K5        1.0  0.9432799999999998  0.86732  0.39422  1.0000
  K   K6        1.0  0.7857299999999999  0.99425  0.47343999999999997  1.0000
  K   K7        1.0  0.9913999999999997  0.60115  0.11286999999999998  1.0000
  K   K8        1.0  0.9419399999999999  0.63313  0.89237  1.0000
  K   K9        1.0  0.7862599999999997  0.50417  0.97303  1.0000
  K   K10       1.0  0.0075599999999999765  0.10183999999999997  0.38644  1.0000
  K   K11       1.0  0.05671999999999995  0.13269  0.6057799999999999  1.0000
  K   K12       1.0  0.21426999999999988  0.00575  0.5265599999999999  1.0000
  H   H1        1.0  0.19488  0.06495  0.9619  1.0000
  H   H2        1.0  0.31625  0.10497  0.90046  1.0000
  H   H3        1.0  0.3530799999999999  0.25696  0.8878699999999999  1.0000
  H   H4        1.0  0.2679599999999999  0.36603999999999987  0.9373999999999999  1.0000
  H   H5        1.0  0.08981  0.21307  0.06086  1.0000
  H   H6        1.0  0.96488  0.13069  0.9333399999999998  1.0000
  H   H7        1.0  0.91971  0.16351  0.00103  1.0000
  H   H8        1.0  0.9636799999999999  0.23882999999999996  0.9531399999999999  1.0000
  H   H9        1.0  0.17361  0.07353  0.08657999999999998  1.0000
  H   H10       1.0  0.044299999999999985  0.06900999999999997  0.08197999999999998  1.0000
  H   H11       1.0  0.08819999999999999  0.02922  0.016249999999999997  1.0000
  H   H12       1.0  0.61524  0.38312  0.67969  1.0000
  H   H13       1.0  0.71149  0.43566  0.6044999999999999  1.0000
  H   H14       1.0  0.87007  0.51481  0.6513299999999999  1.0000
  H   H15       1.0  0.92947  0.53887  0.7719599999999999  1.0000
  H   H16       1.0  0.6566499999999998  0.44375  0.8512  1.0000
  H   H17       1.0  0.51523  0.34608  0.81941  1.0000
  H   H18       1.0  0.5086199999999999  0.4177999999999999  0.7535999999999998  1.0000
  H   H19       1.0  0.55083  0.3132999999999999  0.7484299999999999  1.0000
  H   H20       1.0  0.7249499999999999  0.2682  0.82073  1.0000
  H   H21       1.0  0.79521  0.3388699999999999  0.8805599999999998  1.0000
  H   H22       1.0  0.6829  0.29496  0.89118  1.0000
  H   H23       1.0  0.35263999999999995  0.6415299999999998  0.8113299999999998  1.0000
  H   H24       1.0  0.37162  0.7666  0.88377  1.0000
  H   H25       1.0  0.2673899999999999  0.78  0.9637199999999998  1.0000
  H   H26       1.0  0.14522999999999986  0.66904  0.9693699999999997  1.0000
  H   H27       1.0  0.1792999999999999  0.46316  0.82266  1.0000
  H   H28       1.0  0.31025999999999987  0.40613  0.77322  1.0000
  H   H29       1.0  0.36344  0.44484  0.85442  1.0000
  H   H30       1.0  0.37344  0.50348  0.7846099999999999  1.0000
  H   H31       1.0  0.0920699999999999  0.55462  0.7305799999999998  1.0000
  H   H32       1.0  0.15466  0.47312  0.69967  1.0000
  H   H33       1.0  0.20493999999999996  0.57626  0.7097199999999999  1.0000
  H   H34       1.0  0.87684  0.22007  0.71315  1.0000
  H   H35       1.0  0.84957  0.325  0.73337  1.0000
  H   H36       1.0  0.09367999999999997  0.20966999999999994  0.8546299999999999  1.0000
  H   H37       1.0  0.021879999999999962  0.15207  0.78515  1.0000
  H   H38       1.0  0.14926999999999999  0.30837  0.78011  1.0000
  H   H39       1.0  0.17576  0.20318999999999995  0.75994  1.0000
  H   H40       1.0  0.9316900000000001  0.31869  0.63845  1.0000
  H   H41       1.0  0.0030799999999999166  0.37726  0.7078099999999998  1.0000
  H   H42       1.0  0.44255  0.3650299999999999  0.02636  1.0000
  H   H43       1.0  0.5243799999999998  0.43474  0.08260999999999998  1.0000
  H   H44       1.0  0.4910699999999999  0.58637  0.06534  1.0000
  H   H45       1.0  0.38819  0.61624  0.99718  1.0000
  H   H46       1.0  0.80416  0.56482  0.5368299999999999  1.0000
  H   H47       1.0  0.68255  0.60468  0.59835  1.0000
  H   H48       1.0  0.6463499999999999  0.75688  0.6121899999999998  1.0000
  H   H49       1.0  0.73345  0.8660499999999998  0.56414  1.0000
  H   H50       1.0  0.91031  0.7130299999999998  0.4394  1.0000
  H   H51       1.0  0.035859999999999996  0.63008  0.56648  1.0000
  H   H52       1.0  0.08056999999999997  0.6627  0.4986899999999999  1.0000
  H   H53       1.0  0.037339999999999984  0.73828  0.54694  1.0000
  H   H54       1.0  0.8269699999999999  0.5734999999999998  0.41357  1.0000
  H   H55       1.0  0.9563799999999997  0.56894  0.41819999999999996  1.0000
  H   H56       1.0  0.91253  0.52924  0.48385  1.0000
  H   H57       1.0  0.38438999999999995  0.8827499999999998  0.8205699999999999  1.0000
  H   H58       1.0  0.28751  0.9353  0.89546  1.0000
  H   H59       1.0  0.12879999999999997  0.01466  0.8484999999999999  1.0000
  H   H60       1.0  0.07009999999999987  0.039129999999999984  0.7276799999999998  1.0000
  H   H61       1.0  0.34338  0.9434399999999997  0.64888  1.0000
  H   H62       1.0  0.48513999999999996  0.84564  0.6806199999999999  1.0000
  H   H63       1.0  0.49142999999999976  0.9173  0.74655  1.0000
  H   H64       1.0  0.44938999999999996  0.81286  0.7514499999999997  1.0000
  H   H65       1.0  0.27508999999999995  0.76818  0.6791499999999999  1.0000
  H   H66       1.0  0.20494999999999988  0.83899  0.6193199999999998  1.0000
  H   H67       1.0  0.31721  0.79465  0.60871  1.0000
  H   H68       1.0  0.6452899999999998  0.14102  0.6875999999999998  1.0000
  H   H69       1.0  0.62702  0.2661199999999999  0.61525  1.0000
  H   H70       1.0  0.73287  0.27927  0.53633  1.0000
  H   H71       1.0  0.8559699999999999  0.16846  0.5316099999999999  1.0000
  H   H72       1.0  0.8199099999999998  0.96271  0.67722  1.0000
  H   H73       1.0  0.68853  0.9067099999999998  0.72682  1.0000
  H   H74       1.0  0.6352399999999999  0.94573  0.6457099999999998  1.0000
  H   H75       1.0  0.6263999999999998  0.00471  0.71576  1.0000
  H   H76       1.0  0.9072999999999999  0.05366  0.76988  1.0000
  H   H77       1.0  0.84409  0.9723299999999998  0.80018  1.0000
  H   H78       1.0  0.7940399999999997  0.07568  0.79033  1.0000
  H   H79       1.0  0.11925999999999996  0.71953  0.7895499999999999  1.0000
  H   H80       1.0  0.14863  0.82419  0.77059  1.0000
  H   H81       1.0  0.9087  0.70972  0.64446  1.0000
  H   H82       1.0  0.97759  0.6521999999999998  0.71496  1.0000
  H   H83       1.0  0.84867  0.8088  0.7170399999999999  1.0000
  H   H84       1.0  0.82068  0.70377  0.73614  1.0000
  H   H85       1.0  0.06043999999999995  0.8183  0.86251  1.0000
  H   H86       1.0  0.9920599999999998  0.8773099999999998  0.79235  1.0000
  H   H87       1.0  0.55423  0.86306  0.47470999999999997  1.0000
  H   H88       1.0  0.47542  0.9344799999999998  0.41803999999999997  1.0000
  H   H89       1.0  0.5126099999999999  0.08419  0.4343799999999999  1.0000
  H   H90       1.0  0.615  0.11363  0.50297  1.0000
  H   H91       1.0  0.80512  0.9350599999999998  0.0381  1.0000
  H   H92       1.0  0.68375  0.89504  0.09953999999999999  1.0000
  H   H93       1.0  0.64692  0.74304  0.11212999999999998  1.0000
  H   H94       1.0  0.73204  0.63396  0.0626  1.0000
  H   H95       1.0  0.9101899999999998  0.78694  0.9391399999999999  1.0000
  H   H96       1.0  0.03512  0.8693199999999998  0.06666  1.0000
  H   H97       1.0  0.08028999999999996  0.83649  0.99898  1.0000
  H   H98       1.0  0.03631999999999999  0.76117  0.04686  1.0000
  H   H99       1.0  0.8263899999999997  0.92647  0.9134199999999998  1.0000
  H   H100      1.0  0.9557  0.93099  0.91802  1.0000
  H   H101      1.0  0.9118  0.97079  0.98375  1.0000
  H   H102      1.0  0.38476  0.61689  0.3203099999999999  1.0000
  H   H103      1.0  0.28851  0.56434  0.39550999999999986  1.0000
  H   H104      1.0  0.12992999999999993  0.4852  0.34866999999999987  1.0000
  H   H105      1.0  0.07052999999999998  0.46113  0.22803999999999996  1.0000
  H   H106      1.0  0.3433499999999999  0.55626  0.1488  1.0000
  H   H107      1.0  0.48477  0.65393  0.18058999999999997  1.0000
  H   H108      1.0  0.49138  0.5821999999999998  0.24640999999999996  1.0000
  H   H109      1.0  0.44917  0.6867  0.25157  1.0000
  H   H110      1.0  0.27504999999999996  0.7318  0.17926999999999996  1.0000
  H   H111      1.0  0.20478999999999994  0.66114  0.11943999999999999  1.0000
  H   H112      1.0  0.3171  0.7050399999999998  0.10881999999999999  1.0000
  H   H113      1.0  0.64736  0.3584799999999999  0.18868  1.0000
  H   H114      1.0  0.62838  0.2334  0.11623  1.0000
  H   H115      1.0  0.73261  0.22001  0.03627999999999999  1.0000
  H   H116      1.0  0.85477  0.33096  0.030629999999999998  1.0000
  H   H117      1.0  0.8207  0.53685  0.17734  1.0000
  H   H118      1.0  0.6897399999999998  0.59387  0.22677999999999998  1.0000
  H   H119      1.0  0.63656  0.55517  0.14559  1.0000
  H   H120      1.0  0.62656  0.49653  0.2154  1.0000
  H   H121      1.0  0.90793  0.44539  0.26943  1.0000
  H   H122      1.0  0.8453400000000001  0.52688  0.30033  1.0000
  H   H123      1.0  0.7950599999999998  0.42375  0.29028  1.0000
  H   H124      1.0  0.12315999999999998  0.77994  0.28685  1.0000
  H   H125      1.0  0.15043  0.675  0.26664  1.0000
  H   H126      1.0  0.90632  0.79033  0.14536999999999997  1.0000
  H   H127      1.0  0.9781199999999998  0.84794  0.21484999999999996  1.0000
  H   H128      1.0  0.85073  0.69164  0.21988999999999995  1.0000
  H   H129      1.0  0.82424  0.79681  0.24005999999999994  1.0000
  H   H130      1.0  0.06831000000000002  0.68132  0.36155  1.0000
  H   H131      1.0  0.9969199999999998  0.62275  0.29218999999999995  1.0000
  H   H132      1.0  0.5574499999999999  0.6349799999999998  0.9736499999999998  1.0000
  H   H133      1.0  0.47562000000000004  0.56527  0.91739  1.0000
  H   H134      1.0  0.5089299999999999  0.41363  0.9346599999999999  1.0000
  H   H135      1.0  0.6118099999999997  0.38376  0.00282  1.0000
  H   H136      1.0  0.19584  0.4351899999999999  0.46316999999999997  1.0000
  H   H137      1.0  0.31745  0.39533  0.4016499999999999  1.0000
  H   H138      1.0  0.35365  0.24312999999999996  0.38780999999999993  1.0000
  H   H139      1.0  0.2665499999999999  0.13395  0.4358599999999999  1.0000
  H   H140      1.0  0.08968999999999995  0.28697  0.5606099999999999  1.0000
  H   H141      1.0  0.96414  0.36993  0.43353  1.0000
  H   H142      1.0  0.91943  0.3372999999999999  0.50131  1.0000
  H   H143      1.0  0.96266  0.26173  0.45305999999999996  1.0000
  H   H144      1.0  0.17302999999999988  0.4265099999999999  0.5864299999999999  1.0000
  H   H145      1.0  0.043620000000000006  0.4310599999999999  0.5818  1.0000
  H   H146      1.0  0.08747  0.47076  0.51616  1.0000
  H   H147      1.0  0.61561  0.11725999999999998  0.17943  1.0000
  H   H148      1.0  0.71249  0.06471  0.10453999999999998  1.0000
  H   H149      1.0  0.8712  0.9853499999999997  0.1515  1.0000
  H   H150      1.0  0.9298999999999997  0.96088  0.27232  1.0000
  H   H151      1.0  0.65662  0.05657  0.3511199999999999  1.0000
  H   H152      1.0  0.51486  0.15436  0.31938  1.0000
  H   H153      1.0  0.50857  0.0827  0.25345  1.0000
  H   H154      1.0  0.55061  0.18714  0.24856  1.0000
  H   H155      1.0  0.72491  0.23181999999999994  0.32085  1.0000
  H   H156      1.0  0.79505  0.16101  0.38067999999999996  1.0000
  H   H157      1.0  0.68279  0.20536  0.39129  1.0000
  H   H158      1.0  0.35471  0.8589899999999998  0.31241  1.0000
  H   H159      1.0  0.37298  0.73389  0.38475  1.0000
  H   H160      1.0  0.26713  0.72074  0.46366999999999997  1.0000
  H   H161      1.0  0.14402999999999996  0.8315499999999998  0.46839999999999987  1.0000
  H   H162      1.0  0.18008999999999994  0.037299999999999986  0.32278999999999997  1.0000
  H   H163      1.0  0.31147  0.09329  0.27318  1.0000
  H   H164      1.0  0.3647599999999999  0.05427999999999999  0.3543  1.0000
  H   H165      1.0  0.3735999999999999  0.99529  0.28424  1.0000
  H   H166      1.0  0.0927  0.94634  0.23011999999999996  1.0000
  H   H167      1.0  0.15590999999999994  0.027669999999999993  0.19982  1.0000
  H   H168      1.0  0.20595999999999995  0.92432  0.20967  1.0000
  H   H169      1.0  0.88074  0.28048  0.21044999999999994  1.0000
  H   H170      1.0  0.85137  0.17581999999999995  0.22940999999999995  1.0000
  H   H171      1.0  0.09129999999999999  0.29029  0.35554  1.0000
  H   H172      1.0  0.02241  0.3478  0.28505  1.0000
  H   H173      1.0  0.15132999999999996  0.19121  0.28296  1.0000
  H   H174      1.0  0.17932  0.29623  0.26386  1.0000
  H   H175      1.0  0.93956  0.18170999999999995  0.13748999999999997  1.0000
  H   H176      1.0  0.007939999999999975  0.1227  0.20764999999999997  1.0000
  H   H177      1.0  0.44577  0.13695  0.52529  1.0000
  H   H178      1.0  0.52458  0.06553  0.5819599999999999  1.0000
  H   H179      1.0  0.48739  0.9158199999999997  0.56562  1.0000
  H   H180      1.0  0.385  0.88637  0.4970299999999999  1.0000
  C   C1        1.0  0.18223999999999993  0.27885  0.9796899999999997  1.0000
  C   C2        1.0  0.16082000000000002  0.19090999999999994  0.98543  1.0000
  C   C3        1.0  0.21079000000000006  0.13125999999999993  0.95731  1.0000
  C   C4        1.0  0.28028  0.15342  0.9224799999999999  1.0000
  C   C5        1.0  0.3002999999999999  0.23846  0.9154499999999998  1.0000
  C   C6        1.0  0.25239  0.29977  0.94317  1.0000
  C   C7        1.0  0.08291  0.16692999999999994  0.020879999999999996  1.0000
  C   C8        1.0  0.9766699999999999  0.17557  0.9744799999999999  1.0000
  C   C9        1.0  0.09847  0.07977  0.05306  1.0000
  C   C10       1.0  0.80517  0.47701  0.79628  1.0000
  C   C11       1.0  0.71519  0.43019  0.76855  1.0000
  C   C12       1.0  0.68381  0.41773  0.70033  1.0000
  C   C13       1.0  0.738  0.4473999999999999  0.6573199999999999  1.0000
  C   C14       1.0  0.82664  0.49123  0.68368  1.0000
  C   C15       1.0  0.85952  0.50555  0.75152  1.0000
  C   C16       1.0  0.6599399999999997  0.39369  0.8154499999999999  1.0000
  C   C17       1.0  0.55266  0.36652  0.78211  1.0000
  C   C18       1.0  0.71921  0.31957  0.85452  1.0000
  C   C19       1.0  0.17617  0.59115  0.89228  1.0000
  C   C20       1.0  0.2383599999999999  0.58353  0.8476299999999999  1.0000
  C   C21       1.0  0.30657  0.64707  0.84587  1.0000
  C   C22       1.0  0.31818  0.71815  0.88676  1.0000
  C   C23       1.0  0.2593499999999999  0.7257399999999999  0.9310899999999998  1.0000
  C   C24       1.0  0.19023000000000004  0.66343  0.9340799999999999  1.0000
  C   C25       1.0  0.22486999999999996  0.5072  0.80277  1.0000
  C   C26       1.0  0.3235899999999998  0.46314  0.8038399999999999  1.0000
  C   C27       1.0  0.1658599999999999  0.5289699999999998  0.7315899999999999  1.0000
  C   C28       1.0  0.90968  0.2808  0.73248  1.0000
  C   C29       1.0  0.05085999999999993  0.21462999999999993  0.80273  1.0000
  C   C30       1.0  0.11564999999999993  0.24782  0.76042  1.0000
  C   C31       1.0  0.97448  0.31447999999999987  0.69043  1.0000
  C   C32       1.0  0.48122999999999994  0.42565999999999987  0.03097  1.0000
  C   C33       1.0  0.44958  0.57128  0.01415  1.0000
  C   C34       1.0  0.8181599999999997  0.77873  0.5211399999999998  1.0000
  C   C35       1.0  0.8395  0.6908299999999998  0.5149  1.0000
  C   C36       1.0  0.78908  0.63115  0.54243  1.0000
  C   C37       1.0  0.7194  0.65326  0.57726  1.0000
  C   C38       1.0  0.69983  0.73836  0.5850399999999998  1.0000
  C   C39       1.0  0.74837  0.79967  0.55798  1.0000
  C   C40       1.0  0.91742  0.66688  0.47930999999999996  1.0000
  C   C41       1.0  0.023890000000000005  0.67509  0.52548  1.0000
  C   C42       1.0  0.90209  0.57975  0.44705999999999996  1.0000
  C   C43       1.0  0.19484999999999997  0.97712  0.70384  1.0000
  C   C44       1.0  0.2847800000000001  0.92998  0.73156  1.0000
  C   C45       1.0  0.3158099999999999  0.91743  0.79976  1.0000
  C   C46       1.0  0.26122999999999996  0.94717  0.8426699999999998  1.0000
  C   C47       1.0  0.17247  0.99113  0.8162  1.0000
  C   C48       1.0  0.13997999999999994  0.00563  0.7484199999999999  1.0000
  C   C49       1.0  0.3401799999999998  0.8934299999999997  0.6845999999999998  1.0000
  C   C50       1.0  0.4475399999999999  0.86611  0.7178999999999999  1.0000
  C   C51       1.0  0.2809099999999999  0.81945  0.64541  1.0000
  C   C52       1.0  0.8248199999999997  0.091  0.6087199999999998  1.0000
  C   C53       1.0  0.76131  0.08328  0.65253  1.0000
  C   C54       1.0  0.69217  0.14661  0.65358  1.0000
  C   C55       1.0  0.68089  0.21760999999999994  0.6127  1.0000
  C   C56       1.0  0.7406099999999998  0.2251  0.56894  1.0000
  C   C57       1.0  0.81052  0.16294  0.56661  1.0000
  C   C58       1.0  0.77448  0.00696  0.69724  1.0000
  C   C59       1.0  0.67556  0.96372  0.6962599999999999  1.0000
  C   C60       1.0  0.83337  0.02833  0.76851  1.0000
  C   C61       1.0  0.08758000000000002  0.78049  0.76979  1.0000
  C   C62       1.0  0.94911  0.71475  0.69685  1.0000
  C   C63       1.0  0.8813999999999999  0.74814  0.73722  1.0000
  C   C64       1.0  0.020020000000000013  0.8144  0.81001  1.0000
  C   C65       1.0  0.5175599999999999  0.9247  0.4698299999999999  1.0000
  C   C66       1.0  0.5527699999999999  0.06963999999999997  0.48596  1.0000
  C   C67       1.0  0.81776  0.7211499999999997  0.02031  1.0000
  C   C68       1.0  0.83918  0.8091  0.014569999999999996  1.0000
  C   C69       1.0  0.78921  0.86875  0.04268999999999999  1.0000
  C   C70       1.0  0.7197199999999999  0.84659  0.07752  1.0000
  C   C71       1.0  0.6997  0.7615499999999997  0.08455  1.0000
  C   C72       1.0  0.74761  0.70024  0.05682999999999999  1.0000
  C   C73       1.0  0.91709  0.83307  0.97912  1.0000
  C   C74       1.0  0.023329999999999993  0.82443  0.025519999999999998  1.0000
  C   C75       1.0  0.90153  0.92023  0.9469399999999999  1.0000
  C   C76       1.0  0.19483  0.52299  0.20373  1.0000
  C   C77       1.0  0.28481  0.56982  0.23144999999999996  1.0000
  C   C78       1.0  0.31619  0.58228  0.29967  1.0000
  C   C79       1.0  0.2619999999999999  0.5526099999999998  0.3426799999999999  1.0000
  C   C80       1.0  0.17336  0.50878  0.31631999999999993  1.0000
  C   C81       1.0  0.14047999999999997  0.4944499999999999  0.24848999999999996  1.0000
  C   C82       1.0  0.3400599999999999  0.60632  0.18454999999999996  1.0000
  C   C83       1.0  0.44734  0.63349  0.21788999999999997  1.0000
  C   C84       1.0  0.28079  0.68043  0.14548999999999998  1.0000
  C   C85       1.0  0.8238299999999997  0.40885  0.10771999999999998  1.0000
  C   C86       1.0  0.76164  0.41648  0.15236999999999995  1.0000
  C   C87       1.0  0.69343  0.35294  0.15412999999999996  1.0000
  C   C88       1.0  0.68182  0.28185  0.11324999999999998  1.0000
  C   C89       1.0  0.74065  0.27427  0.06890999999999999  1.0000
  C   C90       1.0  0.80977  0.33657  0.06592  1.0000
  C   C91       1.0  0.77513  0.4928099999999999  0.19722999999999993  1.0000
  C   C92       1.0  0.67641  0.53687  0.19617  1.0000
  C   C93       1.0  0.83414  0.4710399999999999  0.26842  1.0000
  C   C94       1.0  0.09031999999999998  0.71921  0.26752  1.0000
  C   C95       1.0  0.9491399999999999  0.7853799999999997  0.19726999999999997  1.0000
  C   C96       1.0  0.8843499999999999  0.7521799999999997  0.23958  1.0000
  C   C97       1.0  0.02551999999999999  0.6855299999999998  0.30958  1.0000
  C   C98       1.0  0.51877  0.5743499999999998  0.96903  1.0000
  C   C99       1.0  0.55042  0.42872  0.98585  1.0000
  C   C100      1.0  0.18184  0.22127  0.47885999999999995  1.0000
  C   C101      1.0  0.1605  0.30918  0.4850999999999999  1.0000
  C   C102      1.0  0.21092  0.36885  0.45757  1.0000
  C   C103      1.0  0.2806  0.34675  0.42274999999999996  1.0000
  C   C104      1.0  0.30017  0.26165  0.41496  1.0000
  C   C105      1.0  0.25162999999999996  0.20033999999999993  0.4420199999999999  1.0000
  C   C106      1.0  0.08258  0.33313  0.52069  1.0000
  C   C107      1.0  0.9761099999999998  0.32491  0.47451999999999994  1.0000
  C   C108      1.0  0.09791  0.4202599999999999  0.55294  1.0000
  C   C109      1.0  0.8051499999999998  0.022889999999999994  0.2961599999999999  1.0000
  C   C110      1.0  0.7152199999999999  0.07002  0.26843999999999996  1.0000
  C   C111      1.0  0.68419  0.08258  0.20024  1.0000
  C   C112      1.0  0.73877  0.05283  0.15733999999999998  1.0000
  C   C113      1.0  0.82753  0.008879999999999997  0.18379999999999996  1.0000
  C   C114      1.0  0.86002  0.99437  0.25158  1.0000
  C   C115      1.0  0.65982  0.10656999999999997  0.3154  1.0000
  C   C116      1.0  0.5524600000000001  0.1339  0.2821  1.0000
  C   C117      1.0  0.7190899999999999  0.18056  0.35459  1.0000
  C   C118      1.0  0.17517999999999992  0.9089999999999998  0.39127999999999996  1.0000
  C   C119      1.0  0.23868999999999999  0.91672  0.34748  1.0000
  C   C120      1.0  0.3078299999999999  0.8534  0.34641999999999995  1.0000
  C   C121      1.0  0.3191099999999999  0.7824  0.3873  1.0000
  C   C122      1.0  0.25939  0.7748999999999998  0.43106  1.0000
  C   C123      1.0  0.18948  0.83707  0.4334  1.0000
  C   C124      1.0  0.22552  0.99304  0.30276  1.0000
  C   C125      1.0  0.32444  0.03629  0.30374  1.0000
  C   C126      1.0  0.16663  0.9716799999999999  0.23148999999999995  1.0000
  C   C127      1.0  0.9124200000000001  0.21950999999999996  0.23021  1.0000
  C   C128      1.0  0.050889999999999956  0.28525  0.3031499999999999  1.0000
  C   C129      1.0  0.11859999999999994  0.25186  0.2627799999999999  1.0000
  C   C130      1.0  0.97998  0.1856  0.18998999999999994  1.0000
  C   C131      1.0  0.48244  0.0753  0.53017  1.0000
  C   C132      1.0  0.44723  0.93037  0.51404  1.0000
  O   O1        1.0  0.13907  0.33754  0.0064  1.0000
  O   O2        1.0  0.8374  0.49174  0.86006  1.0000
  O   O3        1.0  0.10969999999999994  0.5339499999999998  0.89515  1.0000
  O   O4        1.0  0.9681999999999997  0.27049  0.80025  1.0000
  O   O5        1.0  0.05775999999999991  0.25871  0.6926799999999997  1.0000
  O   O6        1.0  0.40462  0.4893099999999999  0.012679999999999997  1.0000
  O   O7        1.0  0.98505  0.46119  0.0024799999999999996  1.0000
  O   O8        1.0  0.86118  0.83747  0.49463999999999997  1.0000
  O   O9        1.0  0.16318000000000002  0.99228  0.64016  1.0000
  O   O10       1.0  0.8923  0.03425  0.60667  1.0000
  O   O11       1.0  0.03226000000000001  0.7705  0.70131  1.0000
  O   O12       1.0  0.9361299999999998  0.75888  0.80567  1.0000
  O   O13       1.0  0.59584  0.9866699999999998  0.4888  1.0000
  O   O14       1.0  0.019439999999999964  0.96197  0.5017499999999999  1.0000
  O   O15       1.0  0.8609299999999999  0.66247  0.9936099999999999  1.0000
  O   O16       1.0  0.1626  0.50826  0.13993999999999998  1.0000
  O   O17       1.0  0.8902999999999998  0.46605  0.10484999999999998  1.0000
  O   O18       1.0  0.0318  0.72951  0.19974999999999998  1.0000
  O   O19       1.0  0.94224  0.7413  0.30732  1.0000
  O   O20       1.0  0.59538  0.51069  0.9873199999999999  1.0000
  O   O21       1.0  0.014949999999999925  0.53881  0.9975199999999997  1.0000
  O   O22       1.0  0.13882  0.16253  0.50537  1.0000
  O   O23       1.0  0.83682  0.00773  0.35984  1.0000
  O   O24       1.0  0.10769999999999995  0.96576  0.39334  1.0000
  O   O25       1.0  0.96774  0.2295  0.29869  1.0000
  O   O26       1.0  0.06386999999999995  0.24112  0.19432999999999995  1.0000
  O   O27       1.0  0.40415999999999996  0.01334  0.5111999999999999  1.0000
  O   O28       1.0  0.98056  0.03804  0.49824999999999997  1.0000
