data_image0
_chemical_formula_structural       Cu12H120C168N24O48
_chemical_formula_sum              "Cu12 H120 C168 N24 O48"
_cell_length_a       18.91652
_cell_length_b       18.915679999999995
_cell_length_c       25.794179999999997
_cell_angle_alpha    68.57570999999999
_cell_angle_beta     68.56969
_cell_angle_gamma    59.9804

_symmetry_space_group_name_H-M    'P 1'
_symmetry_Int_Tables_number       1

loop_
  _symmetry_equiv_pos_as_xyz
  'x,y,z'

loop_
  _atom_site_type_symbol
  _atom_site_label
  _atom_site_symmetry_multiplicity
  _atom_site_fract_x
  _atom_site_fract_y
  _atom_site_fract_z
  _atom_site_occupancy
  Cu  Cu1       1.0  0.7271000000000001  0.30931  0.20493  1.0000
  Cu  Cu2       1.0  0.7582500000000001  0.72705  0.20489  1.0000
  Cu  Cu3       1.0  0.30992000000000014  0.75789  0.20487  1.0000
  Cu  Cu4       1.0  0.7421100000000002  0.19009000000000006  0.29512999999999995  1.0000
  Cu  Cu5       1.0  0.19071  0.77288  0.29507  1.0000
  Cu  Cu6       1.0  0.7729700000000002  0.7417699999999998  0.2951  1.0000
  Cu  Cu7       1.0  0.27289  0.69068  0.79507  1.0000
  Cu  Cu8       1.0  0.24174000000000018  0.27294999999999997  0.79511  1.0000
  Cu  Cu9       1.0  0.6900800000000002  0.24211000000000005  0.7951299999999999  1.0000
  Cu  Cu10      1.0  0.2578900000000002  0.80991  0.70487  1.0000
  Cu  Cu11      1.0  0.8092800000000001  0.22711999999999996  0.70493  1.0000
  Cu  Cu12      1.0  0.22701999999999986  0.2582300000000001  0.7048999999999999  1.0000
  H   H1        1.0  0.48322000000000004  0.49676999999999993  0.25558  1.0000
  H   H2        1.0  0.26283000000000006  0.51936  0.39112  1.0000
  H   H3        1.0  0.47914000000000007  0.27957  0.38881  1.0000
  H   H4        1.0  0.2637300000000001  0.40112  0.46549  1.0000
  H   H5        1.0  0.4027  0.24393  0.48635  1.0000
  H   H6        1.0  0.35530000000000017  0.23839  0.44078  1.0000
  H   H7        1.0  0.33414999999999995  0.25226000000000004  0.58485  1.0000
  H   H8        1.0  0.19569000000000014  0.27255  0.47505  1.0000
  H   H9        1.0  0.08216000000000007  0.26196  0.56287  1.0000
  H   H10       1.0  0.10097000000000002  0.25023  0.65769  1.0000
  H   H11       1.0  0.7642000000000001  0.4829799999999998  0.25546  1.0000
  H   H12       1.0  0.8266400000000002  0.26307  0.39120999999999995  1.0000
  H   H13       1.0  0.85215  0.47956  0.38876  1.0000
  H   H14       1.0  0.8703500000000001  0.26367999999999997  0.46504  1.0000
  H   H15       1.0  0.8676300000000002  0.40264000000000005  0.48671  1.0000
  H   H16       1.0  0.9657300000000002  0.35483  0.4410499999999999  1.0000
  H   H17       1.0  0.8287999999999999  0.33414  0.58506  1.0000
  H   H18       1.0  0.05694  0.19555  0.4756  1.0000
  H   H19       1.0  0.09301999999999998  0.08182000000000003  0.56347  1.0000
  H   H20       1.0  0.9907  0.10047999999999997  0.6581  1.0000
  H   H21       1.0  0.4971399999999999  0.76418  0.25551  1.0000
  H   H22       1.0  0.5193399999999999  0.8270100000000001  0.39118  1.0000
  H   H23       1.0  0.28002  0.85188  0.38885  1.0000
  H   H24       1.0  0.4010700000000001  0.8698799999999998  0.46564999999999995  1.0000
  H   H25       1.0  0.24417000000000003  0.86697  0.48632999999999993  1.0000
  H   H26       1.0  0.2383400000000001  0.96551  0.44103  1.0000
  H   H27       1.0  0.25145  0.8291  0.585  1.0000
  H   H28       1.0  0.2723800000000001  0.05654000000000002  0.47577999999999987  1.0000
  H   H29       1.0  0.2615000000000001  0.09272999999999998  0.56397  1.0000
  H   H30       1.0  0.24978000000000006  0.99085  0.6585  1.0000
  H   H31       1.0  0.73579  0.0028800000000000006  0.24447  1.0000
  H   H32       1.0  0.6729600000000001  0.98069  0.10881  1.0000
  H   H33       1.0  0.64812  0.2200199999999999  0.11119  1.0000
  H   H34       1.0  0.63008  0.09893  0.03438  1.0000
  H   H35       1.0  0.6329799999999999  0.2559  0.01364  1.0000
  H   H36       1.0  0.5344700000000001  0.26165  0.05897  1.0000
  H   H37       1.0  0.67086  0.24862000000000004  0.9149599999999999  1.0000
  H   H38       1.0  0.44343  0.22765  0.02421  1.0000
  H   H39       1.0  0.40724000000000016  0.23851000000000008  0.9360499999999998  1.0000
  H   H40       1.0  0.5091300000000002  0.25022000000000005  0.8414899999999998  1.0000
  H   H41       1.0  0.0032100000000000123  0.01680000000000001  0.24447  1.0000
  H   H42       1.0  0.9806000000000002  0.23714999999999997  0.10892  1.0000
  H   H43       1.0  0.22040000000000007  0.020870000000000003  0.11117999999999999  1.0000
  H   H44       1.0  0.09883000000000004  0.23624999999999996  0.03455  1.0000
  H   H45       1.0  0.25606  0.09732  0.013649999999999999  1.0000
  H   H46       1.0  0.26160000000000005  0.14472  0.05920999999999999  1.0000
  H   H47       1.0  0.24776000000000012  0.16580000000000003  0.9151599999999999  1.0000
  H   H48       1.0  0.22743000000000002  0.30432  0.024939999999999997  1.0000
  H   H49       1.0  0.23803000000000016  0.41781  0.9371299999999999  1.0000
  H   H50       1.0  0.24978000000000006  0.3989799999999999  0.84231  1.0000
  H   H51       1.0  0.017050000000000044  0.73584  0.24453  1.0000
  H   H52       1.0  0.23698000000000002  0.67328  0.10877  1.0000
  H   H53       1.0  0.020459999999999978  0.6479  0.11121999999999999  1.0000
  H   H54       1.0  0.23635000000000003  0.62958  0.03492  1.0000
  H   H55       1.0  0.09730000000000014  0.6323799999999998  0.01333  1.0000
  H   H56       1.0  0.14513  0.53429  0.05897999999999999  1.0000
  H   H57       1.0  0.16587000000000002  0.67121  0.91495  1.0000
  H   H58       1.0  0.30441  0.4431  0.024419999999999994  1.0000
  H   H59       1.0  0.4181900000000003  0.40698999999999996  0.93652  1.0000
  H   H60       1.0  0.39955  0.50925  0.84191  1.0000
  H   H61       1.0  0.5167800000000001  0.5032299999999998  0.74442  1.0000
  H   H62       1.0  0.7371700000000003  0.48064  0.60888  1.0000
  H   H63       1.0  0.52086  0.7204299999999999  0.61119  1.0000
  H   H64       1.0  0.7362700000000001  0.59888  0.53451  1.0000
  H   H65       1.0  0.5973  0.75607  0.51365  1.0000
  H   H66       1.0  0.6446900000000001  0.76161  0.55922  1.0000
  H   H67       1.0  0.6658499999999999  0.74774  0.41515  1.0000
  H   H68       1.0  0.8043  0.72745  0.52495  1.0000
  H   H69       1.0  0.91783  0.73804  0.43713  1.0000
  H   H70       1.0  0.8990299999999999  0.74977  0.34231  1.0000
  H   H71       1.0  0.2357900000000002  0.51702  0.74454  1.0000
  H   H72       1.0  0.17335000000000003  0.73692  0.60879  1.0000
  H   H73       1.0  0.14785000000000004  0.52044  0.61124  1.0000
  H   H74       1.0  0.12964000000000006  0.7363199999999998  0.53496  1.0000
  H   H75       1.0  0.1323699999999999  0.59736  0.51329  1.0000
  H   H76       1.0  0.03426999999999996  0.64517  0.55895  1.0000
  H   H77       1.0  0.1712  0.66586  0.4149399999999999  1.0000
  H   H78       1.0  0.9430600000000006  0.8044499999999999  0.5244  1.0000
  H   H79       1.0  0.9069800000000002  0.9181800000000001  0.43653  1.0000
  H   H80       1.0  0.009290000000000197  0.8995199999999997  0.3419  1.0000
  H   H81       1.0  0.5028499999999999  0.23580999999999994  0.74449  1.0000
  H   H82       1.0  0.48065  0.17298000000000002  0.60882  1.0000
  H   H83       1.0  0.7199700000000002  0.14812  0.61115  1.0000
  H   H84       1.0  0.5989300000000003  0.13011  0.53435  1.0000
  H   H85       1.0  0.7558200000000004  0.13302999999999998  0.51367  1.0000
  H   H86       1.0  0.76166  0.03448  0.55897  1.0000
  H   H87       1.0  0.74855  0.1709  0.415  1.0000
  H   H88       1.0  0.7276100000000003  0.94346  0.52422  1.0000
  H   H89       1.0  0.7385  0.9072600000000001  0.43603  1.0000
  H   H90       1.0  0.75021  0.00914  0.3415  1.0000
  H   H91       1.0  0.26419999999999993  0.99711  0.75553  1.0000
  H   H92       1.0  0.32703  0.019310000000000025  0.8911899999999999  1.0000
  H   H93       1.0  0.3518700000000001  0.77998  0.88882  1.0000
  H   H94       1.0  0.3699200000000001  0.9010699999999999  0.96562  1.0000
  H   H95       1.0  0.3670100000000003  0.7440899999999997  0.98636  1.0000
  H   H96       1.0  0.46553  0.7383400000000001  0.9410299999999998  1.0000
  H   H97       1.0  0.32913000000000003  0.75138  0.08504  1.0000
  H   H98       1.0  0.5565699999999999  0.77234  0.9757899999999999  1.0000
  H   H99       1.0  0.59276  0.76149  0.06395  1.0000
  H   H100      1.0  0.49086000000000013  0.74978  0.15851  1.0000
  H   H101      1.0  0.9967900000000001  0.9832  0.75553  1.0000
  H   H102      1.0  0.019390000000000105  0.7628399999999999  0.89108  1.0000
  H   H103      1.0  0.7796000000000001  0.97913  0.88882  1.0000
  H   H104      1.0  0.9011600000000002  0.7637400000000001  0.9654499999999998  1.0000
  H   H105      1.0  0.7439400000000004  0.9026799999999996  0.98635  1.0000
  H   H106      1.0  0.7384000000000001  0.8552800000000002  0.94079  1.0000
  H   H107      1.0  0.7522300000000003  0.8342  0.08484  1.0000
  H   H108      1.0  0.77256  0.69568  0.9750599999999998  1.0000
  H   H109      1.0  0.76196  0.58219  0.06287  1.0000
  H   H110      1.0  0.7502200000000001  0.60102  0.1577  1.0000
  H   H111      1.0  0.98295  0.26416000000000006  0.7554699999999999  1.0000
  H   H112      1.0  0.7630099999999999  0.32671  0.89123  1.0000
  H   H113      1.0  0.97954  0.35209  0.88878  1.0000
  H   H114      1.0  0.7636500000000003  0.3704200000000001  0.9650799999999999  1.0000
  H   H115      1.0  0.9027000000000004  0.36761000000000005  0.9866699999999998  1.0000
  H   H116      1.0  0.8548599999999998  0.46571000000000007  0.94102  1.0000
  H   H117      1.0  0.83413  0.32879  0.08505  1.0000
  H   H118      1.0  0.6955799999999999  0.5569  0.97558  1.0000
  H   H119      1.0  0.5818000000000001  0.59301  0.06348  1.0000
  H   H120      1.0  0.60045  0.49075  0.15809  1.0000
  C   C1        1.0  0.5778900000000001  0.33196  0.29297  1.0000
  C   C2        1.0  0.48912000000000005  0.38305000000000006  0.31978  1.0000
  C   C3        1.0  0.4503100000000001  0.46823  0.29472  1.0000
  C   C4        1.0  0.36873  0.51684  0.32128  1.0000
  C   C5        1.0  0.32647  0.48039  0.37172999999999995  1.0000
  C   C6        1.0  0.36439000000000016  0.3943199999999998  0.39663999999999994  1.0000
  C   C7        1.0  0.44669  0.3458  0.3704  1.0000
  C   C8        1.0  0.32566  0.60808  0.29522  1.0000
  C   C9        1.0  0.34398000000000006  0.27206  0.47207999999999994  1.0000
  C   C10       1.0  0.27511  0.26181  0.52291  1.0000
  C   C11       1.0  0.27970999999999996  0.25446  0.57762  1.0000
  C   C12       1.0  0.20246999999999998  0.26547  0.5171  1.0000
  C   C13       1.0  0.13887000000000005  0.26056000000000007  0.5656499999999999  1.0000
  C   C14       1.0  0.14909000000000003  0.25317  0.6186  1.0000
  C   C15       1.0  0.79691  0.57792  0.2929  1.0000
  C   C16       1.0  0.80782  0.4892  0.31969999999999993  1.0000
  C   C17       1.0  0.7864800000000003  0.45030999999999993  0.29466  1.0000
  C   C18       1.0  0.79285  0.36883  0.32126  1.0000
  C   C19       1.0  0.8212899999999999  0.32668  0.37174  1.0000
  C   C20       1.0  0.84443  0.36472000000000004  0.39668999999999993  1.0000
  C   C21       1.0  0.8368800000000002  0.44695000000000007  0.37038  1.0000
  C   C22       1.0  0.7704300000000001  0.32586  0.29525  1.0000
  C   C23       1.0  0.91199  0.34389  0.47236999999999996  1.0000
  C   C24       1.0  0.94017  0.27485  0.52324  1.0000
  C   C25       1.0  0.88817  0.27954999999999997  0.5779  1.0000
  C   C26       1.0  0.015040000000000027  0.20221000000000003  0.5175699999999999  1.0000
  C   C27       1.0  0.034880000000000015  0.13854000000000002  0.56617  1.0000
  C   C28       1.0  0.9789300000000001  0.14870999999999998  0.619  1.0000
  C   C29       1.0  0.3327800000000001  0.79622  0.2931  1.0000
  C   C30       1.0  0.3836  0.80755  0.31985  1.0000
  C   C31       1.0  0.46867  0.78645  0.29471  1.0000
  C   C32       1.0  0.5171900000000004  0.79301  0.32128  1.0000
  C   C33       1.0  0.4805499999999999  0.8215600000000001  0.37172  1.0000
  C   C34       1.0  0.39451  0.84469  0.39668  1.0000
  C   C35       1.0  0.3462  0.83675  0.37047  1.0000
  C   C36       1.0  0.6084599999999999  0.77059  0.29524  1.0000
  C   C37       1.0  0.2720700000000001  0.9119000000000002  0.47226999999999997  1.0000
  C   C38       1.0  0.2616699999999999  0.94014  0.52329  1.0000
  C   C39       1.0  0.254  0.8883  0.57795  1.0000
  C   C40       1.0  0.26529  0.014830000000000012  0.51776  1.0000
  C   C41       1.0  0.2602200000000002  0.03469999999999999  0.56648  1.0000
  C   C42       1.0  0.25276000000000004  0.97894  0.61932  1.0000
  C   C43       1.0  0.70372  0.16726000000000002  0.20691  1.0000
  C   C44       1.0  0.6924  0.11643  0.18017  1.0000
  C   C45       1.0  0.7135100000000002  0.03136000000000001  0.20527999999999993  1.0000
  C   C46       1.0  0.7069600000000003  0.9828300000000001  0.17871999999999996  1.0000
  C   C47       1.0  0.67841  0.019479999999999997  0.12827  1.0000
  C   C48       1.0  0.6553  0.10553  0.10330999999999999  1.0000
  C   C49       1.0  0.66322  0.15385  0.12953  1.0000
  C   C50       1.0  0.72938  0.89155  0.20472999999999994  1.0000
  C   C51       1.0  0.58809  0.22794  0.02771  1.0000
  C   C52       1.0  0.5598500000000002  0.23833000000000004  0.9767  1.0000
  C   C53       1.0  0.6116699999999999  0.24603999999999998  0.92203  1.0000
  C   C54       1.0  0.4851600000000002  0.23471000000000003  0.98223  1.0000
  C   C55       1.0  0.4652800000000003  0.23976999999999998  0.93352  1.0000
  C   C56       1.0  0.5210400000000001  0.24724000000000002  0.8806799999999999  1.0000
  C   C57       1.0  0.16806999999999994  0.9220900000000001  0.20703  1.0000
  C   C58       1.0  0.11695  0.010859999999999998  0.18024  1.0000
  C   C59       1.0  0.031769999999999986  0.049680000000000016  0.20531999999999997  1.0000
  C   C60       1.0  0.98316  0.13124999999999998  0.17875  1.0000
  C   C61       1.0  0.01959000000000002  0.17352999999999993  0.1283  1.0000
  C   C62       1.0  0.10564999999999998  0.13561  0.10339  1.0000
  C   C63       1.0  0.15418  0.05329999999999999  0.12961  1.0000
  C   C64       1.0  0.8919100000000001  0.17432  0.20479  1.0000
  C   C65       1.0  0.22791000000000014  0.15603  0.027929999999999993  1.0000
  C   C66       1.0  0.23815  0.22488999999999992  0.9771  1.0000
  C   C67       1.0  0.2455300000000001  0.22026000000000007  0.9223899999999998  1.0000
  C   C68       1.0  0.23451000000000005  0.2975200000000001  0.9829099999999997  1.0000
  C   C69       1.0  0.23944000000000015  0.3610999999999999  0.93434  1.0000
  C   C70       1.0  0.24684  0.35087  0.8813999999999999  1.0000
  C   C71       1.0  0.9221100000000001  0.70314  0.20708999999999997  1.0000
  C   C72       1.0  0.010820000000000031  0.69222  0.1803  1.0000
  C   C73       1.0  0.049719999999999986  0.71355  0.20533  1.0000
  C   C74       1.0  0.1312100000000001  0.70714  0.17873999999999998  1.0000
  C   C75       1.0  0.17337  0.6786800000000001  0.12825  1.0000
  C   C76       1.0  0.1353  0.65558  0.10329  1.0000
  C   C77       1.0  0.05305999999999997  0.66317  0.1296  1.0000
  C   C78       1.0  0.17417  0.72958  0.20474999999999996  1.0000
  C   C79       1.0  0.15607  0.58801  0.027639999999999994  1.0000
  C   C80       1.0  0.22510000000000002  0.55981  0.9767599999999999  1.0000
  C   C81       1.0  0.22044000000000014  0.6118199999999999  0.9221  1.0000
  C   C82       1.0  0.29774999999999996  0.48495999999999995  0.98243  1.0000
  C   C83       1.0  0.36145  0.46510999999999997  0.93384  1.0000
  C   C84       1.0  0.3512900000000002  0.52105  0.88101  1.0000
  C   C85       1.0  0.4221000000000001  0.66804  0.7070299999999999  1.0000
  C   C86       1.0  0.5108700000000002  0.61695  0.68022  1.0000
  C   C87       1.0  0.5496800000000001  0.53177  0.7052799999999999  1.0000
  C   C88       1.0  0.6312599999999999  0.48315  0.67872  1.0000
  C   C89       1.0  0.6735300000000001  0.51961  0.62827  1.0000
  C   C90       1.0  0.63561  0.60567  0.60336  1.0000
  C   C91       1.0  0.5533000000000002  0.65419  0.6296  1.0000
  C   C92       1.0  0.67434  0.39192  0.70478  1.0000
  C   C93       1.0  0.6560200000000002  0.72794  0.52792  1.0000
  C   C94       1.0  0.7248800000000002  0.73819  0.47709999999999997  1.0000
  C   C95       1.0  0.72028  0.74554  0.42238  1.0000
  C   C96       1.0  0.7975199999999999  0.73453  0.4828999999999999  1.0000
  C   C97       1.0  0.8611200000000002  0.7394399999999998  0.43435  1.0000
  C   C98       1.0  0.85091  0.74683  0.3813999999999999  1.0000
  C   C99       1.0  0.20307999999999998  0.42208000000000007  0.7070999999999998  1.0000
  C   C100      1.0  0.19217  0.5108  0.6803  1.0000
  C   C101      1.0  0.21350999999999998  0.54968  0.70534  1.0000
  C   C102      1.0  0.2071400000000001  0.63117  0.67874  1.0000
  C   C103      1.0  0.1787  0.67332  0.62826  1.0000
  C   C104      1.0  0.15556999999999999  0.63527  0.60331  1.0000
  C   C105      1.0  0.16311999999999993  0.55305  0.62962  1.0000
  C   C106      1.0  0.22957000000000005  0.6741400000000001  0.7047499999999999  1.0000
  C   C107      1.0  0.08800000000000006  0.65611  0.52763  1.0000
  C   C108      1.0  0.05982000000000003  0.72515  0.47675999999999996  1.0000
  C   C109      1.0  0.11183  0.72045  0.4221  1.0000
  C   C110      1.0  0.9849600000000001  0.79778  0.48243  1.0000
  C   C111      1.0  0.96512  0.86146  0.43383  1.0000
  C   C112      1.0  0.02106999999999989  0.8512900000000001  0.38099999999999995  1.0000
  C   C113      1.0  0.66722  0.20378  0.7068999999999999  1.0000
  C   C114      1.0  0.6164000000000003  0.19245  0.68015  1.0000
  C   C115      1.0  0.53132  0.21354999999999996  0.70529  1.0000
  C   C116      1.0  0.48280999999999996  0.20699  0.67872  1.0000
  C   C117      1.0  0.51944  0.17843  0.62828  1.0000
  C   C118      1.0  0.6054900000000001  0.15530999999999998  0.60332  1.0000
  C   C119      1.0  0.6538000000000003  0.16324999999999998  0.62953  1.0000
  C   C120      1.0  0.39153  0.22941  0.70476  1.0000
  C   C121      1.0  0.7279200000000001  0.08809  0.52773  1.0000
  C   C122      1.0  0.73832  0.05986000000000001  0.47670999999999997  1.0000
  C   C123      1.0  0.746  0.11169999999999997  0.42205  1.0000
  C   C124      1.0  0.7347100000000002  0.98517  0.48223999999999995  1.0000
  C   C125      1.0  0.73977  0.9653  0.4335199999999999  1.0000
  C   C126      1.0  0.74723  0.02106  0.38068  1.0000
  C   C127      1.0  0.2962699999999999  0.83274  0.79309  1.0000
  C   C128      1.0  0.3076000000000001  0.8835699999999999  0.81983  1.0000
  C   C129      1.0  0.2864800000000002  0.9686399999999998  0.79472  1.0000
  C   C130      1.0  0.29304  0.017160000000000068  0.8212799999999999  1.0000
  C   C131      1.0  0.3215899999999999  0.9805100000000003  0.87173  1.0000
  C   C132      1.0  0.3446900000000001  0.89447  0.8966899999999999  1.0000
  C   C133      1.0  0.3367800000000002  0.8461499999999998  0.8704699999999999  1.0000
  C   C134      1.0  0.27061  0.10845  0.79527  1.0000
  C   C135      1.0  0.4119000000000002  0.77206  0.97229  1.0000
  C   C136      1.0  0.44014000000000003  0.76167  0.0233  1.0000
  C   C137      1.0  0.3883300000000001  0.75396  0.07797  1.0000
  C   C138      1.0  0.51483  0.76528  0.01777  1.0000
  C   C139      1.0  0.5347099999999999  0.76023  0.06648  1.0000
  C   C140      1.0  0.47896000000000005  0.75276  0.11932  1.0000
  C   C141      1.0  0.83192  0.07791000000000006  0.7929699999999997  1.0000
  C   C142      1.0  0.8830500000000006  0.9891400000000001  0.81976  1.0000
  C   C143      1.0  0.9682200000000002  0.9503199999999999  0.7946799999999999  1.0000
  C   C144      1.0  0.016840000000000053  0.8687500000000001  0.8212499999999998  1.0000
  C   C145      1.0  0.9804000000000002  0.8264700000000001  0.8716999999999999  1.0000
  C   C146      1.0  0.8943399999999992  0.86439  0.89661  1.0000
  C   C147      1.0  0.8458200000000002  0.9467000000000001  0.8703899999999998  1.0000
  C   C148      1.0  0.1080799999999999  0.82567  0.79521  1.0000
  C   C149      1.0  0.77209  0.84396  0.97207  1.0000
  C   C150      1.0  0.76185  0.77511  0.022899999999999997  1.0000
  C   C151      1.0  0.75446  0.77974  0.07761  1.0000
  C   C152      1.0  0.76549  0.70248  0.0171  1.0000
  C   C153      1.0  0.76055  0.6389  0.06566  1.0000
  C   C154      1.0  0.7531599999999999  0.64913  0.1186  1.0000
  C   C155      1.0  0.07789000000000001  0.29686  0.79291  1.0000
  C   C156      1.0  0.9891700000000001  0.30777000000000004  0.8196999999999999  1.0000
  C   C157      1.0  0.95028  0.28645  0.79467  1.0000
  C   C158      1.0  0.8687800000000001  0.29286000000000006  0.82126  1.0000
  C   C159      1.0  0.82662  0.3213200000000001  0.8717499999999999  1.0000
  C   C160      1.0  0.86469  0.34440999999999994  0.89671  1.0000
  C   C161      1.0  0.94693  0.3368300000000001  0.8704  1.0000
  C   C162      1.0  0.8258300000000001  0.27042  0.79525  1.0000
  C   C163      1.0  0.8439300000000002  0.4119900000000001  0.9723599999999999  1.0000
  C   C164      1.0  0.7748900000000001  0.44019  0.02324  1.0000
  C   C165      1.0  0.77955  0.38818  0.07789999999999998  1.0000
  C   C166      1.0  0.70224  0.51504  0.01757  1.0000
  C   C167      1.0  0.63854  0.53488  0.06615999999999998  1.0000
  C   C168      1.0  0.6487000000000002  0.47895  0.11899  1.0000
  N   N1        1.0  0.21832999999999994  0.25038  0.62451  1.0000
  N   N2        1.0  0.31905  0.36082000000000003  0.44611999999999996  1.0000
  N   N3        1.0  0.9066000000000002  0.21807  0.6248  1.0000
  N   N4        1.0  0.8731300000000003  0.31976  0.44650999999999996  1.0000
  N   N5        1.0  0.24989999999999996  0.90673  0.62497  1.0000
  N   N6        1.0  0.3608700000000003  0.8741499999999999  0.44621999999999995  1.0000
  N   N7        1.0  0.5932400000000001  0.25012999999999996  0.87501  1.0000
  N   N8        1.0  0.62593  0.13914999999999994  0.053739999999999996  1.0000
  N   N9        1.0  0.24962000000000006  0.2816199999999999  0.87549  1.0000
  N   N10       1.0  0.1391500000000001  0.18093999999999993  0.053909999999999986  1.0000
  N   N11       1.0  0.28194000000000013  0.59339  0.8751999999999999  1.0000
  N   N12       1.0  0.18023000000000008  0.6268799999999999  0.053459999999999994  1.0000
  N   N13       1.0  0.78167  0.74962  0.37549  1.0000
  N   N14       1.0  0.6809500000000003  0.63917  0.5538899999999999  1.0000
  N   N15       1.0  0.09339999999999989  0.78193  0.3752  1.0000
  N   N16       1.0  0.12686000000000008  0.6802399999999998  0.55349  1.0000
  N   N17       1.0  0.7500900000000001  0.09327  0.3750299999999999  1.0000
  N   N18       1.0  0.6391300000000001  0.12585  0.55378  1.0000
  N   N19       1.0  0.4067600000000001  0.74987  0.12499  1.0000
  N   N20       1.0  0.37407000000000007  0.86085  0.9462599999999999  1.0000
  N   N21       1.0  0.7503699999999999  0.71837  0.12450999999999998  1.0000
  N   N22       1.0  0.8608500000000001  0.81905  0.94609  1.0000
  N   N23       1.0  0.71805  0.4066100000000001  0.12479999999999997  1.0000
  N   N24       1.0  0.81976  0.37312  0.9465399999999999  1.0000
  O   O1        1.0  0.6076500000000002  0.36573  0.24238  1.0000
  O   O2        1.0  0.6171300000000001  0.25999  0.32237  1.0000
  O   O3        1.0  0.3607200000000001  0.63584  0.24495  1.0000
  O   O4        1.0  0.25625000000000003  0.65106  0.32554  1.0000
  O   O5        1.0  0.7838300000000001  0.60768  0.24229999999999993  1.0000
  O   O6        1.0  0.80032  0.61711  0.32236  1.0000
  O   O7        1.0  0.7571100000000001  0.36108  0.24510999999999997  1.0000
  O   O8        1.0  0.7670000000000003  0.25635  0.32554  1.0000
  O   O9        1.0  0.36689  0.78225  0.24273  1.0000
  O   O10       1.0  0.2606  0.80024  0.32246  1.0000
  O   O11       1.0  0.6363500000000001  0.75715  0.24513999999999994  1.0000
  O   O12       1.0  0.6512800000000003  0.7673  0.32545  1.0000
  O   O13       1.0  0.7178100000000003  0.1330999999999999  0.25725  1.0000
  O   O14       1.0  0.69962  0.23947  0.1776  1.0000
  O   O15       1.0  0.7428400000000002  0.8636499999999998  0.25484  1.0000
  O   O16       1.0  0.7326500000000002  0.8487399999999998  0.17454  1.0000
  O   O17       1.0  0.13434000000000001  0.8923399999999999  0.25766  1.0000
  O   O18       1.0  0.24001000000000003  0.88284  0.17761999999999997  1.0000
  O   O19       1.0  0.86416  0.13928  0.25508  1.0000
  O   O20       1.0  0.8489200000000002  0.24367  0.17446  1.0000
  O   O21       1.0  0.8923600000000002  0.71619  0.25772  1.0000
  O   O22       1.0  0.8829099999999999  0.69975  0.17764  1.0000
  O   O23       1.0  0.13890000000000005  0.74293  0.2549  1.0000
  O   O24       1.0  0.24369000000000013  0.73298  0.17447  1.0000
  O   O25       1.0  0.3923400000000001  0.63426  0.7576199999999998  1.0000
  O   O26       1.0  0.3828600000000003  0.74001  0.67763  1.0000
  O   O27       1.0  0.63927  0.36416  0.75505  1.0000
  O   O28       1.0  0.7437500000000001  0.34894  0.67446  1.0000
  O   O29       1.0  0.21616000000000005  0.39232000000000006  0.7576999999999999  1.0000
  O   O30       1.0  0.19967000000000007  0.38289000000000006  0.67764  1.0000
  O   O31       1.0  0.24288000000000004  0.6389100000000001  0.7548899999999998  1.0000
  O   O32       1.0  0.23300000000000004  0.74365  0.67446  1.0000
  O   O33       1.0  0.6331100000000001  0.21775000000000003  0.7572699999999999  1.0000
  O   O34       1.0  0.7393999999999998  0.19975999999999997  0.67755  1.0000
  O   O35       1.0  0.3636400000000001  0.24283999999999997  0.75486  1.0000
  O   O36       1.0  0.34871  0.23268999999999998  0.67455  1.0000
  O   O37       1.0  0.28217999999999993  0.8669  0.74275  1.0000
  O   O38       1.0  0.30038000000000015  0.7605299999999997  0.82241  1.0000
  O   O39       1.0  0.2571500000000001  0.13635000000000008  0.7451599999999998  1.0000
  O   O40       1.0  0.2673400000000001  0.15125  0.82546  1.0000
  O   O41       1.0  0.8656500000000001  0.10765999999999999  0.74234  1.0000
  O   O42       1.0  0.75999  0.11716000000000004  0.8223799999999999  1.0000
  O   O43       1.0  0.1358300000000001  0.8607200000000002  0.74492  1.0000
  O   O44       1.0  0.15107999999999994  0.75633  0.82554  1.0000
  O   O45       1.0  0.10763000000000002  0.28381  0.74228  1.0000
  O   O46       1.0  0.11708999999999993  0.30024000000000006  0.82236  1.0000
  O   O47       1.0  0.8610999999999999  0.25707  0.7451  1.0000
  O   O48       1.0  0.7563100000000005  0.26702000000000004  0.8255299999999999  1.0000
