data_image0
_chemical_formula_structural       Zn4H132C144O36
_chemical_formula_sum              "Zn4 H132 C144 O36"
_cell_length_a       8.82447
_cell_length_b       18.976230000000005
_cell_length_c       29.741889999999998
_cell_angle_alpha    90.61721
_cell_angle_beta     89.98924
_cell_angle_gamma    90.00358

_symmetry_space_group_name_H-M    'P 1'
_symmetry_Int_Tables_number       1

loop_
  _symmetry_equiv_pos_as_xyz
  'x,y,z'

loop_
  _atom_site_type_symbol
  _atom_site_label
  _atom_site_symmetry_multiplicity
  _atom_site_fract_x
  _atom_site_fract_y
  _atom_site_fract_z
  _atom_site_occupancy
  Zn  Zn1       1.0  0.28519  0.80638  0.7491499999999998  1.0000
  Zn  Zn2       1.0  0.7847899999999999  0.69407  0.7499599999999997  1.0000
  Zn  Zn3       1.0  0.7148  0.19366  0.25085999999999997  1.0000
  Zn  Zn4       1.0  0.21529  0.30604  0.25009999999999993  1.0000
  H   H1        1.0  0.56125  0.88807  0.8670499999999998  1.0000
  H   H2        1.0  0.64981  0.81266  0.8416699999999998  1.0000
  H   H3        1.0  0.53829  0.9979899999999999  0.8426499999999999  1.0000
  H   H4        1.0  0.01893  0.96759  0.82482  1.0000
  H   H5        1.0  0.43405  0.10856000000000002  0.8548099999999997  1.0000
  H   H6        1.0  0.51083  0.16782  0.8152599999999999  1.0000
  H   H7        1.0  0.5526299999999998  0.17945  0.8728599999999997  1.0000
  H   H8        1.0  0.1515  0.12211999999999999  0.85849  1.0000
  H   H9        1.0  0.10388  0.15119000000000002  0.8041199999999997  1.0000
  H   H10       1.0  0.17898  0.06507  0.8112599999999998  1.0000
  H   H11       1.0  0.74351  0.24064  0.7892499999999998  1.0000
  H   H12       1.0  0.90243  0.39158  0.8875199999999998  1.0000
  H   H13       1.0  0.9476200000000001  0.16996  0.9122399999999998  1.0000
  H   H14       1.0  0.42909  0.47088  0.7880099999999998  1.0000
  H   H15       1.0  0.88857  0.53385  0.7591699999999998  1.0000
  H   H16       1.0  0.08262  0.43897  0.82304  1.0000
  H   H17       1.0  0.088  0.44923  0.7640299999999998  1.0000
  H   H18       1.0  0.060050000000000006  0.36394999999999994  0.7880299999999998  1.0000
  H   H19       1.0  0.51923  0.33034  0.85996  1.0000
  H   H20       1.0  0.4834300000000001  0.29701  0.8055299999999997  1.0000
  H   H21       1.0  0.37506  0.36899  0.8263899999999997  1.0000
  H   H22       1.0  0.45403000000000004  0.60045  0.8043699999999998  1.0000
  H   H23       1.0  0.37276  0.57218  0.75188  1.0000
  H   H24       1.0  0.3529  0.29536  0.0010199999999999999  1.0000
  H   H25       1.0  0.91311  0.33977  0.05753999999999999  1.0000
  H   H26       1.0  0.6931  0.33395  0.01473  1.0000
  H   H27       1.0  0.69698  0.27251  0.9690799999999998  1.0000
  H   H28       1.0  0.71522  0.36322  0.9584599999999999  1.0000
  H   H29       1.0  0.38451  0.27468  0.92338  1.0000
  H   H30       1.0  0.24113  0.30417  0.8858299999999999  1.0000
  H   H31       1.0  0.24312  0.21579000000000004  0.9031799999999998  1.0000
  H   H32       1.0  0.03693  0.2985  0.11529999999999997  1.0000
  H   H33       1.0  0.08353  0.39  0.11445  1.0000
  H   H34       1.0  0.062479999999999994  0.61223  0.6327499999999998  1.0000
  H   H35       1.0  0.15146  0.68744  0.65811  1.0000
  H   H36       1.0  0.03871  0.50217  0.6573099999999997  1.0000
  H   H37       1.0  0.51931  0.53222  0.6753299999999999  1.0000
  H   H38       1.0  0.93411  0.39164  0.6451799999999998  1.0000
  H   H39       1.0  0.01068  0.33235  0.6847099999999998  1.0000
  H   H40       1.0  0.05249  0.32064000000000004  0.6271199999999999  1.0000
  H   H41       1.0  0.65167  0.37784  0.64149  1.0000
  H   H42       1.0  0.6038999999999999  0.34869  0.6958399999999998  1.0000
  H   H43       1.0  0.67896  0.4348000000000001  0.68877  1.0000
  H   H44       1.0  0.24322  0.25922  0.7105  1.0000
  H   H45       1.0  0.40327  0.10844  0.6123  1.0000
  H   H46       1.0  0.44887  0.33005  0.5877299999999998  1.0000
  H   H47       1.0  0.92933  0.0294  0.7118299999999997  1.0000
  H   H48       1.0  0.38845  0.96643  0.74091  1.0000
  H   H49       1.0  0.58304  0.06128  0.6768199999999999  1.0000
  H   H50       1.0  0.58845  0.051050000000000005  0.73584  1.0000
  H   H51       1.0  0.56021  0.13633  0.7118199999999998  1.0000
  H   H52       1.0  0.01893  0.16973  0.6398999999999998  1.0000
  H   H53       1.0  0.98323  0.20301  0.6943899999999998  1.0000
  H   H54       1.0  0.87547  0.13077  0.67362  1.0000
  H   H55       1.0  0.9530800000000001  0.8997900000000001  0.69623  1.0000
  H   H56       1.0  0.87251  0.92816  0.74899  1.0000
  H   H57       1.0  0.855  0.20467  0.4992199999999999  1.0000
  H   H58       1.0  0.41559  0.16012999999999997  0.4425899999999999  1.0000
  H   H59       1.0  0.19611  0.16594  0.4848599999999999  1.0000
  H   H60       1.0  0.19847  0.22742  0.5305299999999997  1.0000
  H   H61       1.0  0.21658  0.13659  0.5412  1.0000
  H   H62       1.0  0.88588  0.22554  0.5770299999999998  1.0000
  H   H63       1.0  0.74193  0.19601  0.6144  1.0000
  H   H64       1.0  0.74395  0.28439  0.5970199999999998  1.0000
  H   H65       1.0  0.53734  0.20061  0.3849599999999999  1.0000
  H   H66       1.0  0.58296  0.10905  0.3867699999999999  1.0000
  H   H67       1.0  0.43867  0.1119  0.13296  1.0000
  H   H68       1.0  0.35026  0.18733  0.15833999999999998  1.0000
  H   H69       1.0  0.46166  0.00201  0.15732  1.0000
  H   H70       1.0  0.98095  0.03235  0.17518  1.0000
  H   H71       1.0  0.56595  0.8914500000000001  0.14519  1.0000
  H   H72       1.0  0.4892000000000001  0.83218  0.18474999999999994  1.0000
  H   H73       1.0  0.44742  0.8205400000000002  0.12713999999999998  1.0000
  H   H74       1.0  0.84847  0.87786  0.14151999999999998  1.0000
  H   H75       1.0  0.89603  0.8487700000000001  0.19587999999999994  1.0000
  H   H76       1.0  0.82098  0.9349  0.18874999999999995  1.0000
  H   H77       1.0  0.25658  0.75934  0.21075999999999995  1.0000
  H   H78       1.0  0.09759  0.60842  0.11248999999999998  1.0000
  H   H79       1.0  0.05246  0.83005  0.08778999999999998  1.0000
  H   H80       1.0  0.57098  0.52914  0.21197999999999995  1.0000
  H   H81       1.0  0.11149  0.4661699999999999  0.24083999999999994  1.0000
  H   H82       1.0  0.9174399999999999  0.56102  0.17697  1.0000
  H   H83       1.0  0.91208  0.55074  0.23598  1.0000
  H   H84       1.0  0.93994  0.63603  0.21198999999999996  1.0000
  H   H85       1.0  0.48080999999999996  0.66968  0.14004  1.0000
  H   H86       1.0  0.51664  0.70302  0.19446  1.0000
  H   H87       1.0  0.62499  0.63104  0.17359999999999998  1.0000
  H   H88       1.0  0.54594  0.39953  0.19562999999999997  1.0000
  H   H89       1.0  0.62724  0.42783  0.24814999999999995  1.0000
  H   H90       1.0  0.64703  0.70464  0.9990299999999999  1.0000
  H   H91       1.0  0.08676999999999999  0.66022  0.9424799999999998  1.0000
  H   H92       1.0  0.30685  0.66605  0.98527  1.0000
  H   H93       1.0  0.30298  0.7275  0.03092  1.0000
  H   H94       1.0  0.28475  0.6367800000000001  0.04154  1.0000
  H   H95       1.0  0.6155  0.72534  0.07666999999999997  1.0000
  H   H96       1.0  0.75889  0.69585  0.11420999999999998  1.0000
  H   H97       1.0  0.7569  0.78423  0.09685999999999997  1.0000
  H   H98       1.0  0.96294  0.70153  0.8847199999999997  1.0000
  H   H99       1.0  0.9162900000000002  0.61001  0.88556  1.0000
  H   H100      1.0  0.93758  0.38776  0.3672299999999999  1.0000
  H   H101      1.0  0.84854  0.31255  0.3419099999999999  1.0000
  H   H102      1.0  0.9613300000000001  0.49782  0.3426999999999999  1.0000
  H   H103      1.0  0.48071  0.46776000000000006  0.3246799999999999  1.0000
  H   H104      1.0  0.06591  0.60836  0.35482  1.0000
  H   H105      1.0  0.9893700000000001  0.66765  0.3152899999999999  1.0000
  H   H106      1.0  0.94752  0.6793500000000001  0.3728799999999999  1.0000
  H   H107      1.0  0.34835  0.62215  0.3584999999999999  1.0000
  H   H108      1.0  0.39612  0.65131  0.3041599999999999  1.0000
  H   H109      1.0  0.32104  0.5652  0.31122  1.0000
  H   H110      1.0  0.75683  0.74076  0.28947  1.0000
  H   H111      1.0  0.59677  0.8915499999999998  0.3876499999999999  1.0000
  H   H112      1.0  0.55117  0.66993  0.41223999999999994  1.0000
  H   H113      1.0  0.07078  0.97056  0.2881899999999999  1.0000
  H   H114      1.0  0.61168  0.03356  0.25908  1.0000
  H   H115      1.0  0.41697  0.9387299999999998  0.3231799999999999  1.0000
  H   H116      1.0  0.41169  0.9489700000000001  0.2641499999999999  1.0000
  H   H117      1.0  0.4398099999999999  0.86368  0.2881799999999999  1.0000
  H   H118      1.0  0.98107  0.83023  0.36009999999999986  1.0000
  H   H119      1.0  0.01681  0.79694  0.3056199999999999  1.0000
  H   H120      1.0  0.12459  0.86917  0.32639  1.0000
  H   H121      1.0  0.04673  0.10023000000000001  0.30379  1.0000
  H   H122      1.0  0.12725  0.07182  0.25102  1.0000
  H   H123      1.0  0.14496  0.79533  0.5007  1.0000
  H   H124      1.0  0.58433  0.83988  0.5573699999999998  1.0000
  H   H125      1.0  0.80387  0.83406  0.51512  1.0000
  H   H126      1.0  0.80151  0.77257  0.46944999999999987  1.0000
  H   H127      1.0  0.78344  0.8634099999999999  0.4587799999999999  1.0000
  H   H128      1.0  0.11413  0.77444  0.4228899999999999  1.0000
  H   H129      1.0  0.25813  0.80396  0.3855299999999999  1.0000
  H   H130      1.0  0.25614  0.71559  0.4029299999999999  1.0000
  H   H131      1.0  0.46276  0.79941  0.61498  1.0000
  H   H132      1.0  0.41687  0.89095  0.6132699999999998  1.0000
  C   C1        1.0  0.53096  0.8797000000000001  0.7951299999999998  1.0000
  C   C2        1.0  0.62785  0.8692999999999999  0.8380999999999997  1.0000
  C   C3        1.0  0.77796  0.9744900000000001  0.8353399999999997  1.0000
  C   C4        1.0  0.65182  0.019419999999999996  0.8398299999999997  1.0000
  C   C5        1.0  0.67155  0.09235  0.8411399999999998  1.0000
  C   C6        1.0  0.81966  0.12102000000000002  0.8385999999999998  1.0000
  C   C7        1.0  0.9461300000000001  0.07576  0.8316099999999997  1.0000
  C   C8        1.0  0.92395  0.003279999999999995  0.8299999999999997  1.0000
  C   C9        1.0  0.5349  0.13938  0.8464899999999997  1.0000
  C   C10       1.0  0.10355  0.10496  0.82602  1.0000
  C   C11       1.0  0.84467  0.19683  0.84897  1.0000
  C   C12       1.0  0.7966899999999999  0.25232  0.8214999999999998  1.0000
  C   C13       1.0  0.81717  0.32277  0.8351499999999997  1.0000
  C   C14       1.0  0.88719  0.33701  0.8767899999999997  1.0000
  C   C15       1.0  0.9350599999999999  0.28259  0.9049499999999998  1.0000
  C   C16       1.0  0.9137799999999999  0.21286000000000002  0.8904099999999998  1.0000
  C   C17       1.0  0.76014  0.38371  0.80906  1.0000
  C   C18       1.0  0.60234  0.39719  0.80696  1.0000
  C   C19       1.0  0.55003  0.46038  0.78882  1.0000
  C   C20       1.0  0.65366  0.50971  0.7722299999999997  1.0000
  C   C21       1.0  0.80926  0.49491  0.7720099999999998  1.0000
  C   C22       1.0  0.86366  0.43266  0.7904999999999998  1.0000
  C   C23       1.0  0.03252  0.42018  0.7912  1.0000
  C   C24       1.0  0.48885999999999996  0.34586  0.8256699999999998  1.0000
  C   C25       1.0  0.46653  0.60147  0.7675999999999997  1.0000
  C   C26       1.0  0.45544999999999997  0.6776  0.7528999999999998  1.0000
  C   C27       1.0  0.006850000000000001  0.29692  0.9493299999999998  1.0000
  C   C28       1.0  0.16569  0.28965  0.9542999999999999  1.0000
  C   C29       1.0  0.23126  0.30061  0.9963399999999998  1.0000
  C   C30       1.0  0.14144  0.31783  0.03397999999999999  1.0000
  C   C31       1.0  0.9841299999999998  0.32583  0.02898999999999999  1.0000
  C   C32       1.0  0.9161699999999999  0.31522  0.9868999999999998  1.0000
  C   C33       1.0  0.74656  0.32175000000000004  0.9822799999999999  1.0000
  C   C34       1.0  0.26417  0.27018  0.9146799999999998  1.0000
  C   C35       1.0  0.13101  0.33638  0.1136  1.0000
  C   C36       1.0  0.22761  0.32667  0.1559  1.0000
  C   C37       1.0  0.03145  0.6205  0.7046699999999998  1.0000
  C   C38       1.0  0.12889  0.63085  0.66178  1.0000
  C   C39       1.0  0.2784  0.52548  0.66468  1.0000
  C   C40       1.0  0.15215  0.48064000000000007  0.6601099999999998  1.0000
  C   C41       1.0  0.17168  0.4077  0.65878  1.0000
  C   C42       1.0  0.31975  0.37897  0.6612899999999998  1.0000
  C   C43       1.0  0.44626  0.4241599999999999  0.6683599999999997  1.0000
  C   C44       1.0  0.42425  0.49662000000000006  0.67005  1.0000
  C   C45       1.0  0.03488  0.36074  0.6534699999999998  1.0000
  C   C46       1.0  0.60361  0.39493  0.67396  1.0000
  C   C47       1.0  0.34496  0.30321  0.6508799999999998  1.0000
  C   C48       1.0  0.29677  0.24767999999999996  0.6782799999999998  1.0000
  C   C49       1.0  0.31754  0.17725  0.66464  1.0000
  C   C50       1.0  0.38797  0.163  0.62307  1.0000
  C   C51       1.0  0.43631  0.21747000000000002  0.59503  1.0000
  C   C52       1.0  0.41471  0.28718  0.6095299999999998  1.0000
  C   C53       1.0  0.26053  0.11638  0.6907599999999998  1.0000
  C   C54       1.0  0.10271  0.103  0.6928699999999998  1.0000
  C   C55       1.0  0.05024  0.03992  0.7110699999999999  1.0000
  C   C56       1.0  0.15365  0.99066  0.72777  1.0000
  C   C57       1.0  0.30937  0.005369999999999996  0.7279999999999998  1.0000
  C   C58       1.0  0.364  0.06747  0.7094  1.0000
  C   C59       1.0  0.53288  0.08005  0.7086699999999998  1.0000
  C   C60       1.0  0.98899  0.15420000000000003  0.67422  1.0000
  C   C61       1.0  0.9660199999999999  0.89899  0.7329999999999998  1.0000
  C   C62       1.0  0.9555000000000001  0.8228200000000001  0.7477999999999998  1.0000
  C   C63       1.0  0.50856  0.20313  0.55074  1.0000
  C   C64       1.0  0.66743  0.21045000000000003  0.5458399999999999  1.0000
  C   C65       1.0  0.7333  0.19945  0.50382  1.0000
  C   C66       1.0  0.64347  0.18214  0.4662099999999999  1.0000
  C   C67       1.0  0.48631  0.17408  0.47116999999999987  1.0000
  C   C68       1.0  0.41806  0.18474  0.5131699999999999  1.0000
  C   C69       1.0  0.24839999999999998  0.17815  0.5174899999999999  1.0000
  C   C70       1.0  0.76538  0.23  0.58557  1.0000
  C   C71       1.0  0.63109  0.16256  0.38681  1.0000
  C   C72       1.0  0.7274  0.17079  0.3443299999999999  1.0000
  C   C73       1.0  0.46915999999999997  0.12037  0.20488999999999993  1.0000
  C   C74       1.0  0.37218  0.13069  0.16193  1.0000
  C   C75       1.0  0.222  0.02551000000000001  0.1647  1.0000
  C   C76       1.0  0.34815  0.98058  0.16018999999999994  1.0000
  C   C77       1.0  0.32846  0.9076499999999998  0.15887  1.0000
  C   C78       1.0  0.18037  0.8789600000000001  0.16142999999999993  1.0000
  C   C79       1.0  0.05386  0.92421  0.16841  1.0000
  C   C80       1.0  0.07599  0.9966900000000001  0.17001999999999995  1.0000
  C   C81       1.0  0.4651199999999999  0.8606100000000001  0.15351  1.0000
  C   C82       1.0  0.89642  0.8950100000000001  0.17399  1.0000
  C   C83       1.0  0.15537  0.80316  0.15105  1.0000
  C   C84       1.0  0.20336  0.74767  0.17850999999999997  1.0000
  C   C85       1.0  0.18288  0.67722  0.16485999999999995  1.0000
  C   C86       1.0  0.11283  0.66299  0.12321999999999997  1.0000
  C   C87       1.0  0.06497  0.71742  0.09507  1.0000
  C   C88       1.0  0.08627  0.78714  0.10960999999999999  1.0000
  C   C89       1.0  0.23990999999999998  0.6163  0.19095  1.0000
  C   C90       1.0  0.39772  0.60283  0.19304  1.0000
  C   C91       1.0  0.45004  0.53963  0.21117999999999995  1.0000
  C   C92       1.0  0.3464  0.49030000000000007  0.22776999999999994  1.0000
  C   C93       1.0  0.1908  0.5051  0.22799999999999995  1.0000
  C   C94       1.0  0.13639  0.56735  0.20950999999999995  1.0000
  C   C95       1.0  0.96753  0.57981  0.20881  1.0000
  C   C96       1.0  0.51119  0.65416  0.17432999999999996  1.0000
  C   C97       1.0  0.53351  0.39853  0.2324  1.0000
  C   C98       1.0  0.5446  0.3224  0.24708999999999995  1.0000
  C   C99       1.0  0.9931299999999998  0.70309  0.050689999999999985  1.0000
  C   C100      1.0  0.83429  0.71035  0.04573  1.0000
  C   C101      1.0  0.7686799999999999  0.6993900000000001  0.0036899999999999993  1.0000
  C   C102      1.0  0.85847  0.6821800000000001  0.9660499999999997  1.0000
  C   C103      1.0  0.01578  0.67417  0.9710299999999997  1.0000
  C   C104      1.0  0.08378  0.68479  0.013109999999999997  1.0000
  C   C105      1.0  0.2534  0.67825  0.01773  1.0000
  C   C106      1.0  0.73585  0.72983  0.08536  1.0000
  C   C107      1.0  0.86888  0.66364  0.8864099999999999  1.0000
  C   C108      1.0  0.7723299999999998  0.67333  0.8440999999999997  1.0000
  C   C109      1.0  0.96852  0.37951  0.2953399999999999  1.0000
  C   C110      1.0  0.87109  0.36914  0.3382199999999999  1.0000
  C   C111      1.0  0.72161  0.47451000000000004  0.33532  1.0000
  C   C112      1.0  0.84787  0.5193400000000001  0.3398899999999999  1.0000
  C   C113      1.0  0.82835  0.59229  0.3412099999999999  1.0000
  C   C114      1.0  0.68028  0.62101  0.3386899999999999  1.0000
  C   C115      1.0  0.55376  0.5758400000000001  0.33162999999999987  1.0000
  C   C116      1.0  0.57576  0.50337  0.32995  1.0000
  C   C117      1.0  0.96514  0.63925  0.3465299999999999  1.0000
  C   C118      1.0  0.39641  0.60506  0.3260299999999999  1.0000
  C   C119      1.0  0.65507  0.6967800000000001  0.3490899999999999  1.0000
  C   C120      1.0  0.70328  0.7523  0.32168999999999986  1.0000
  C   C121      1.0  0.68252  0.82273  0.33533  1.0000
  C   C122      1.0  0.61207  0.83699  0.3768999999999999  1.0000
  C   C123      1.0  0.56372  0.78252  0.4049299999999999  1.0000
  C   C124      1.0  0.58532  0.7128100000000002  0.3904399999999999  1.0000
  C   C125      1.0  0.73954  0.8835900000000001  0.3092199999999999  1.0000
  C   C126      1.0  0.89736  0.8969600000000001  0.3071099999999999  1.0000
  C   C127      1.0  0.9498599999999999  0.9600500000000001  0.28892  1.0000
  C   C128      1.0  0.84645  0.00932  0.27221  1.0000
  C   C129      1.0  0.69074  0.9946  0.2719699999999999  1.0000
  C   C130      1.0  0.63608  0.93251  0.2905999999999999  1.0000
  C   C131      1.0  0.46718  0.91995  0.29132999999999987  1.0000
  C   C132      1.0  0.01106  0.84575  0.32579  1.0000
  C   C133      1.0  0.03388  0.10106  0.26700999999999997  1.0000
  C   C134      1.0  0.04448  0.17723  0.25216  1.0000
  C   C135      1.0  0.49145  0.79686  0.4492099999999999  1.0000
  C   C136      1.0  0.33257  0.78955  0.4541  1.0000
  C   C137      1.0  0.26667  0.80054  0.4961199999999999  1.0000
  C   C138      1.0  0.3565  0.81784  0.53374  1.0000
  C   C139      1.0  0.51366  0.8259  0.5287799999999998  1.0000
  C   C140      1.0  0.58194  0.81525  0.4867899999999999  1.0000
  C   C141      1.0  0.7516  0.82185  0.4824799999999999  1.0000
  C   C142      1.0  0.23465  0.76999  0.41437  1.0000
  C   C143      1.0  0.3689  0.8374  0.61317  1.0000
  C   C144      1.0  0.27261  0.82915  0.6556599999999998  1.0000
  O   O1        1.0  0.58253  0.9147399999999999  0.7636899999999998  1.0000
  O   O2        1.0  0.40134  0.8495500000000001  0.7996199999999998  1.0000
  O   O3        1.0  0.77243  0.9031700000000001  0.8364899999999997  1.0000
  O   O4        1.0  0.32466  0.70363  0.7586399999999998  1.0000
  O   O5        1.0  0.5674  0.7102  0.7362899999999998  1.0000
  O   O6        1.0  0.61248  0.57329  0.7548299999999999  1.0000
  O   O7        1.0  0.21872  0.32518  0.07335999999999997  1.0000
  O   O8        1.0  0.36381  0.3106  0.15434  1.0000
  O   O9        1.0  0.14386  0.33615000000000006  0.19114999999999993  1.0000
  O   O10       1.0  0.08229  0.58555  0.7362299999999998  1.0000
  O   O11       1.0  0.90165  0.65058  0.7000599999999999  1.0000
  O   O12       1.0  0.27315  0.59681  0.66354  1.0000
  O   O13       1.0  0.82393  0.79709  0.7430699999999998  1.0000
  O   O14       1.0  0.06824  0.7898000000000001  0.7635  1.0000
  O   O15       1.0  0.11225  0.92735  0.74537  1.0000
  O   O16       1.0  0.71984  0.17476  0.4267  1.0000
  O   O17       1.0  0.86387  0.18632000000000004  0.34566999999999987  1.0000
  O   O18       1.0  0.6437  0.16066  0.3090899999999999  1.0000
  O   O19       1.0  0.41766  0.08535  0.23636999999999994  1.0000
  O   O20       1.0  0.59872  0.15052  0.20036999999999994  1.0000
  O   O21       1.0  0.22758  0.09682  0.16353999999999994  1.0000
  O   O22       1.0  0.67536  0.29638  0.24131999999999995  1.0000
  O   O23       1.0  0.43267  0.28979  0.2637199999999999  1.0000
  O   O24       1.0  0.38756  0.42671  0.24516999999999994  1.0000
  O   O25       1.0  0.78118  0.67483  0.92666  1.0000
  O   O26       1.0  0.63613  0.68942  0.84565  1.0000
  O   O27       1.0  0.85612  0.66382  0.8088699999999998  1.0000
  O   O28       1.0  0.91767  0.41447  0.26377  1.0000
  O   O29       1.0  0.09836  0.34949  0.2999499999999999  1.0000
  O   O30       1.0  0.72683  0.40319  0.3364699999999999  1.0000
  O   O31       1.0  0.17604  0.20299  0.25685999999999987  1.0000
  O   O32       1.0  0.9317000000000001  0.21024  0.23647999999999994  1.0000
  O   O33       1.0  0.88769  0.07267  0.2546399999999999  1.0000
  O   O34       1.0  0.28016  0.82524  0.57326  1.0000
  O   O35       1.0  0.13611  0.8137100000000002  0.65431  1.0000
  O   O36       1.0  0.35631  0.83931  0.6909  1.0000
