data_image0
_chemical_formula_structural       Eu8H56C120O48
_chemical_formula_sum              "Eu8 H56 C120 O48"
_cell_length_a       13.0372
_cell_length_b       14.65981
_cell_length_c       27.326039999999995
_cell_angle_alpha    103.78187
_cell_angle_beta     100.01612
_cell_angle_gamma    94.59781

_symmetry_space_group_name_H-M    'P 1'
_symmetry_Int_Tables_number       1

loop_
  _symmetry_equiv_pos_as_xyz
  'x,y,z'

loop_
  _atom_site_type_symbol
  _atom_site_label
  _atom_site_symmetry_multiplicity
  _atom_site_fract_x
  _atom_site_fract_y
  _atom_site_fract_z
  _atom_site_occupancy
  Eu  Eu1       1.0  0.61392  0.06679  0.55448  1.0000
  Eu  Eu2       1.0  0.02023  0.06812  0.07622  1.0000
  Eu  Eu3       1.0  0.52354  0.55126  0.93854  1.0000
  Eu  Eu4       1.0  0.004219999999999974  0.46573999999999993  0.42583999999999994  1.0000
  Eu  Eu5       1.0  0.3856399999999999  0.9341799999999998  0.4454199999999999  1.0000
  Eu  Eu6       1.0  0.97666  0.9325  0.9242499999999998  1.0000
  Eu  Eu7       1.0  0.47486  0.45064  0.06303  1.0000
  Eu  Eu8       1.0  0.99392  0.5345  0.5748  1.0000
  H   H1        1.0  0.4645  0.80766  0.27933  1.0000
  H   H2        1.0  0.88573  0.57206  0.19788999999999998  1.0000
  H   H3        1.0  0.96585  0.8794999999999998  0.19958  1.0000
  H   H4        1.0  0.45651  0.11620000000000003  0.34823  1.0000
  H   H5        1.0  0.41257000000000005  0.6097199999999999  0.23975  1.0000
  H   H6        1.0  0.67898  0.3060799999999999  0.30664  1.0000
  H   H7        1.0  0.94154  0.8683699999999998  0.27843  1.0000
  H   H8        1.0  0.40694  0.06744  0.26163  1.0000
  H   H9        1.0  0.96545  0.53119  0.27819  1.0000
  H   H10       1.0  0.47933  0.67598  0.33309999999999995  1.0000
  H   H11       1.0  0.16375  0.90019  0.10709999999999999  1.0000
  H   H12       1.0  0.3996  0.36082  0.20028  1.0000
  H   H13       1.0  0.5299699999999999  0.3585799999999999  0.27768  1.0000
  H   H14       1.0  0.27599999999999997  0.07224999999999995  0.18513999999999997  1.0000
  H   H15       1.0  0.5814199999999999  0.7766499999999998  0.39309  1.0000
  H   H16       1.0  0.37368  0.6863899999999998  0.11157  1.0000
  H   H17       1.0  0.44521  0.78317  0.18504  1.0000
  H   H18       1.0  0.027410000000000007  0.82708  0.35774  1.0000
  H   H19       1.0  0.76185  0.2116899999999999  0.44396999999999986  1.0000
  H   H20       1.0  0.75757  0.7978199999999999  0.05188999999999999  1.0000
  H   H21       1.0  0.77235  0.76804  0.5363  1.0000
  H   H22       1.0  0.2435400000000001  0.7417599999999998  0.96784  1.0000
  H   H23       1.0  0.6866899999999999  0.46784  0.22776  1.0000
  H   H24       1.0  0.74995  0.62005  0.15544  1.0000
  H   H25       1.0  0.75781  0.5363599999999998  0.32094999999999996  1.0000
  H   H26       1.0  0.13124999999999998  0.8614699999999998  0.17653999999999995  1.0000
  H   H27       1.0  0.75848  0.54119  0.40118  1.0000
  H   H28       1.0  0.15287  0.88603  0.27122  1.0000
  H   H29       1.0  0.53919  0.19114  0.71955  1.0000
  H   H30       1.0  0.11410999999999998  0.42949  0.80231  1.0000
  H   H31       1.0  0.03333999999999997  0.12342  0.8011399999999999  1.0000
  H   H32       1.0  0.5422  0.8838099999999997  0.65207  1.0000
  H   H33       1.0  0.58103  0.39339999999999997  0.76236  1.0000
  H   H34       1.0  0.31944  0.6919699999999999  0.69218  1.0000
  H   H35       1.0  0.06212999999999989  0.13265999999999983  0.7227599999999997  1.0000
  H   H36       1.0  0.59206  0.93075  0.7371799999999998  1.0000
  H   H37       1.0  0.03295000000000001  0.46831  0.72161  1.0000
  H   H38       1.0  0.5163799999999998  0.32567999999999986  0.6689299999999999  1.0000
  H   H39       1.0  0.83497  0.09534999999999988  0.8930399999999997  1.0000
  H   H40       1.0  0.60031  0.6380499999999998  0.79913  1.0000
  H   H41       1.0  0.46921999999999997  0.63985  0.72176  1.0000
  H   H42       1.0  0.72282  0.92675  0.81395  1.0000
  H   H43       1.0  0.41581  0.22541999999999998  0.60822  1.0000
  H   H44       1.0  0.63201  0.313  0.88563  1.0000
  H   H45       1.0  0.55697  0.21272000000000002  0.81367  1.0000
  H   H46       1.0  0.9750999999999999  0.1719599999999999  0.6431  1.0000
  H   H47       1.0  0.23823999999999998  0.7878299999999998  0.55519  1.0000
  H   H48       1.0  0.2383199999999999  0.2035599999999999  0.9496599999999997  1.0000
  H   H49       1.0  0.22645999999999997  0.23275999999999997  0.46437999999999996  1.0000
  H   H50       1.0  0.74868  0.25496  0.03044  1.0000
  H   H51       1.0  0.30975  0.53981  0.7715  1.0000
  H   H52       1.0  0.25157000000000007  0.38131  0.84619  1.0000
  H   H53       1.0  0.23988  0.46942999999999985  0.67829  1.0000
  H   H54       1.0  0.87048  0.13357  0.8224299999999999  1.0000
  H   H55       1.0  0.24012  0.4611  0.59876  1.0000
  H   H56       1.0  0.85064  0.11248999999999997  0.72783  1.0000
  C   C1        1.0  0.57648  0.10364999999999998  0.43579  1.0000
  C   C2        1.0  0.66116  0.6319099999999997  0.06224  1.0000
  C   C3        1.0  0.12259  0.86928  0.00109  1.0000
  C   C4        1.0  0.19488  0.82482  0.03427  1.0000
  C   C5        1.0  0.39176999999999995  0.8184299999999998  0.2563  1.0000
  C   C6        1.0  0.73026  0.26395999999999986  0.3757799999999999  1.0000
  C   C7        1.0  0.55695  0.21073  0.32076  1.0000
  C   C8        1.0  0.47887  0.21256  0.27522  1.0000
  C   C9        1.0  0.91459  0.62771  0.23312  1.0000
  C   C10       1.0  0.90342  0.82936  0.17257  1.0000
  C   C11       1.0  0.86422  0.7464799999999998  0.18424  1.0000
  C   C12       1.0  0.6465399999999999  0.8759999999999999  0.4923399999999999  1.0000
  C   C13       1.0  0.53341  0.15696  0.35474  1.0000
  C   C14       1.0  0.6746899999999999  0.7817799999999999  0.46666999999999986  1.0000
  C   C15       1.0  0.48762999999999995  0.59387  0.25813  1.0000
  C   C16       1.0  0.3298  0.21696  0.18789999999999998  1.0000
  C   C17       1.0  0.65675  0.26442999999999994  0.33208  1.0000
  C   C18       1.0  0.31599  0.70855  0.03741  1.0000
  C   C19       1.0  0.9487100000000002  0.79476  0.27805  1.0000
  C   C20       1.0  0.77192  0.6489199999999998  0.47180999999999995  1.0000
  C   C21       1.0  0.40514  0.13221999999999995  0.24876999999999994  1.0000
  C   C22       1.0  0.2526199999999999  0.21992  0.14138  1.0000
  C   C23       1.0  0.05165  0.65269  0.37037  1.0000
  C   C24       1.0  0.84086  0.6005599999999999  0.50441  1.0000
  C   C25       1.0  0.96018  0.60469  0.2777  1.0000
  C   C26       1.0  0.6063  0.15761  0.39893  1.0000
  C   C27       1.0  0.52607  0.63123  0.31049  1.0000
  C   C28       1.0  0.28596  0.81862  0.1734  1.0000
  C   C29       1.0  0.20659  0.8463399999999998  0.08788999999999998  1.0000
  C   C30       1.0  0.86534  0.84727  0.12514  1.0000
  C   C31       1.0  0.66523  0.65341  0.38973  1.0000
  C   C32       1.0  0.37545  0.63829  0.00867  1.0000
  C   C33       1.0  0.40245  0.29733  0.21414  1.0000
  C   C34       1.0  0.30907  0.8467599999999997  0.28083  1.0000
  C   C35       1.0  0.90863  0.72319  0.23237999999999995  1.0000
  C   C36       1.0  0.47584  0.2952099999999999  0.25709  1.0000
  C   C37       1.0  0.54565  0.53494  0.22814999999999996  1.0000
  C   C38       1.0  0.33207  0.1343  0.20562  1.0000
  C   C39       1.0  0.27279  0.79836  0.11694  1.0000
  C   C40       1.0  0.6348099999999999  0.73992  0.41452  1.0000
  C   C41       1.0  0.32565999999999995  0.7277299999999999  0.09068  1.0000
  C   C42       1.0  0.38029  0.80449  0.20343  1.0000
  C   C43       1.0  0.99533  0.7721  0.3226  1.0000
  C   C44       1.0  0.70525  0.21088  0.4095  1.0000
  C   C45       1.0  0.7861699999999998  0.78377  0.08886  1.0000
  C   C46       1.0  0.74252  0.736  0.49555999999999994  1.0000
  C   C47       1.0  0.74527  0.70201  0.10039  1.0000
  C   C48       1.0  0.83408  0.32323999999999997  0.38782  1.0000
  C   C49       1.0  0.62399  0.6113099999999998  0.33432  1.0000
  C   C50       1.0  0.25096  0.75703  0.0093  1.0000
  C   C51       1.0  0.0014999999999999924  0.67683  0.32272  1.0000
  C   C52       1.0  0.64254  0.51354  0.25147  1.0000
  C   C53       1.0  0.7842  0.68387  0.1476  1.0000
  C   C54       1.0  0.68135  0.55146  0.3038  1.0000
  C   C55       1.0  0.50586  0.49651  0.17204  1.0000
  C   C56       1.0  0.20464  0.8499899999999999  0.19872999999999996  1.0000
  C   C57       1.0  0.7352199999999999  0.60893  0.41908  1.0000
  C   C58       1.0  0.91297  0.9311399999999999  0.11143  1.0000
  C   C59       1.0  0.21593999999999997  0.86359  0.25163  1.0000
  C   C60       1.0  0.32126  0.86052  0.33738  1.0000
  C   C61       1.0  0.42409  0.89801  0.56496  1.0000
  C   C62       1.0  0.3382  0.3669  0.93986  1.0000
  C   C63       1.0  0.87346  0.12931999999999994  0.9992299999999998  1.0000
  C   C64       1.0  0.8013  0.1722  0.96516  1.0000
  C   C65       1.0  0.61159  0.1799199999999999  0.7426299999999999  1.0000
  C   C66       1.0  0.26892  0.73509  0.62323  1.0000
  C   C67       1.0  0.4419199999999999  0.78762  0.67858  1.0000
  C   C68       1.0  0.52011  0.78577  0.72403  1.0000
  C   C69       1.0  0.08596  0.3732399999999999  0.76728  1.0000
  C   C70       1.0  0.09558999999999994  0.17308999999999988  0.8284899999999998  1.0000
  C   C71       1.0  0.13651  0.2554399999999999  0.8169  1.0000
  C   C72       1.0  0.35296  0.12592  0.50884  1.0000
  C   C73       1.0  0.46554  0.84255  0.64519  1.0000
  C   C74       1.0  0.32370999999999994  0.21976  0.53429  1.0000
  C   C75       1.0  0.50685  0.4097099999999999  0.74331  1.0000
  C   C76       1.0  0.6688199999999997  0.7820599999999999  0.8113699999999998  1.0000
  C   C77       1.0  0.34207  0.7338899999999998  0.66693  1.0000
  C   C78       1.0  0.68192  0.2887399999999999  0.9599099999999998  1.0000
  C   C79       1.0  0.053960000000000015  0.20599  0.72283  1.0000
  C   C80       1.0  0.22658999999999999  0.3523  0.52852  1.0000
  C   C81       1.0  0.5938299999999999  0.8662199999999998  0.7502799999999998  1.0000
  C   C82       1.0  0.74563  0.77916  0.85797  1.0000
  C   C83       1.0  0.94756  0.3472299999999999  0.6303899999999999  1.0000
  C   C84       1.0  0.15769  0.4001799999999999  0.4957699999999999  1.0000
  C   C85       1.0  0.03954  0.39518  0.72252  1.0000
  C   C86       1.0  0.39326999999999995  0.8424599999999997  0.60097  1.0000
  C   C87       1.0  0.4694599999999998  0.3713599999999999  0.6909599999999998  1.0000
  C   C88       1.0  0.7163399999999999  0.17756  0.82524  1.0000
  C   C89       1.0  0.79203  0.14981999999999987  0.9116199999999998  1.0000
  C   C90       1.0  0.13148999999999994  0.15496999999999997  0.87606  1.0000
  C   C91       1.0  0.3321399999999999  0.34866  0.61098  1.0000
  C   C92       1.0  0.6236300000000002  0.36232  0.98638  1.0000
  C   C93       1.0  0.5967699999999998  0.7014099999999999  0.7851499999999998  1.0000
  C   C94       1.0  0.69467  0.15245000000000006  0.71826  1.0000
  C   C95       1.0  0.09301999999999995  0.27812999999999993  0.7683899999999999  1.0000
  C   C96       1.0  0.52328  0.7032699999999998  0.74224  1.0000
  C   C97       1.0  0.4488400000000001  0.47009  0.77246  1.0000
  C   C98       1.0  0.66676  0.8646199999999998  0.79354  1.0000
  C   C99       1.0  0.7283499999999999  0.19791999999999996  0.88165  1.0000
  C   C100      1.0  0.3627  0.2619500000000001  0.58653  1.0000
  C   C101      1.0  0.6761900000000001  0.26992  0.90693  1.0000
  C   C102      1.0  0.6222700000000001  0.1923099999999999  0.79532  1.0000
  C   C103      1.0  0.006590000000000017  0.22758  0.67804  1.0000
  C   C104      1.0  0.29449  0.7886  0.58977  1.0000
  C   C105      1.0  0.2106799999999999  0.2176999999999999  0.9126099999999999  1.0000
  C   C106      1.0  0.2561  0.26511  0.5051  1.0000
  C   C107      1.0  0.25332999999999994  0.29892999999999986  0.9012499999999999  1.0000
  C   C108      1.0  0.1642  0.6771099999999998  0.61115  1.0000
  C   C109      1.0  0.3725399999999999  0.39176999999999984  0.6663699999999999  1.0000
  C   C110      1.0  0.7436500000000001  0.2398  0.98914  1.0000
  C   C111      1.0  0.99873  0.3225599999999999  0.6776899999999998  1.0000
  C   C112      1.0  0.3534199999999999  0.4924899999999999  0.7483599999999998  1.0000
  C   C113      1.0  0.21634999999999996  0.31766999999999984  0.8538999999999998  1.0000
  C   C114      1.0  0.31545  0.4535  0.69604  1.0000
  C   C115      1.0  0.48722  0.50819  0.82868  1.0000
  C   C116      1.0  0.7978799999999999  0.14643999999999993  0.80013  1.0000
  C   C117      1.0  0.26292  0.39294  0.58119  1.0000
  C   C118      1.0  0.08233  0.07142999999999991  0.8893999999999999  1.0000
  C   C119      1.0  0.78731  0.13446  0.74732  1.0000
  C   C120      1.0  0.682  0.14073999999999995  0.66192  1.0000
  O   O1        1.0  0.08092999999999999  0.9427199999999999  0.02136  1.0000
  O   O2        1.0  0.48917000000000005  0.050159999999999996  0.42114  1.0000
  O   O3        1.0  0.87326  0.94923  0.06906  1.0000
  O   O4        1.0  0.12252  0.70868  0.40269  1.0000
  O   O5        1.0  0.63641  0.64403  0.01729  1.0000
  O   O6        1.0  0.6390099999999999  0.11583999999999996  0.47884999999999994  1.0000
  O   O7        1.0  0.90256  0.3197399999999999  0.4268799999999999  1.0000
  O   O8        1.0  0.9953599999999999  0.98229  0.14119  1.0000
  O   O9        1.0  0.8974  0.53907  0.48326  1.0000
  O   O10       1.0  0.16371999999999992  0.1656  0.13115  1.0000
  O   O11       1.0  0.43838  0.53738  0.14776  1.0000
  O   O12       1.0  0.7076300000000001  0.92631  0.53247  1.0000
  O   O13       1.0  0.2619  0.91153  0.36174  1.0000
  O   O14       1.0  0.39385  0.82424  0.36169  1.0000
  O   O15       1.0  0.3900799999999999  0.64786  0.96528  1.0000
  O   O16       1.0  0.62169  0.56488  0.07827999999999999  1.0000
  O   O17       1.0  0.5607199999999999  0.90285  0.4724399999999999  1.0000
  O   O18       1.0  0.84381  0.62024  0.55235  1.0000
  O   O19       1.0  0.8527800000000001  0.38  0.36009  1.0000
  O   O20       1.0  0.017659999999999985  0.57072  0.37608  1.0000
  O   O21       1.0  0.54075  0.42343  0.14764  1.0000
  O   O22       1.0  0.40941999999999995  0.5736699999999999  0.02883  1.0000
  O   O23       1.0  0.10182  0.8330199999999998  0.95284  1.0000
  O   O24       1.0  0.2739  0.27277  0.11369  1.0000
  O   O25       1.0  0.9155499999999998  0.05572999999999995  0.9797499999999999  1.0000
  O   O26       1.0  0.50976  0.95373  0.58087  1.0000
  O   O27       1.0  0.12366999999999999  0.050850000000000006  0.93088  1.0000
  O   O28       1.0  0.87771  0.2911  0.59741  1.0000
  O   O29       1.0  0.3589499999999998  0.35665999999999976  0.9853299999999998  1.0000
  O   O30       1.0  0.36346  0.88458  0.52123  1.0000
  O   O31       1.0  0.09803000000000002  0.6782399999999998  0.57088  1.0000
  O   O32       1.0  0.998  0.02282000000000001  0.86021  1.0000
  O   O33       1.0  0.10079  0.46141  0.51685  1.0000
  O   O34       1.0  0.83179  0.83784  0.8697  1.0000
  O   O35       1.0  0.5557499999999999  0.46776999999999996  0.8526099999999998  1.0000
  O   O36       1.0  0.2918099999999999  0.07408  0.46913  1.0000
  O   O37       1.0  0.7427099999999999  0.09287000000000001  0.6369  1.0000
  O   O38       1.0  0.60679  0.17548  0.63829  1.0000
  O   O39       1.0  0.59545  0.35227  0.02719  1.0000
  O   O40       1.0  0.38382  0.4309599999999999  0.92388  1.0000
  O   O41       1.0  0.44022  0.10132999999999999  0.52851  1.0000
  O   O42       1.0  0.15495000000000003  0.3803899999999999  0.44782999999999995  1.0000
  O   O43       1.0  0.14252000000000004  0.62411  0.64035  1.0000
  O   O44       1.0  0.97922  0.43061999999999984  0.6255599999999998  1.0000
  O   O45       1.0  0.45011999999999996  0.57971  0.8530799999999997  1.0000
  O   O46       1.0  0.60526  0.43106  0.96654  1.0000
  O   O47       1.0  0.89392  0.16705  0.04729  1.0000
  O   O48       1.0  0.7268199999999998  0.72281  0.8841099999999997  1.0000
