data_image0
_chemical_formula_structural       Mg12H72C136O56
_chemical_formula_sum              "Mg12 H72 C136 O56"
_cell_length_a       11.36031
_cell_length_b       16.71251
_cell_length_c       22.88776
_cell_angle_alpha    90.0
_cell_angle_beta     90.0
_cell_angle_gamma    92.28511

_space_group_name_H-M_alt    "P 1"
_space_group_IT_number       1

loop_
  _space_group_symop_operation_xyz
  'x, y, z'

loop_
  _atom_site_type_symbol
  _atom_site_label
  _atom_site_symmetry_multiplicity
  _atom_site_fract_x
  _atom_site_fract_y
  _atom_site_fract_z
  _atom_site_occupancy
  Mg  Mg1       1.0  0.53282  0.46668  0.7496  1.0000
  Mg  Mg2       1.0  0.41035  0.28394  0.6908  1.0000
  Mg  Mg3       1.0  0.62424  0.63971  0.82206  1.0000
  Mg  Mg4       1.0  0.46718000000000004  0.03332  0.2496  1.0000
  Mg  Mg5       1.0  0.5896500000000001  0.21605999999999995  0.1908  1.0000
  Mg  Mg6       1.0  0.37576  0.86029  0.32206  1.0000
  Mg  Mg7       1.0  0.46718000000000004  0.53332  0.2504  1.0000
  Mg  Mg8       1.0  0.5896500000000001  0.7160599999999998  0.3092  1.0000
  Mg  Mg9       1.0  0.37576  0.3602899999999999  0.17793999999999996  1.0000
  Mg  Mg10      1.0  0.53281  0.9666799999999999  0.7504099999999999  1.0000
  Mg  Mg11      1.0  0.41035  0.78394  0.8092  1.0000
  Mg  Mg12      1.0  0.62424  0.13970999999999997  0.67794  1.0000
  H   H1        1.0  0.69331  0.52074  0.9828399999999999  1.0000
  H   H2        1.0  0.70572  0.44189  0.07572  1.0000
  H   H3        1.0  0.43822  0.35985  0.8576999999999999  1.0000
  H   H4        1.0  0.32104  0.2343  0.8696299999999999  1.0000
  H   H5        1.0  0.32467000000000007  0.15972  0.9649  1.0000
  H   H6        1.0  0.44372000000000006  0.21439  0.04713  1.0000
  H   H7        1.0  0.26131  0.43286  0.58737  1.0000
  H   H8        1.0  0.08529000000000002  0.45292  0.52626  1.0000
  H   H9        1.0  0.9135700000000001  0.49378  0.67109  1.0000
  H   H10       1.0  0.11876  0.4448  0.66342  1.0000
  H   H11       1.0  0.83314  0.5018199999999998  0.87646  1.0000
  H   H12       1.0  0.9389800000000001  0.46004  0.96491  1.0000
  H   H13       1.0  0.14582  0.41528  0.95749  1.0000
  H   H14       1.0  0.24408  0.41058  0.86136  1.0000
  H   H15       1.0  0.38304  0.5941599999999999  0.6991099999999999  1.0000
  H   H16       1.0  0.7149300000000001  0.33962  0.7721299999999999  1.0000
  H   H17       1.0  0.69568  0.4576  0.61465  1.0000
  H   H18       1.0  0.89276  0.49015999999999993  0.57401  1.0000
  H   H19       1.0  0.3066900000000001  0.9792600000000001  0.48284  1.0000
  H   H20       1.0  0.29427  0.058109999999999995  0.57572  1.0000
  H   H21       1.0  0.56178  0.14015  0.3577  1.0000
  H   H22       1.0  0.67896  0.2657  0.36963  1.0000
  H   H23       1.0  0.6753300000000001  0.34028  0.4649  1.0000
  H   H24       1.0  0.55628  0.28560999999999986  0.54713  1.0000
  H   H25       1.0  0.73869  0.06714  0.08737  1.0000
  H   H26       1.0  0.9147100000000001  0.04708  0.02626  1.0000
  H   H27       1.0  0.08643  0.00622  0.17109  1.0000
  H   H28       1.0  0.88124  0.055199999999999985  0.16342  1.0000
  H   H29       1.0  0.16686  0.99818  0.37646  1.0000
  H   H30       1.0  0.06102  0.03995  0.4649  1.0000
  H   H31       1.0  0.8541800000000002  0.08472  0.45749  1.0000
  H   H32       1.0  0.7559200000000003  0.08942  0.36135999999999996  1.0000
  H   H33       1.0  0.61695  0.90583  0.19911  1.0000
  H   H34       1.0  0.28507  0.16037999999999994  0.27213  1.0000
  H   H35       1.0  0.30432  0.0424  0.11465  1.0000
  H   H36       1.0  0.10724000000000002  0.00984  0.07401  1.0000
  H   H37       1.0  0.30669  0.47926  0.01717  1.0000
  H   H38       1.0  0.29427  0.55811  0.92428  1.0000
  H   H39       1.0  0.56178  0.6401499999999998  0.1423  1.0000
  H   H40       1.0  0.67896  0.7657  0.13037  1.0000
  H   H41       1.0  0.6753300000000001  0.84028  0.0351  1.0000
  H   H42       1.0  0.55628  0.78561  0.9528699999999999  1.0000
  H   H43       1.0  0.73869  0.56714  0.41263  1.0000
  H   H44       1.0  0.9147100000000001  0.54708  0.47374  1.0000
  H   H45       1.0  0.08643  0.50622  0.32891  1.0000
  H   H46       1.0  0.88124  0.5552  0.33658  1.0000
  H   H47       1.0  0.16686  0.49817999999999996  0.12354  1.0000
  H   H48       1.0  0.06102  0.5399499999999999  0.0351  1.0000
  H   H49       1.0  0.8541800000000002  0.58472  0.04251  1.0000
  H   H50       1.0  0.7559100000000002  0.58942  0.13864  1.0000
  H   H51       1.0  0.61695  0.40583  0.30089  1.0000
  H   H52       1.0  0.28507  0.66038  0.22787  1.0000
  H   H53       1.0  0.30432  0.5424  0.38534999999999997  1.0000
  H   H54       1.0  0.10724000000000002  0.50984  0.42599  1.0000
  H   H55       1.0  0.69331  0.02074  0.51717  1.0000
  H   H56       1.0  0.70572  0.94189  0.42428  1.0000
  H   H57       1.0  0.43821  0.85985  0.64231  1.0000
  H   H58       1.0  0.32104  0.7343  0.63037  1.0000
  H   H59       1.0  0.32466  0.6597199999999998  0.5351  1.0000
  H   H60       1.0  0.44372000000000006  0.71439  0.45287  1.0000
  H   H61       1.0  0.26131  0.93286  0.91263  1.0000
  H   H62       1.0  0.08529  0.95292  0.97374  1.0000
  H   H63       1.0  0.9135700000000001  0.99378  0.82891  1.0000
  H   H64       1.0  0.11876  0.9447999999999998  0.8365799999999999  1.0000
  H   H65       1.0  0.83314  0.00182  0.62354  1.0000
  H   H66       1.0  0.9389800000000001  0.96004  0.5351  1.0000
  H   H67       1.0  0.14582  0.91528  0.54251  1.0000
  H   H68       1.0  0.24408  0.9105799999999997  0.63864  1.0000
  H   H69       1.0  0.38304  0.09416  0.80089  1.0000
  H   H70       1.0  0.7149300000000001  0.83962  0.72787  1.0000
  H   H71       1.0  0.69568  0.9575999999999998  0.88535  1.0000
  H   H72       1.0  0.89276  0.9901599999999999  0.92599  1.0000
  C   C1        1.0  0.58473  0.48491  0.88534  1.0000
  C   C2        1.0  0.57703  0.4359  0.94047  1.0000
  C   C3        1.0  0.6442400000000001  0.46394999999999986  0.98783  1.0000
  C   C4        1.0  0.6494200000000001  0.4207  0.04001  1.0000
  C   C5        1.0  0.58029  0.35087999999999997  0.04717999999999999  1.0000
  C   C6        1.0  0.50818  0.32007  0.00054  1.0000
  C   C7        1.0  0.50793  0.36239  0.9456399999999999  1.0000
  C   C8        1.0  0.43771  0.3291799999999999  0.89943  1.0000
  C   C9        1.0  0.37231  0.25798  0.9064  1.0000
  C   C10       1.0  0.3745800000000001  0.21624  0.9597799999999999  1.0000
  C   C11       1.0  0.44113  0.24676999999999996  0.00601  1.0000
  C   C12       1.0  0.5857  0.3089  0.10454  1.0000
  C   C13       1.0  0.47424  0.43752999999999986  0.6189  1.0000
  C   C14       1.0  0.6015200000000002  0.4898199999999999  0.53579  1.0000
  C   C15       1.0  0.4873500000000001  0.47006  0.55781  1.0000
  C   C16       1.0  0.38575  0.47939999999999994  0.52281  1.0000
  C   C17       1.0  0.27068  0.45904  0.54404  1.0000
  C   C18       1.0  0.17252  0.46983999999999987  0.50965  1.0000
  C   C19       1.0  0.7898300000000001  0.52357  0.76569  1.0000
  C   C20       1.0  0.9127400000000001  0.49416  0.76436  1.0000
  C   C21       1.0  0.9646  0.48195  0.71012  1.0000
  C   C22       1.0  0.07929  0.45499  0.70594  1.0000
  C   C23       1.0  0.14448  0.43992  0.75606  1.0000
  C   C24       1.0  0.09342000000000002  0.44972  0.8124799999999999  1.0000
  C   C25       1.0  0.97509  0.47671  0.81681  1.0000
  C   C26       1.0  0.92225  0.4809899999999999  0.8729499999999999  1.0000
  C   C27       1.0  0.9824600000000002  0.45850999999999986  0.92257  1.0000
  C   C28       1.0  0.09897  0.43304  0.91837  1.0000
  C   C29       1.0  0.1539  0.4296  0.86442  1.0000
  C   C30       1.0  0.26659  0.41024  0.74815  1.0000
  C   C31       1.0  0.42532  0.62805  0.73514  1.0000
  C   C32       1.0  0.65096  0.3062499999999999  0.74438  1.0000
  C   C33       1.0  0.7045  0.47934  0.56997  1.0000
  C   C34       1.0  0.8149300000000002  0.49856999999999996  0.54735  1.0000
  C   C35       1.0  0.41527  0.015089999999999998  0.38534  1.0000
  C   C36       1.0  0.42297000000000007  0.0641  0.44047  1.0000
  C   C37       1.0  0.35576  0.03605  0.48783  1.0000
  C   C38       1.0  0.35058  0.07929999999999997  0.54001  1.0000
  C   C39       1.0  0.41971000000000014  0.14911999999999995  0.54718  1.0000
  C   C40       1.0  0.49182  0.17993  0.50054  1.0000
  C   C41       1.0  0.49207000000000006  0.1376  0.44564  1.0000
  C   C42       1.0  0.56229  0.17082  0.39943  1.0000
  C   C43       1.0  0.62769  0.24201999999999999  0.40639999999999993  1.0000
  C   C44       1.0  0.62542  0.28376  0.45978  1.0000
  C   C45       1.0  0.5588700000000001  0.25323  0.50601  1.0000
  C   C46       1.0  0.41430000000000006  0.1911  0.60454  1.0000
  C   C47       1.0  0.52575  0.06246999999999999  0.1189  1.0000
  C   C48       1.0  0.3984800000000001  0.01018  0.03579  1.0000
  C   C49       1.0  0.51264  0.029939999999999994  0.05780999999999999  1.0000
  C   C50       1.0  0.6142400000000001  0.0206  0.02281  1.0000
  C   C51       1.0  0.72932  0.04096  0.04404  1.0000
  C   C52       1.0  0.8274800000000001  0.03016  0.00964  1.0000
  C   C53       1.0  0.21017000000000002  0.9764299999999999  0.26569  1.0000
  C   C54       1.0  0.08726  0.00584  0.26436  1.0000
  C   C55       1.0  0.0354  0.01805  0.21012  1.0000
  C   C56       1.0  0.9207100000000001  0.04500999999999999  0.20593999999999998  1.0000
  C   C57       1.0  0.85552  0.060079999999999995  0.25606  1.0000
  C   C58       1.0  0.9065800000000003  0.05028  0.31248  1.0000
  C   C59       1.0  0.0249  0.023289999999999995  0.31681  1.0000
  C   C60       1.0  0.07775  0.019009999999999992  0.37293999999999994  1.0000
  C   C61       1.0  0.01754  0.04149  0.42256999999999995  1.0000
  C   C62       1.0  0.9010300000000001  0.06696  0.41837  1.0000
  C   C63       1.0  0.8461000000000001  0.0704  0.36442  1.0000
  C   C64       1.0  0.7334100000000001  0.08976  0.24815  1.0000
  C   C65       1.0  0.57467  0.87195  0.23514  1.0000
  C   C66       1.0  0.34904  0.19375  0.24437999999999996  1.0000
  C   C67       1.0  0.29549  0.02066  0.06997  1.0000
  C   C68       1.0  0.18507000000000007  0.00143  0.047349999999999996  1.0000
  C   C69       1.0  0.41526  0.51509  0.11465999999999998  1.0000
  C   C70       1.0  0.42297000000000007  0.5641  0.05952999999999999  1.0000
  C   C71       1.0  0.35576  0.53605  0.012169999999999999  1.0000
  C   C72       1.0  0.35058  0.5792999999999998  0.9599999999999999  1.0000
  C   C73       1.0  0.41971000000000014  0.6491199999999998  0.9528199999999999  1.0000
  C   C74       1.0  0.49182  0.67993  0.99946  1.0000
  C   C75       1.0  0.49206000000000005  0.6376  0.05436  1.0000
  C   C76       1.0  0.56229  0.6708199999999999  0.10057  1.0000
  C   C77       1.0  0.62769  0.74202  0.0936  1.0000
  C   C78       1.0  0.62542  0.7837599999999999  0.04022  1.0000
  C   C79       1.0  0.5588700000000001  0.7532299999999998  0.99399  1.0000
  C   C80       1.0  0.41430000000000006  0.6911  0.89546  1.0000
  C   C81       1.0  0.52575  0.56247  0.3811  1.0000
  C   C82       1.0  0.3984800000000001  0.51018  0.46421  1.0000
  C   C83       1.0  0.51264  0.52994  0.44219  1.0000
  C   C84       1.0  0.6142400000000001  0.5206  0.47719  1.0000
  C   C85       1.0  0.72932  0.54096  0.45596  1.0000
  C   C86       1.0  0.8274800000000001  0.5301599999999999  0.49036  1.0000
  C   C87       1.0  0.21017000000000002  0.47643  0.23431999999999997  1.0000
  C   C88       1.0  0.08726  0.50584  0.23565  1.0000
  C   C89       1.0  0.0354  0.51805  0.28988  1.0000
  C   C90       1.0  0.9207100000000001  0.5450099999999998  0.29406  1.0000
  C   C91       1.0  0.85552  0.56008  0.24395  1.0000
  C   C92       1.0  0.9065800000000003  0.5502799999999998  0.18752  1.0000
  C   C93       1.0  0.0249  0.52329  0.18319  1.0000
  C   C94       1.0  0.07775000000000003  0.51901  0.12706  1.0000
  C   C95       1.0  0.01753  0.54149  0.07743  1.0000
  C   C96       1.0  0.90102  0.56696  0.08163  1.0000
  C   C97       1.0  0.8461000000000001  0.5703999999999998  0.13558  1.0000
  C   C98       1.0  0.7334100000000001  0.58976  0.25185  1.0000
  C   C99       1.0  0.57468  0.37195  0.26486  1.0000
  C   C100      1.0  0.34904  0.6937399999999998  0.25562  1.0000
  C   C101      1.0  0.29549  0.52066  0.43003  1.0000
  C   C102      1.0  0.18507000000000007  0.50143  0.45265  1.0000
  C   C103      1.0  0.58473  0.98491  0.61466  1.0000
  C   C104      1.0  0.57703  0.9358999999999997  0.55953  1.0000
  C   C105      1.0  0.6442400000000001  0.9639499999999999  0.51217  1.0000
  C   C106      1.0  0.6494200000000001  0.9207  0.45998999999999995  1.0000
  C   C107      1.0  0.58029  0.85088  0.45282  1.0000
  C   C108      1.0  0.50818  0.82007  0.49945999999999996  1.0000
  C   C109      1.0  0.50793  0.8623899999999998  0.55436  1.0000
  C   C110      1.0  0.4377  0.82918  0.60057  1.0000
  C   C111      1.0  0.37231  0.75798  0.5936  1.0000
  C   C112      1.0  0.3745800000000001  0.71624  0.54022  1.0000
  C   C113      1.0  0.44113  0.74677  0.49399  1.0000
  C   C114      1.0  0.5857  0.8089  0.3954599999999999  1.0000
  C   C115      1.0  0.47424  0.93753  0.8811  1.0000
  C   C116      1.0  0.60151  0.98982  0.9642099999999999  1.0000
  C   C117      1.0  0.4873500000000001  0.9700599999999999  0.94219  1.0000
  C   C118      1.0  0.38575  0.9793999999999999  0.9771899999999999  1.0000
  C   C119      1.0  0.27068  0.95904  0.95596  1.0000
  C   C120      1.0  0.17251999999999998  0.9698399999999999  0.99036  1.0000
  C   C121      1.0  0.7898300000000001  0.02357  0.7343199999999999  1.0000
  C   C122      1.0  0.9127400000000001  0.9941599999999999  0.7356499999999999  1.0000
  C   C123      1.0  0.9646  0.98195  0.7898799999999999  1.0000
  C   C124      1.0  0.07929  0.95499  0.79406  1.0000
  C   C125      1.0  0.14448  0.93992  0.74395  1.0000
  C   C126      1.0  0.09342000000000002  0.94972  0.68752  1.0000
  C   C127      1.0  0.97509  0.97671  0.68319  1.0000
  C   C128      1.0  0.9222499999999999  0.9809899999999999  0.62706  1.0000
  C   C129      1.0  0.9824600000000002  0.95851  0.57743  1.0000
  C   C130      1.0  0.09897  0.9330399999999998  0.58163  1.0000
  C   C131      1.0  0.15389000000000003  0.9296  0.63559  1.0000
  C   C132      1.0  0.26658999999999994  0.9102399999999998  0.75186  1.0000
  C   C133      1.0  0.42532  0.12805  0.76486  1.0000
  C   C134      1.0  0.65096  0.80625  0.75562  1.0000
  C   C135      1.0  0.7045  0.9793399999999999  0.93003  1.0000
  C   C136      1.0  0.8149300000000002  0.99857  0.9526499999999999  1.0000
  O   O1        1.0  0.56648  0.44966  0.83694  1.0000
  O   O2        1.0  0.61248  0.55942  0.89127  1.0000
  O   O3        1.0  0.48801  0.29005  0.13217  1.0000
  O   O4        1.0  0.6831999999999999  0.29015  0.12532  1.0000
  O   O5        1.0  0.43486  0.36589  0.62244  1.0000
  O   O6        1.0  0.50405  0.48429000000000005  0.66028  1.0000
  O   O7        1.0  0.7140400000000002  0.4852  0.7344999999999999  1.0000
  O   O8        1.0  0.7722000000000001  0.58399  0.79765  1.0000
  O   O9        1.0  0.27317  0.34529  0.71986  1.0000
  O   O10       1.0  0.35209  0.4523099999999999  0.76875  1.0000
  O   O11       1.0  0.5062500000000001  0.59131  0.7630199999999999  1.0000
  O   O12       1.0  0.39299000000000006  0.69747  0.74524  1.0000
  O   O13       1.0  0.55345  0.34103  0.7341099999999999  1.0000
  O   O14       1.0  0.6783800000000001  0.23892  0.72552  1.0000
  O   O15       1.0  0.4335200000000001  0.05034  0.33693  1.0000
  O   O16       1.0  0.3875100000000001  0.94058  0.39127  1.0000
  O   O17       1.0  0.51198  0.20995  0.63217  1.0000
  O   O18       1.0  0.3168000000000001  0.20984999999999995  0.62532  1.0000
  O   O19       1.0  0.5651400000000001  0.13411  0.12244  1.0000
  O   O20       1.0  0.49595000000000006  0.01571  0.16028  1.0000
  O   O21       1.0  0.28596  0.014799999999999997  0.23449999999999996  1.0000
  O   O22       1.0  0.2278  0.91601  0.29765  1.0000
  O   O23       1.0  0.7268300000000001  0.15471  0.21986  1.0000
  O   O24       1.0  0.64791  0.04769  0.26875  1.0000
  O   O25       1.0  0.49375  0.90869  0.26302  1.0000
  O   O26       1.0  0.60701  0.80253  0.24523999999999999  1.0000
  O   O27       1.0  0.44655  0.15897  0.23409999999999997  1.0000
  O   O28       1.0  0.32162  0.26108  0.22551999999999997  1.0000
  O   O29       1.0  0.4335200000000001  0.55034  0.16307  1.0000
  O   O30       1.0  0.3875100000000001  0.4405799999999999  0.10872999999999998  1.0000
  O   O31       1.0  0.51198  0.70995  0.86783  1.0000
  O   O32       1.0  0.3168000000000001  0.70985  0.87468  1.0000
  O   O33       1.0  0.5651400000000001  0.63411  0.37756  1.0000
  O   O34       1.0  0.49594  0.5157099999999998  0.33972  1.0000
  O   O35       1.0  0.28596  0.5148  0.2655  1.0000
  O   O36       1.0  0.2278  0.41601  0.20235999999999998  1.0000
  O   O37       1.0  0.7268300000000001  0.65471  0.28014  1.0000
  O   O38       1.0  0.64791  0.54769  0.23125  1.0000
  O   O39       1.0  0.49375  0.40869  0.23698999999999998  1.0000
  O   O40       1.0  0.60701  0.30253  0.25476  1.0000
  O   O41       1.0  0.44655  0.6589699999999997  0.2659  1.0000
  O   O42       1.0  0.32162  0.76108  0.27448  1.0000
  O   O43       1.0  0.56648  0.9496599999999997  0.66307  1.0000
  O   O44       1.0  0.61248  0.05942  0.60873  1.0000
  O   O45       1.0  0.48800999999999994  0.7900499999999998  0.36783  1.0000
  O   O46       1.0  0.6832  0.79015  0.37467999999999996  1.0000
  O   O47       1.0  0.43486  0.8658899999999998  0.87756  1.0000
  O   O48       1.0  0.5040499999999999  0.98429  0.83972  1.0000
  O   O49       1.0  0.7140400000000002  0.9852  0.7655  1.0000
  O   O50       1.0  0.7722000000000001  0.08399  0.70236  1.0000
  O   O51       1.0  0.27317  0.8452899999999998  0.7801399999999998  1.0000
  O   O52       1.0  0.3520900000000001  0.95231  0.73125  1.0000
  O   O53       1.0  0.5062500000000001  0.09131  0.73699  1.0000
  O   O54       1.0  0.39299000000000006  0.19747  0.75476  1.0000
  O   O55       1.0  0.55345  0.84103  0.7659  1.0000
  O   O56       1.0  0.6783800000000001  0.7389199999999998  0.77448  1.0000
