data_image0
_chemical_formula_structural       Cd4H84C132N36O16
_chemical_formula_sum              "Cd4 H84 C132 N36 O16"
_cell_length_a       10.45663
_cell_length_b       18.9963
_cell_length_c       20.10073
_cell_angle_alpha    89.48713
_cell_angle_beta     90.55014
_cell_angle_gamma    94.63585999999998

_symmetry_space_group_name_H-M    'P 1'
_symmetry_Int_Tables_number       1

loop_
  _symmetry_equiv_pos_as_xyz
  'x,y,z'

loop_
  _atom_site_type_symbol
  _atom_site_label
  _atom_site_symmetry_multiplicity
  _atom_site_fract_x
  _atom_site_fract_y
  _atom_site_fract_z
  _atom_site_occupancy
  Cd  Cd1       1.0  0.65546  0.50577  0.55701  1.0000
  Cd  Cd2       1.0  0.34482  0.99362  0.05527999999999999  1.0000
  Cd  Cd3       1.0  0.34459  0.4942500000000001  0.44298999999999994  1.0000
  Cd  Cd4       1.0  0.65529  0.006400000000000004  0.9446799999999997  1.0000
  H   H1        1.0  0.8459  0.13064  0.57513  1.0000
  H   H2        1.0  0.27962  0.8164600000000002  0.6227999999999999  1.0000
  H   H3        1.0  0.72254  0.67075  0.49393  1.0000
  H   H4        1.0  0.73398  0.23073  0.60527  1.0000
  H   H5        1.0  0.62981  0.78645  0.48558999999999997  1.0000
  H   H6        1.0  0.04369  0.34861  0.49967  1.0000
  H   H7        1.0  0.4186  0.5840200000000002  0.60743  1.0000
  H   H8        1.0  0.30945  0.6945900000000003  0.60162  1.0000
  H   H9        1.0  0.9143  0.45180000000000003  0.50207  1.0000
  H   H10       1.0  0.86814  0.02628000000000001  0.63909  1.0000
  H   H11       1.0  0.22628000000000004  0.03161  0.53261  1.0000
  H   H12       1.0  0.61744  0.34016  0.60162  1.0000
  H   H13       1.0  0.03715  0.83933  0.61478  1.0000
  H   H14       1.0  0.7940900000000001  0.78171  0.18593  1.0000
  H   H15       1.0  0.56769  0.67306  0.34231  1.0000
  H   H16       1.0  0.9223199999999999  0.8729300000000001  0.11891  1.0000
  H   H17       1.0  0.13346  0.73644  0.29519  1.0000
  H   H18       1.0  0.70689  0.7599900000000002  0.27795  1.0000
  H   H19       1.0  0.02180000000000004  0.6283700000000002  0.30210999999999993  1.0000
  H   H20       1.0  0.88483  0.54633  0.37362999999999996  1.0000
  H   H21       1.0  0.25813  0.8331400000000002  0.23238999999999999  1.0000
  H   H22       1.0  0.15735999999999997  0.3691  0.07611  1.0000
  H   H23       1.0  0.72474  0.68259  0.12167999999999998  1.0000
  H   H24       1.0  0.2758  0.8286300000000002  0.9930599999999999  1.0000
  H   H25       1.0  0.26963  0.2673200000000001  0.10789  1.0000
  H   H26       1.0  0.37015  0.71376  0.98392  1.0000
  H   H27       1.0  0.95562  0.15301  0.0013199999999999998  1.0000
  H   H28       1.0  0.58272  0.9139400000000001  0.10694999999999999  1.0000
  H   H29       1.0  0.6934900000000002  0.8042800000000002  0.1002  1.0000
  H   H30       1.0  0.08448  0.04957  0.00239  1.0000
  H   H31       1.0  0.13678000000000004  0.4730800000000001  0.14124  1.0000
  H   H32       1.0  0.77634  0.46856  0.03344  1.0000
  H   H33       1.0  0.38565  0.15789  0.1025  1.0000
  H   H34       1.0  0.9674699999999999  0.66031  0.11422999999999998  1.0000
  H   H35       1.0  0.20945  0.71862  0.6858999999999998  1.0000
  H   H36       1.0  0.43462999999999996  0.83173  0.84366  1.0000
  H   H37       1.0  0.08042999999999999  0.6269  0.6201799999999998  1.0000
  H   H38       1.0  0.87188  0.7623600000000003  0.7936899999999998  1.0000
  H   H39       1.0  0.30048  0.74399  0.77815  1.0000
  H   H40       1.0  0.9775300000000001  0.86953  0.7994399999999999  1.0000
  H   H41       1.0  0.11039999999999997  0.95238  0.8718799999999999  1.0000
  H   H42       1.0  0.7471  0.66529  0.7324199999999998  1.0000
  H   H43       1.0  0.15409000000000003  0.8693600000000001  0.42487  1.0000
  H   H44       1.0  0.72037  0.18355  0.3771999999999999  1.0000
  H   H45       1.0  0.2774499999999999  0.32926  0.5060499999999999  1.0000
  H   H46       1.0  0.26601  0.76927  0.39474  1.0000
  H   H47       1.0  0.37017  0.21355  0.5144  1.0000
  H   H48       1.0  0.9563  0.65139  0.50032  1.0000
  H   H49       1.0  0.58141  0.41598000000000007  0.39255999999999996  1.0000
  H   H50       1.0  0.69055  0.3054  0.39838  1.0000
  H   H51       1.0  0.0857  0.5482  0.49793  1.0000
  H   H52       1.0  0.13184  0.9737200000000003  0.36091  1.0000
  H   H53       1.0  0.7737  0.96839  0.46739  1.0000
  H   H54       1.0  0.38255  0.65984  0.39837  1.0000
  H   H55       1.0  0.96284  0.16068  0.38522  1.0000
  H   H56       1.0  0.206  0.21834  0.81404  1.0000
  H   H57       1.0  0.43232  0.32695  0.65767  1.0000
  H   H58       1.0  0.07778  0.12711  0.8810799999999999  1.0000
  H   H59       1.0  0.8665500000000002  0.26357  0.70481  1.0000
  H   H60       1.0  0.29312000000000005  0.24002000000000004  0.72204  1.0000
  H   H61       1.0  0.9782100000000002  0.3716500000000001  0.6978799999999998  1.0000
  H   H62       1.0  0.11518  0.45369000000000004  0.6263599999999998  1.0000
  H   H63       1.0  0.74194  0.16685000000000003  0.76764  1.0000
  H   H64       1.0  0.8426400000000001  0.6309  0.92389  1.0000
  H   H65       1.0  0.27525  0.31740000000000007  0.87832  1.0000
  H   H66       1.0  0.72422  0.17138000000000006  0.00693  1.0000
  H   H67       1.0  0.73037  0.7326900000000001  0.89212  1.0000
  H   H68       1.0  0.62985  0.28624  0.01608  1.0000
  H   H69       1.0  0.04439000000000003  0.8469900000000002  0.99869  1.0000
  H   H70       1.0  0.4173  0.08606000000000003  0.8930399999999998  1.0000
  H   H71       1.0  0.30652  0.19572000000000006  0.8998  1.0000
  H   H72       1.0  0.91553  0.9504400000000001  0.9976099999999999  1.0000
  H   H73       1.0  0.86323  0.52693  0.8587599999999999  1.0000
  H   H74       1.0  0.22366  0.53144  0.9665599999999998  1.0000
  H   H75       1.0  0.61436  0.8421200000000002  0.8974999999999997  1.0000
  H   H76       1.0  0.03253  0.33969  0.88577  1.0000
  H   H77       1.0  0.79055  0.2814  0.31412  1.0000
  H   H78       1.0  0.56536  0.16826000000000005  0.15634  1.0000
  H   H79       1.0  0.9195900000000001  0.37311  0.37983999999999996  1.0000
  H   H80       1.0  0.12809  0.23766  0.2063  1.0000
  H   H81       1.0  0.69947  0.25600000000000006  0.22186  1.0000
  H   H82       1.0  0.022459999999999997  0.13047  0.20056  1.0000
  H   H83       1.0  0.8896  0.04763  0.12811  1.0000
  H   H84       1.0  0.25289  0.33471000000000006  0.26757  1.0000
  C   C1        1.0  0.46057  0.75043  0.54318  1.0000
  C   C2        1.0  0.63136  0.67794  0.51762  1.0000
  C   C3        1.0  0.39277000000000006  0.81389  0.5339  1.0000
  C   C4        1.0  0.90176  0.28047  0.5542999999999999  1.0000
  C   C5        1.0  0.7789099999999999  0.2784600000000001  0.58235  1.0000
  C   C6        1.0  0.98033  0.22073000000000004  0.5574999999999999  1.0000
  C   C7        1.0  0.5791  0.7430400000000001  0.51282  1.0000
  C   C8        1.0  0.04626  0.0393  0.58338  1.0000
  C   C9        1.0  0.9508  0.34378000000000003  0.5239  1.0000
  C   C10       1.0  0.04533000000000001  0.11496000000000003  0.5715099999999999  1.0000
  C   C11       1.0  0.46291  0.6301400000000001  0.58174  1.0000
  C   C12       1.0  0.40321  0.69277  0.57909  1.0000
  C   C13       1.0  0.87842  0.40189  0.5247099999999999  1.0000
  C   C14       1.0  0.14754000000000003  0.9306600000000002  0.5718  1.0000
  C   C15       1.0  0.948  0.00022000000000000088  0.6184699999999999  1.0000
  C   C16       1.0  0.14818  0.0033299999999999996  0.55972  1.0000
  C   C17       1.0  0.09791  0.85912  0.17247  1.0000
  C   C18       1.0  0.25067  0.89184  0.54589  1.0000
  C   C19       1.0  0.71286  0.33918  0.5806699999999999  1.0000
  C   C20       1.0  0.63403  0.55712  0.40656  1.0000
  C   C21       1.0  0.04338  0.8964000000000001  0.60642  1.0000
  C   C22       1.0  0.8744299999999999  0.70016  0.28458  1.0000
  C   C23       1.0  0.17585  0.91431  0.13319  1.0000
  C   C24       1.0  0.89662  0.79198  0.19515  1.0000
  C   C25       1.0  0.95417  0.7524600000000002  0.24516  1.0000
  C   C26       1.0  0.6674700000000001  0.6642300000000002  0.33356  1.0000
  C   C27       1.0  0.96708  0.8436600000000003  0.15838  1.0000
  C   C28       1.0  0.08652000000000003  0.76658  0.25713  1.0000
  C   C29       1.0  0.74525  0.7118900000000002  0.2963  1.0000
  C   C30       1.0  0.71739  0.60469  0.36234  1.0000
  C   C31       1.0  0.92317  0.63923  0.31199  1.0000
  C   C32       1.0  0.84611  0.5926  0.35134  1.0000
  C   C33       1.0  0.15657000000000004  0.8201900000000002  0.22217  1.0000
  C   C34       1.0  0.5408900000000001  0.7491000000000002  0.0417  1.0000
  C   C35       1.0  0.36789000000000005  0.8213300000000002  0.01677  1.0000
  C   C36       1.0  0.60904  0.68601  0.03253  1.0000
  C   C37       1.0  0.09982  0.21939000000000006  0.05645999999999999  1.0000
  C   C38       1.0  0.22361000000000003  0.22036000000000003  0.08446999999999999  1.0000
  C   C39       1.0  0.021719999999999996  0.27923  0.06001999999999998  1.0000
  C   C40       1.0  0.42114  0.7567  0.01142  1.0000
  C   C41       1.0  0.9575200000000001  0.4605000000000001  0.08489999999999999  1.0000
  C   C42       1.0  0.04936  0.15699000000000005  0.0255  1.0000
  C   C43       1.0  0.9578000000000001  0.38491  0.07374  1.0000
  C   C44       1.0  0.5379  0.86832  0.08105999999999998  1.0000
  C   C45       1.0  0.59874  0.8061600000000001  0.07783  1.0000
  C   C46       1.0  0.12145000000000002  0.09874  0.02556  1.0000
  C   C47       1.0  0.85598  0.5692600000000001  0.07181  1.0000
  C   C48       1.0  0.0566  0.49931  0.11995  1.0000
  C   C49       1.0  0.8551000000000001  0.49667  0.060509999999999994  1.0000
  C   C50       1.0  0.9059900000000001  0.6402  0.67289  1.0000
  C   C51       1.0  0.752  0.60818  0.04526  1.0000
  C   C52       1.0  0.28933  0.15961  0.08192  1.0000
  C   C53       1.0  0.36196  0.94522  0.90729  1.0000
  C   C54       1.0  0.9610100000000001  0.60328  0.10640999999999999  1.0000
  C   C55       1.0  0.12891  0.80058  0.78326  1.0000
  C   C56       1.0  0.8270999999999998  0.58523  0.63419  1.0000
  C   C57       1.0  0.1073  0.70794  0.69529  1.0000
  C   C58       1.0  0.05027  0.74732  0.7443799999999999  1.0000
  C   C59       1.0  0.33439000000000013  0.8393100000000003  0.83382  1.0000
  C   C60       1.0  0.03642999999999998  0.65597  0.6591099999999999  1.0000
  C   C61       1.0  0.9184  0.7323700000000002  0.7563299999999997  1.0000
  C   C62       1.0  0.2592  0.79106  0.79587  1.0000
  C   C63       1.0  0.2813300000000001  0.8974500000000001  0.8620199999999999  1.0000
  C   C64       1.0  0.07709  0.86027  0.8099699999999999  1.0000
  C   C65       1.0  0.15176  0.90745  0.8498099999999998  1.0000
  C   C66       1.0  0.8482000000000001  0.6785300000000002  0.7220799999999999  1.0000
  C   C67       1.0  0.53942  0.24957000000000001  0.45681999999999995  1.0000
  C   C68       1.0  0.36863  0.3220600000000001  0.48236999999999997  1.0000
  C   C69       1.0  0.60722  0.18611000000000005  0.4661  1.0000
  C   C70       1.0  0.09823000000000001  0.71953  0.4457  1.0000
  C   C71       1.0  0.22108  0.72155  0.41765  1.0000
  C   C72       1.0  0.019660000000000018  0.77927  0.4425  1.0000
  C   C73       1.0  0.42089  0.25697  0.48716999999999994  1.0000
  C   C74       1.0  0.95373  0.9607  0.41661999999999993  1.0000
  C   C75       1.0  0.04919  0.65622  0.47609  1.0000
  C   C76       1.0  0.95465  0.8850400000000002  0.42848999999999987  1.0000
  C   C77       1.0  0.5371  0.36986000000000013  0.41824999999999996  1.0000
  C   C78       1.0  0.59679  0.30723  0.42089999999999994  1.0000
  C   C79       1.0  0.12158000000000002  0.5981100000000003  0.47529  1.0000
  C   C80       1.0  0.8524500000000002  0.06935000000000002  0.4281999999999999  1.0000
  C   C81       1.0  0.05199  0.99978  0.38153  1.0000
  C   C82       1.0  0.85181  0.9966800000000002  0.44028  1.0000
  C   C83       1.0  0.90224  0.14091  0.8275199999999999  1.0000
  C   C84       1.0  0.74932  0.10816  0.45412  1.0000
  C   C85       1.0  0.28713000000000005  0.6608200000000001  0.41931999999999997  1.0000
  C   C86       1.0  0.36599  0.4429  0.59344  1.0000
  C   C87       1.0  0.95661  0.10360000000000001  0.39358  1.0000
  C   C88       1.0  0.12559  0.29987  0.7154099999999999  1.0000
  C   C89       1.0  0.8245000000000001  0.08568  0.86682  1.0000
  C   C90       1.0  0.10347  0.20807  0.8048299999999998  1.0000
  C   C91       1.0  0.04587  0.24756000000000003  0.75483  1.0000
  C   C92       1.0  0.33254  0.33579  0.6664199999999999  1.0000
  C   C93       1.0  0.03306  0.15639  0.84161  1.0000
  C   C94       1.0  0.91352  0.23344  0.7428699999999999  1.0000
  C   C95       1.0  0.25475999999999993  0.28813  0.70369  1.0000
  C   C96       1.0  0.28262  0.39532  0.63765  1.0000
  C   C97       1.0  0.07684  0.36079  0.688  1.0000
  C   C98       1.0  0.1539  0.40742  0.64865  1.0000
  C   C99       1.0  0.84349  0.17982  0.77784  1.0000
  C   C100      1.0  0.4591100000000001  0.2509  0.9582999999999999  1.0000
  C   C101      1.0  0.63213  0.17868  0.9832099999999998  1.0000
  C   C102      1.0  0.39096  0.31399  0.96747  1.0000
  C   C103      1.0  0.90019  0.7806100000000001  0.9435499999999999  1.0000
  C   C104      1.0  0.77639  0.77964  0.91554  1.0000
  C   C105      1.0  0.9782799999999999  0.72077  0.93999  1.0000
  C   C106      1.0  0.57886  0.24330000000000002  0.9885699999999998  1.0000
  C   C107      1.0  0.04247999999999999  0.5395  0.9151  1.0000
  C   C108      1.0  0.95065  0.8430099999999999  0.97451  1.0000
  C   C109      1.0  0.0422  0.61509  0.9262599999999999  1.0000
  C   C110      1.0  0.46212  0.13168000000000002  0.9189299999999999  1.0000
  C   C111      1.0  0.40127  0.19384000000000007  0.9221699999999999  1.0000
  C   C112      1.0  0.8785600000000001  0.90126  0.97444  1.0000
  C   C113      1.0  0.14402  0.43074  0.92819  1.0000
  C   C114      1.0  0.9434000000000001  0.50069  0.8800499999999998  1.0000
  C   C115      1.0  0.1449  0.50333  0.9394899999999998  1.0000
  C   C116      1.0  0.09404  0.35982  0.32711999999999997  1.0000
  C   C117      1.0  0.248  0.39182  0.95474  1.0000
  C   C118      1.0  0.71067  0.8404000000000001  0.91808  1.0000
  C   C119      1.0  0.63804  0.05478000000000001  0.09269999999999999  1.0000
  C   C120      1.0  0.03898999999999999  0.39672  0.89358  1.0000
  C   C121      1.0  0.87107  0.19943  0.21675  1.0000
  C   C122      1.0  0.17296999999999998  0.41477  0.36580999999999997  1.0000
  C   C123      1.0  0.8927100000000001  0.29208  0.30473  1.0000
  C   C124      1.0  0.94971  0.25268  0.25564  1.0000
  C   C125      1.0  0.6656000000000002  0.16069  0.16618  1.0000
  C   C126      1.0  0.9635900000000001  0.34404  0.3409  1.0000
  C   C127      1.0  0.08158  0.26764  0.24368  1.0000
  C   C128      1.0  0.74078  0.20893  0.20412999999999998  1.0000
  C   C129      1.0  0.71867  0.10255000000000003  0.13798  1.0000
  C   C130      1.0  0.92289  0.13974  0.19004  1.0000
  C   C131      1.0  0.8482299999999999  0.09255000000000002  0.15019  1.0000
  C   C132      1.0  0.15180000000000002  0.32147000000000003  0.27792  1.0000
  N   N1        1.0  0.10611000000000001  0.22446  0.54566  1.0000
  N   N2        1.0  0.9390200000000001  0.15255000000000002  0.57526  1.0000
  N   N3        1.0  0.57366  0.6218900000000003  0.55033  1.0000
  N   N4        1.0  0.30003  0.83493  0.57611  1.0000
  N   N5        1.0  0.39824999999999994  0.8554600000000001  0.48027999999999993  1.0000
  N   N6        1.0  0.76178  0.40035  0.55316  1.0000
  N   N7        1.0  0.14705  0.15829  0.5544799999999999  1.0000
  N   N8        1.0  0.3083600000000001  0.9041100000000001  0.48745  1.0000
  N   N9        1.0  0.94569  0.93039  0.6295199999999999  1.0000
  N   N10       1.0  0.89533  0.27573  0.048859999999999994  1.0000
  N   N11       1.0  0.06418  0.34721  0.07718  1.0000
  N   N12       1.0  0.42565000000000003  0.87678  0.04994  1.0000
  N   N13       1.0  0.70289  0.66453  0.07511  1.0000
  N   N14       1.0  0.60261  0.6452  0.97903  1.0000
  N   N15       1.0  0.23919  0.09935000000000002  0.05377  1.0000
  N   N16       1.0  0.8550800000000001  0.34185  0.057479999999999996  1.0000
  N   N17       1.0  0.69302  0.5966100000000002  0.98666  1.0000
  N   N18       1.0  0.05917  0.56911  0.13023  1.0000
  N   N19       1.0  0.89388  0.77554  0.45434  1.0000
  N   N20       1.0  0.06096000000000004  0.8474500000000003  0.42475  1.0000
  N   N21       1.0  0.42633999999999994  0.37811  0.44965999999999995  1.0000
  N   N22       1.0  0.69996  0.16507  0.42389999999999994  1.0000
  N   N23       1.0  0.60174  0.14454  0.51972  1.0000
  N   N24       1.0  0.23821  0.59966  0.44683  1.0000
  N   N25       1.0  0.85294  0.8417100000000002  0.44552  1.0000
  N   N26       1.0  0.69163  0.09589  0.5125499999999998  1.0000
  N   N27       1.0  0.05429  0.06962  0.37048  1.0000
  N   N28       1.0  0.10467  0.72427  0.9511499999999999  1.0000
  N   N29       1.0  0.93582  0.6528  0.9228299999999999  1.0000
  N   N30       1.0  0.57439  0.12322000000000001  0.95004  1.0000
  N   N31       1.0  0.29711  0.33547  0.9248899999999999  1.0000
  N   N32       1.0  0.39740000000000003  0.3548  0.02097  1.0000
  N   N33       1.0  0.76082  0.90066  0.94623  1.0000
  N   N34       1.0  0.14492  0.65815  0.94253  1.0000
  N   N35       1.0  0.30698  0.40339  0.013339999999999996  1.0000
  N   N36       1.0  0.94084  0.43090000000000006  0.86977  1.0000
  O   O1        1.0  0.6885099999999998  0.51395  0.4441499999999999  1.0000
  O   O2        1.0  0.13732  0.92857  0.07428  1.0000
  O   O3        1.0  0.51365  0.5643  0.4039499999999999  1.0000
  O   O4        1.0  0.27938  0.94241  0.15891999999999995  1.0000
  O   O5        1.0  0.30605  0.98916  0.9421799999999999  1.0000
  O   O6        1.0  0.8634300000000001  0.5713  0.57547  1.0000
  O   O7        1.0  0.4818  0.9366500000000001  0.9088499999999999  1.0000
  O   O8        1.0  0.72473  0.55705  0.66036  1.0000
  O   O9        1.0  0.31151  0.48606  0.5558499999999998  1.0000
  O   O10       1.0  0.8631  0.07139000000000002  0.92569  1.0000
  O   O11       1.0  0.4863700000000001  0.43571000000000004  0.59605  1.0000
  O   O12       1.0  0.72094  0.05756  0.8411299999999999  1.0000
  O   O13       1.0  0.69395  0.01085  0.05779999999999999  1.0000
  O   O14       1.0  0.13666  0.4287  0.42453  1.0000
  O   O15       1.0  0.51821  0.06337  0.09113999999999998  1.0000
  O   O16       1.0  0.27531  0.44295  0.3396199999999999  1.0000
