data_image0
_chemical_formula_structural       Mn8H128C192N16O32
_chemical_formula_sum              "Mn8 H128 C192 N16 O32"
_cell_length_a       13.88746
_cell_length_b       17.77704
_cell_length_c       18.84239
_cell_angle_alpha    97.69013
_cell_angle_beta     89.98783
_cell_angle_gamma    89.99550000000002

_symmetry_space_group_name_H-M    'P 1'
_symmetry_Int_Tables_number       1

loop_
  _symmetry_equiv_pos_as_xyz
  'x,y,z'

loop_
  _atom_site_type_symbol
  _atom_site_label
  _atom_site_symmetry_multiplicity
  _atom_site_fract_x
  _atom_site_fract_y
  _atom_site_fract_z
  _atom_site_occupancy
  Mn  Mn1       1.0  0.57  0.38411  0.00524  1.0000
  Mn  Mn2       1.0  0.4250100000000001  0.13107  0.00519  1.0000
  Mn  Mn3       1.0  0.06992  0.6157700000000002  0.49464  1.0000
  Mn  Mn4       1.0  0.92504  0.8688900000000002  0.4948100000000001  1.0000
  Mn  Mn5       1.0  0.43  0.61589  0.99476  1.0000
  Mn  Mn6       1.0  0.57499  0.86893  0.99481  1.0000
  Mn  Mn7       1.0  0.93008  0.38423000000000007  0.50536  1.0000
  Mn  Mn8       1.0  0.07496  0.13111  0.50519  1.0000
  H   H1        1.0  0.83667  0.28525  0.29946  1.0000
  H   H2        1.0  0.8698800000000002  0.10010000000000002  0.1286  1.0000
  H   H3        1.0  0.96338  0.02863  0.21052  1.0000
  H   H4        1.0  0.99385  0.08693  0.3368  1.0000
  H   H5        1.0  0.75804  0.41869  0.1138  1.0000
  H   H6        1.0  0.8592600000000001  0.35056  0.19474  1.0000
  H   H7        1.0  0.7117400000000002  0.14483  0.10852  1.0000
  H   H8        1.0  0.61954  0.22032000000000002  0.03089  1.0000
  H   H9        1.0  0.67124  0.48522  0.2097  1.0000
  H   H10       1.0  0.67011  0.68482  0.36766  1.0000
  H   H11       1.0  0.57706  0.75359  0.28329  1.0000
  H   H12       1.0  0.53942  0.68913  0.16041  1.0000
  H   H13       1.0  0.89935  0.39612  0.34341  1.0000
  H   H14       1.0  0.81442  0.47034000000000004  0.25945  1.0000
  H   H15       1.0  0.67173  0.59315  0.44284  1.0000
  H   H16       1.0  0.76587  0.51543  0.51884  1.0000
  H   H17       1.0  0.65822  0.9651800000000001  0.20101  1.0000
  H   H18       1.0  0.62479  0.14656000000000005  0.37541  1.0000
  H   H19       1.0  0.52999  0.21950000000000006  0.29596  1.0000
  H   H20       1.0  0.50127  0.16529  0.16837  1.0000
  H   H21       1.0  0.75342  0.8298100000000003  0.38092000000000004  1.0000
  H   H22       1.0  0.64978  0.8959000000000001  0.2997  1.0000
  H   H23       1.0  0.7800400000000002  0.10635  0.3944  1.0000
  H   H24       1.0  0.87801  0.032000000000000015  0.47024000000000005  1.0000
  H   H25       1.0  0.34453000000000006  0.22892  0.21418  1.0000
  H   H26       1.0  0.40622  0.40113  0.39187  1.0000
  H   H27       1.0  0.50224  0.47168000000000004  0.31093  1.0000
  H   H28       1.0  0.51479  0.42195000000000005  0.18043  1.0000
  H   H29       1.0  0.24589000000000005  0.09096  0.39046  1.0000
  H   H30       1.0  0.35091  0.15448  0.30873000000000006  1.0000
  H   H31       1.0  0.24913  0.36852000000000007  0.41832  1.0000
  H   H32       1.0  0.14694  0.2968  0.49307999999999996  1.0000
  H   H33       1.0  0.33671  0.71475  0.20044  1.0000
  H   H34       1.0  0.36991  0.89986  0.37133000000000005  1.0000
  H   H35       1.0  0.46341  0.97132  0.28939  1.0000
  H   H36       1.0  0.49388  0.91308  0.1631  1.0000
  H   H37       1.0  0.25803  0.5813300000000001  0.38619  1.0000
  H   H38       1.0  0.35928  0.64941  0.30523  1.0000
  H   H39       1.0  0.21176000000000003  0.85518  0.39147  1.0000
  H   H40       1.0  0.11955000000000003  0.77973  0.46913  1.0000
  H   H41       1.0  0.17113000000000003  0.51478  0.2905  1.0000
  H   H42       1.0  0.17018  0.31535  0.13239  1.0000
  H   H43       1.0  0.07703000000000002  0.24643000000000004  0.21664000000000003  1.0000
  H   H44       1.0  0.03938  0.31086  0.33966  1.0000
  H   H45       1.0  0.39941  0.60384  0.15646000000000002  1.0000
  H   H46       1.0  0.31446  0.5297500000000002  0.24052999999999997  1.0000
  H   H47       1.0  0.17171  0.40689  0.05721999999999999  1.0000
  H   H48       1.0  0.2659  0.4845  0.98115  1.0000
  H   H49       1.0  0.15823  0.03482  0.299  1.0000
  H   H50       1.0  0.12479  0.85347  0.1246  1.0000
  H   H51       1.0  0.03  0.7805400000000002  0.20407  1.0000
  H   H52       1.0  0.00125  0.8347200000000002  0.33167  1.0000
  H   H53       1.0  0.25342  0.17018  0.11907000000000001  1.0000
  H   H54       1.0  0.14976000000000006  0.10412000000000003  0.20033  1.0000
  H   H55       1.0  0.28005  0.8936500000000003  0.10559  1.0000
  H   H56       1.0  0.37803000000000003  0.96799  0.02973  1.0000
  H   H57       1.0  0.84455  0.7711  0.28582  1.0000
  H   H58       1.0  0.9062400000000003  0.59883  0.10811  1.0000
  H   H59       1.0  0.00226  0.52829  0.18905  1.0000
  H   H60       1.0  0.014750000000000003  0.57803  0.31953  1.0000
  H   H61       1.0  0.74586  0.90904  0.10954  1.0000
  H   H62       1.0  0.8509  0.84551  0.19122  1.0000
  H   H63       1.0  0.74913  0.63148  0.08168  1.0000
  H   H64       1.0  0.64693  0.7032100000000002  0.006949999999999999  1.0000
  H   H65       1.0  0.16333  0.71475  0.70053  1.0000
  H   H66       1.0  0.13012  0.8999  0.8713999999999998  1.0000
  H   H67       1.0  0.03662  0.9713700000000001  0.78947  1.0000
  H   H68       1.0  0.00615  0.9130700000000002  0.6632  1.0000
  H   H69       1.0  0.24196  0.58131  0.8861900000000001  1.0000
  H   H70       1.0  0.14074  0.64943  0.80526  1.0000
  H   H71       1.0  0.28826000000000007  0.85517  0.89148  1.0000
  H   H72       1.0  0.38046  0.77968  0.96911  1.0000
  H   H73       1.0  0.32876  0.51478  0.7903  1.0000
  H   H74       1.0  0.3298900000000001  0.31518  0.63234  1.0000
  H   H75       1.0  0.42294  0.24641  0.7167  1.0000
  H   H76       1.0  0.4605900000000001  0.31087  0.83959  1.0000
  H   H77       1.0  0.10066  0.6038800000000002  0.65658  1.0000
  H   H78       1.0  0.18558000000000002  0.52966  0.74055  1.0000
  H   H79       1.0  0.32827  0.40685  0.55716  1.0000
  H   H80       1.0  0.23413000000000006  0.48457  0.48116  1.0000
  H   H81       1.0  0.34178  0.03481999999999998  0.79899  1.0000
  H   H82       1.0  0.37522  0.85344  0.62459  1.0000
  H   H83       1.0  0.47001000000000004  0.7805  0.70403  1.0000
  H   H84       1.0  0.4987300000000001  0.8347  0.83163  1.0000
  H   H85       1.0  0.24658  0.17018  0.61907  1.0000
  H   H86       1.0  0.35022  0.10410000000000003  0.7003  1.0000
  H   H87       1.0  0.21996  0.8936500000000003  0.60559  1.0000
  H   H88       1.0  0.12199000000000003  0.9680000000000001  0.52976  1.0000
  H   H89       1.0  0.6554700000000002  0.77108  0.78581  1.0000
  H   H90       1.0  0.59378  0.59886  0.60812  1.0000
  H   H91       1.0  0.4977600000000001  0.52832  0.68907  1.0000
  H   H92       1.0  0.48521000000000003  0.5780500000000002  0.81957  1.0000
  H   H93       1.0  0.7541200000000002  0.9090300000000001  0.60954  1.0000
  H   H94       1.0  0.64909  0.84552  0.69126  1.0000
  H   H95       1.0  0.75088  0.63148  0.58168  1.0000
  H   H96       1.0  0.8530600000000003  0.7032  0.50692  1.0000
  H   H97       1.0  0.6632900000000002  0.28525  0.79956  1.0000
  H   H98       1.0  0.63009  0.10014000000000003  0.62867  1.0000
  H   H99       1.0  0.53659  0.02867000000000001  0.7106  1.0000
  H   H100      1.0  0.50612  0.08692000000000004  0.8369  1.0000
  H   H101      1.0  0.7419700000000002  0.4186700000000001  0.61381  1.0000
  H   H102      1.0  0.64073  0.35059  0.69477  1.0000
  H   H103      1.0  0.78824  0.14481  0.60853  1.0000
  H   H104      1.0  0.8804500000000002  0.22027  0.53086  1.0000
  H   H105      1.0  0.8288700000000001  0.48522  0.7095  1.0000
  H   H106      1.0  0.82982  0.68464  0.86761  1.0000
  H   H107      1.0  0.9229700000000002  0.75357  0.7833500000000001  1.0000
  H   H108      1.0  0.9606200000000003  0.68914  0.66034  1.0000
  H   H109      1.0  0.60059  0.39616000000000007  0.84354  1.0000
  H   H110      1.0  0.68555  0.47025000000000006  0.75947  1.0000
  H   H111      1.0  0.82829  0.59311  0.9427700000000001  1.0000
  H   H112      1.0  0.7341  0.51549  0.01884  1.0000
  H   H113      1.0  0.84178  0.9651700000000001  0.701  1.0000
  H   H114      1.0  0.87521  0.14652999999999997  0.87539  1.0000
  H   H115      1.0  0.9700000000000002  0.21946000000000002  0.79593  1.0000
  H   H116      1.0  0.9987500000000001  0.16528  0.66833  1.0000
  H   H117      1.0  0.7465800000000002  0.8298199999999999  0.8809199999999999  1.0000
  H   H118      1.0  0.8502400000000001  0.89587  0.79967  1.0000
  H   H119      1.0  0.71995  0.10635  0.89441  1.0000
  H   H120      1.0  0.6219700000000002  0.03201000000000002  0.97027  1.0000
  H   H121      1.0  0.15545000000000006  0.22890000000000002  0.71418  1.0000
  H   H122      1.0  0.09376  0.40117  0.89188  1.0000
  H   H123      1.0  0.9977400000000001  0.47171  0.81095  1.0000
  H   H124      1.0  0.9852500000000002  0.42197  0.68047  1.0000
  H   H125      1.0  0.25414  0.09096  0.89046  1.0000
  H   H126      1.0  0.14910000000000004  0.15448999999999996  0.80878  1.0000
  H   H127      1.0  0.25088  0.36852000000000007  0.91832  1.0000
  H   H128      1.0  0.35307  0.29679  0.99304  1.0000
  C   C1        1.0  0.93298  0.2233600000000001  0.40225000000000005  1.0000
  C   C2        1.0  0.91734  0.18964  0.32538  1.0000
  C   C3        1.0  0.86561  0.22979000000000002  0.27888  1.0000
  C   C4        1.0  0.8483300000000003  0.19828  0.20776  1.0000
  C   C5        1.0  0.883  0.12491000000000001  0.18374  1.0000
  C   C6        1.0  0.93556  0.08494  0.22963000000000003  1.0000
  C   C7        1.0  0.9530700000000002  0.11714000000000001  0.30022  1.0000
  C   C8        1.0  0.7509200000000003  0.35777000000000003  0.11407000000000002  1.0000
  C   C9        1.0  0.8059900000000002  0.31979000000000013  0.15976  1.0000
  C   C10       1.0  0.7938200000000002  0.24118  0.15925000000000003  1.0000
  C   C11       1.0  0.72642  0.20513  0.11078999999999999  1.0000
  C   C12       1.0  0.6739100000000001  0.24734000000000003  0.06729  1.0000
  C   C13       1.0  0.5792  0.54423  0.10371  1.0000
  C   C14       1.0  0.60351  0.5835100000000002  0.17763  1.0000
  C   C15       1.0  0.65367  0.54464  0.22591999999999998  1.0000
  C   C16       1.0  0.67862  0.5802800000000001  0.29452  1.0000
  C   C17       1.0  0.65027  0.65613  0.31497  1.0000
  C   C18       1.0  0.5994600000000001  0.69509  0.26728  1.0000
  C   C19       1.0  0.57724  0.65934  0.19865  1.0000
  C   C20       1.0  0.84793  0.44014000000000003  0.36309  1.0000
  C   C21       1.0  0.7994  0.48111  0.3165  1.0000
  C   C22       1.0  0.73328  0.53774  0.34332  1.0000
  C   C23       1.0  0.7217  0.55034  0.41804  1.0000
  C   C24       1.0  0.77359  0.50684  0.46090000000000003  1.0000
  C   C25       1.0  0.56677  0.03137  0.09961  1.0000
  C   C26       1.0  0.57852  0.06225  0.1773  1.0000
  C   C27       1.0  0.63022  0.02068000000000001  0.22256  1.0000
  C   C28       1.0  0.6479900000000002  0.050590000000000024  0.29394  1.0000
  C   C29       1.0  0.61187  0.12299000000000002  0.31993  1.0000
  C   C30       1.0  0.55844  0.16386  0.27539  1.0000
  C   C31       1.0  0.54185  0.13391  0.20412  1.0000
  C   C32       1.0  0.75634  0.89113  0.38195  1.0000
  C   C33       1.0  0.6995200000000003  0.92821  0.33669  1.0000
  C   C34       1.0  0.7054600000000002  0.007660000000000001  0.34051  1.0000
  C   C35       1.0  0.77007  0.04528  0.39034  1.0000
  C   C36       1.0  0.8255300000000002  0.0039500000000000065  0.43267  1.0000
  C   C37       1.0  0.4382  0.29223  0.11135  1.0000
  C   C38       1.0  0.4303200000000001  0.3224800000000001  0.18979  1.0000
  C   C39       1.0  0.37811  0.28226  0.23603  1.0000
  C   C40       1.0  0.3674  0.3102600000000001  0.30881  1.0000
  C   C41       1.0  0.41214000000000006  0.37949  0.3352  1.0000
  C   C42       1.0  0.4660400000000001  0.41911  0.28972  1.0000
  C   C43       1.0  0.4744200000000001  0.3913200000000001  0.217  1.0000
  C   C44       1.0  0.24933000000000005  0.15253  0.39463  1.0000
  C   C45       1.0  0.3072300000000001  0.18844000000000002  0.34901  1.0000
  C   C46       1.0  0.30987  0.26825  0.35647  1.0000
  C   C47       1.0  0.25291  0.30695  0.41108  1.0000
  C   C48       1.0  0.19527  0.267  0.45335999999999993  1.0000
  C   C49       1.0  0.43298  0.77664  0.09759  1.0000
  C   C50       1.0  0.4173800000000001  0.81035  0.17449  1.0000
  C   C51       1.0  0.3656500000000001  0.7702200000000001  0.22101  1.0000
  C   C52       1.0  0.34834000000000004  0.8017  0.29215  1.0000
  C   C53       1.0  0.38303  0.87507  0.31618  1.0000
  C   C54       1.0  0.43558000000000013  0.9150200000000001  0.27027  1.0000
  C   C55       1.0  0.4531000000000001  0.88285  0.19966  1.0000
  C   C56       1.0  0.2509100000000001  0.64224  0.38591  1.0000
  C   C57       1.0  0.30599  0.6802100000000001  0.3402  1.0000
  C   C58       1.0  0.29383  0.75881  0.34069  1.0000
  C   C59       1.0  0.22642  0.79488  0.38919  1.0000
  C   C60       1.0  0.1739  0.75268  0.4327  1.0000
  C   C61       1.0  0.07925000000000003  0.45596  0.39621000000000006  1.0000
  C   C62       1.0  0.10366  0.41642  0.32238  1.0000
  C   C63       1.0  0.15375  0.45537000000000005  0.27411  1.0000
  C   C64       1.0  0.1786  0.4198400000000001  0.20548  1.0000
  C   C65       1.0  0.15024000000000004  0.344  0.18505  1.0000
  C   C66       1.0  0.09944000000000001  0.30493000000000003  0.23269000000000004  1.0000
  C   C67       1.0  0.0773  0.3406  0.30138  1.0000
  C   C68       1.0  0.34795  0.5598600000000002  0.13685  1.0000
  C   C69       1.0  0.2994  0.5189600000000001  0.18349  1.0000
  C   C70       1.0  0.23323  0.46238  0.15668  1.0000
  C   C71       1.0  0.22167000000000003  0.4497  0.08199  1.0000
  C   C72       1.0  0.27359  0.49313  0.03909  1.0000
  C   C73       1.0  0.06679  0.9686100000000001  0.40042  1.0000
  C   C74       1.0  0.07850000000000003  0.93777  0.32274  1.0000
  C   C75       1.0  0.13021  0.97934  0.27746  1.0000
  C   C76       1.0  0.14799  0.9494400000000003  0.20607000000000003  1.0000
  C   C77       1.0  0.11188  0.87704  0.18009  1.0000
  C   C78       1.0  0.05844000000000001  0.83618  0.22463  1.0000
  C   C79       1.0  0.04184  0.86612  0.29592  1.0000
  C   C80       1.0  0.25634  0.10887000000000001  0.11804999999999999  1.0000
  C   C81       1.0  0.19951  0.07180000000000002  0.16333  1.0000
  C   C82       1.0  0.20546  0.99236  0.1595  1.0000
  C   C83       1.0  0.27007  0.95472  0.10965  1.0000
  C   C84       1.0  0.32555000000000006  0.9960300000000001  0.06731  1.0000
  C   C85       1.0  0.9382600000000002  0.70774  0.38862  1.0000
  C   C86       1.0  0.9303300000000002  0.6775100000000002  0.31017  1.0000
  C   C87       1.0  0.87811  0.7177500000000002  0.26396  1.0000
  C   C88       1.0  0.8674  0.68973  0.19118  1.0000
  C   C89       1.0  0.9121400000000002  0.6205  0.16478  1.0000
  C   C90       1.0  0.96604  0.58087  0.21025  1.0000
  C   C91       1.0  0.9744100000000002  0.60866  0.28296  1.0000
  C   C92       1.0  0.7493  0.84746  0.10537  1.0000
  C   C93       1.0  0.8072200000000003  0.81155  0.15097  1.0000
  C   C94       1.0  0.80985  0.7317400000000002  0.14352  1.0000
  C   C95       1.0  0.7529100000000001  0.69304  0.08893  1.0000
  C   C96       1.0  0.6952600000000001  0.7330000000000002  0.04666  1.0000
  C   C97       1.0  0.06703  0.77664  0.59775  1.0000
  C   C98       1.0  0.08266  0.81036  0.67462  1.0000
  C   C99       1.0  0.13439  0.77021  0.72111  1.0000
  C   C100      1.0  0.15167000000000005  0.8017200000000002  0.79223  1.0000
  C   C101      1.0  0.117  0.8750900000000003  0.81626  1.0000
  C   C102      1.0  0.06444  0.9150600000000001  0.77036  1.0000
  C   C103      1.0  0.046940000000000016  0.8828600000000002  0.69978  1.0000
  C   C104      1.0  0.24908  0.6422300000000002  0.8859299999999999  1.0000
  C   C105      1.0  0.19401  0.6802100000000001  0.84024  1.0000
  C   C106      1.0  0.20618  0.75882  0.84075  1.0000
  C   C107      1.0  0.27359  0.7948700000000002  0.8892099999999998  1.0000
  C   C108      1.0  0.32609  0.7526600000000002  0.9327099999999999  1.0000
  C   C109      1.0  0.4208  0.45577  0.89629  1.0000
  C   C110      1.0  0.39649  0.41648  0.82236  1.0000
  C   C111      1.0  0.34633  0.45536000000000004  0.77407  1.0000
  C   C112      1.0  0.32138  0.41972  0.70548  1.0000
  C   C113      1.0  0.3497300000000001  0.34387  0.68503  1.0000
  C   C114      1.0  0.4005400000000001  0.30491  0.73272  1.0000
  C   C115      1.0  0.4227700000000001  0.3406600000000002  0.80135  1.0000
  C   C116      1.0  0.15207000000000007  0.5598600000000002  0.63691  1.0000
  C   C117      1.0  0.2006  0.51889  0.6835  1.0000
  C   C118      1.0  0.26672  0.46225000000000005  0.65667  1.0000
  C   C119      1.0  0.27830000000000005  0.44965  0.58196  1.0000
  C   C120      1.0  0.22641  0.49315000000000003  0.5391  1.0000
  C   C121      1.0  0.4332300000000001  0.96863  0.9003800000000001  1.0000
  C   C122      1.0  0.42148  0.93775  0.8227  1.0000
  C   C123      1.0  0.36978  0.9793200000000001  0.77743  1.0000
  C   C124      1.0  0.3520100000000001  0.94941  0.70606  1.0000
  C   C125      1.0  0.38813  0.87701  0.68007  1.0000
  C   C126      1.0  0.4415600000000001  0.83614  0.7246  1.0000
  C   C127      1.0  0.45815  0.86609  0.79588  1.0000
  C   C128      1.0  0.24366000000000004  0.10887000000000001  0.61805  1.0000
  C   C129      1.0  0.3004800000000001  0.07179  0.66331  1.0000
  C   C130      1.0  0.29455  0.9923400000000001  0.65949  1.0000
  C   C131      1.0  0.22994000000000006  0.95472  0.60965  1.0000
  C   C132      1.0  0.17447000000000004  0.99604  0.56733  1.0000
  C   C133      1.0  0.5618  0.70776  0.88865  1.0000
  C   C134      1.0  0.56968  0.6775100000000002  0.81021  1.0000
  C   C135      1.0  0.6218900000000003  0.71773  0.76397  1.0000
  C   C136      1.0  0.6326000000000003  0.68973  0.69119  1.0000
  C   C137      1.0  0.58786  0.62051  0.6648  1.0000
  C   C138      1.0  0.53397  0.58089  0.71028  1.0000
  C   C139      1.0  0.52558  0.60867  0.783  1.0000
  C   C140      1.0  0.75068  0.84746  0.60537  1.0000
  C   C141      1.0  0.69277  0.8115600000000001  0.65099  1.0000
  C   C142      1.0  0.6901300000000002  0.7317400000000002  0.64353  1.0000
  C   C143      1.0  0.74709  0.6930500000000003  0.58892  1.0000
  C   C144      1.0  0.8047300000000001  0.733  0.54664  1.0000
  C   C145      1.0  0.56702  0.22336000000000006  0.9024  1.0000
  C   C146      1.0  0.5826200000000001  0.18964999999999999  0.8255  1.0000
  C   C147      1.0  0.6343500000000002  0.22978  0.77898  1.0000
  C   C148      1.0  0.65166  0.1983  0.70785  1.0000
  C   C149      1.0  0.61698  0.12493  0.68382  1.0000
  C   C150      1.0  0.56443  0.08498  0.72973  1.0000
  C   C151      1.0  0.5469  0.11714000000000001  0.80033  1.0000
  C   C152      1.0  0.74909  0.35776000000000013  0.6140900000000001  1.0000
  C   C153      1.0  0.69401  0.31979000000000013  0.6597900000000001  1.0000
  C   C154      1.0  0.70617  0.24119000000000002  0.6593  1.0000
  C   C155      1.0  0.77358  0.20512  0.61081  1.0000
  C   C156      1.0  0.8261  0.24732000000000004  0.56729  1.0000
  C   C157      1.0  0.92075  0.5440399999999999  0.60378  1.0000
  C   C158      1.0  0.89634  0.5835700000000001  0.67762  1.0000
  C   C159      1.0  0.84626  0.54463  0.72589  1.0000
  C   C160      1.0  0.8214  0.58016  0.79452  1.0000
  C   C161      1.0  0.8497700000000002  0.65599  0.81495  1.0000
  C   C162      1.0  0.90056  0.6950700000000002  0.76731  1.0000
  C   C163      1.0  0.9227000000000002  0.6594  0.69861  1.0000
  C   C164      1.0  0.65205  0.44014  0.86315  1.0000
  C   C165      1.0  0.70061  0.48104  0.81651  1.0000
  C   C166      1.0  0.7667700000000001  0.53762  0.84331  1.0000
  C   C167      1.0  0.7783300000000002  0.5503  0.91801  1.0000
  C   C168      1.0  0.72641  0.50687  0.9609100000000002  1.0000
  C   C169      1.0  0.9332200000000003  0.03139000000000001  0.59958  1.0000
  C   C170      1.0  0.9215000000000002  0.06223000000000001  0.67725  1.0000
  C   C171      1.0  0.8698000000000002  0.020660000000000005  0.72254  1.0000
  C   C172      1.0  0.85201  0.05056  0.79392  1.0000
  C   C173      1.0  0.8881200000000001  0.12295  0.8199  1.0000
  C   C174      1.0  0.9415600000000001  0.16382  0.77536  1.0000
  C   C175      1.0  0.9581600000000001  0.13388  0.70408  1.0000
  C   C176      1.0  0.7436600000000002  0.8911200000000001  0.8819500000000001  1.0000
  C   C177      1.0  0.80049  0.92819  0.83667  1.0000
  C   C178      1.0  0.79454  0.00764  0.8405  1.0000
  C   C179      1.0  0.7299300000000002  0.04528  0.89035  1.0000
  C   C180      1.0  0.67445  0.0039700000000000004  0.93269  1.0000
  C   C181      1.0  0.06174000000000002  0.29225  0.61137  1.0000
  C   C182      1.0  0.06968  0.32249  0.68983  1.0000
  C   C183      1.0  0.12189  0.28225  0.7360400000000001  1.0000
  C   C184      1.0  0.1326  0.3102600000000001  0.80882  1.0000
  C   C185      1.0  0.08786000000000001  0.3795  0.83522  1.0000
  C   C186      1.0  0.03396  0.4191300000000001  0.78975  1.0000
  C   C187      1.0  0.02559  0.3913400000000001  0.71704  1.0000
  C   C188      1.0  0.2507  0.15253  0.89463  1.0000
  C   C189      1.0  0.19278000000000003  0.18844000000000002  0.84903  1.0000
  C   C190      1.0  0.19015  0.26826  0.85648  1.0000
  C   C191      1.0  0.24709000000000006  0.30695  0.9110700000000002  1.0000
  C   C192      1.0  0.30474  0.267  0.9533400000000001  1.0000
  N   N1        1.0  0.68495  0.32298  0.06836  1.0000
  N   N2        1.0  0.83575  0.45185  0.43478  1.0000
  N   N3        1.0  0.81914  0.92772  0.42926  1.0000
  N   N4        1.0  0.19270000000000007  0.19035000000000005  0.4458  1.0000
  N   N5        1.0  0.18492  0.6770399999999999  0.43162999999999996  1.0000
  N   N6        1.0  0.33574  0.54812  0.06517  1.0000
  N   N7        1.0  0.31914  0.07227  0.07073  1.0000
  N   N8        1.0  0.69267  0.8096500000000002  0.05422  1.0000
  N   N9        1.0  0.31506  0.67702  0.93164  1.0000
  N   N10       1.0  0.16425000000000006  0.5481500000000001  0.56521  1.0000
  N   N11       1.0  0.18086  0.07228  0.57074  1.0000
  N   N12       1.0  0.8073000000000002  0.80964  0.5542  1.0000
  N   N13       1.0  0.8150800000000002  0.32295  0.56837  1.0000
  N   N14       1.0  0.66426  0.45188000000000006  0.93483  1.0000
  N   N15       1.0  0.68086  0.92773  0.9292700000000002  1.0000
  N   N16       1.0  0.30733000000000005  0.19035000000000005  0.94577  1.0000
  O   O1        1.0  0.97106  0.18099  0.4438599999999999  1.0000
  O   O2        1.0  0.9048400000000002  0.29137  0.4208  1.0000
  O   O3        1.0  0.54786  0.58388  0.05755  1.0000
  O   O4        1.0  0.59532  0.47289  0.09269  1.0000
  O   O5        1.0  0.53822  0.07649  0.05688  1.0000
  O   O6        1.0  0.5904900000000001  0.9621000000000001  0.08172  1.0000
  O   O7        1.0  0.4659500000000001  0.3372  0.06842  1.0000
  O   O8        1.0  0.4135100000000001  0.22314  0.09304  1.0000
  O   O9        1.0  0.47091  0.8189100000000001  0.05584  1.0000
  O   O10       1.0  0.40483  0.70862  0.07917  1.0000
  O   O11       1.0  0.04793  0.4164400000000001  0.44251000000000007  1.0000
  O   O12       1.0  0.09525000000000002  0.52735  0.40711  1.0000
  O   O13       1.0  0.03823000000000001  0.9234600000000001  0.44315  1.0000
  O   O14       1.0  0.09052  0.037890000000000014  0.41837  1.0000
  O   O15       1.0  0.96605  0.6628100000000002  0.43150999999999995  1.0000
  O   O16       1.0  0.9135200000000002  0.77683  0.40694  1.0000
  O   O17       1.0  0.028940000000000004  0.81901  0.55614  1.0000
  O   O18       1.0  0.09516  0.70863  0.5792  1.0000
  O   O19       1.0  0.45214  0.41612  0.9424500000000001  1.0000
  O   O20       1.0  0.40469  0.52711  0.90731  1.0000
  O   O21       1.0  0.46178  0.92351  0.94312  1.0000
  O   O22       1.0  0.40951  0.037899999999999975  0.9182699999999999  1.0000
  O   O23       1.0  0.53406  0.6628  0.93158  1.0000
  O   O24       1.0  0.58649  0.7768600000000001  0.90695  1.0000
  O   O25       1.0  0.52909  0.18107999999999996  0.9441599999999999  1.0000
  O   O26       1.0  0.59518  0.29137  0.92083  1.0000
  O   O27       1.0  0.9520700000000001  0.5835600000000001  0.55749  1.0000
  O   O28       1.0  0.9047500000000002  0.47265000000000007  0.59289  1.0000
  O   O29       1.0  0.96177  0.07654  0.55684  1.0000
  O   O30       1.0  0.9094800000000001  0.9621100000000001  0.58162  1.0000
  O   O31       1.0  0.03396  0.3371800000000001  0.56849  1.0000
  O   O32       1.0  0.08648000000000003  0.2231700000000001  0.59305  1.0000
