data_image0
_chemical_formula_structural       Co4H96C116N16Cl8O32
_chemical_formula_sum              "Co4 H96 C116 N16 Cl8 O32"
_cell_length_a       13.21742
_cell_length_b       13.212930000000002
_cell_length_c       25.815449999999995
_cell_angle_alpha    90.00135
_cell_angle_beta     89.9991
_cell_angle_gamma    89.92094

_space_group_name_H-M_alt    "P 1"
_space_group_IT_number       1

loop_
  _space_group_symop_operation_xyz
  'x, y, z'

loop_
  _atom_site_type_symbol
  _atom_site_label
  _atom_site_symmetry_multiplicity
  _atom_site_fract_x
  _atom_site_fract_y
  _atom_site_fract_z
  _atom_site_occupancy
  Co  Co1       1.0  0.74999  0.74999  0.38209  1.0000
  Co  Co2       1.0  0.25  0.24998000000000006  0.882  1.0000
  Co  Co3       1.0  0.25001  0.25002  0.61937  1.0000
  Co  Co4       1.0  0.75001  0.75001  0.11941000000000003  1.0000
  H   H1        1.0  0.7503199999999999  0.88526  0.47981  1.0000
  H   H2        1.0  0.86911  0.9300700000000002  0.55343  1.0000
  H   H3        1.0  0.09929  0.75656  0.4749  1.0000
  H   H4        1.0  0.96952  0.7129800000000002  0.40754  1.0000
  H   H5        1.0  0.29994  0.86368  0.57437  1.0000
  H   H6        1.0  0.20962  0.90945  0.61938  1.0000
  H   H7        1.0  0.36387  0.70392  0.68648  1.0000
  H   H8        1.0  0.40911000000000003  0.7927100000000002  0.6401900000000001  1.0000
  H   H9        1.0  0.20502999999999996  0.98423  0.73145  1.0000
  H   H10       1.0  0.15783999999999998  0.12855  0.78969  1.0000
  H   H11       1.0  0.44019  0.12851  0.85834  1.0000
  H   H12       1.0  0.49807000000000007  0.98082  0.80507  1.0000
  H   H13       1.0  0.7497  0.6146800000000001  0.47979  1.0000
  H   H14       1.0  0.6308999999999999  0.5699  0.55341  1.0000
  H   H15       1.0  0.40075999999999995  0.7433900000000002  0.47489  1.0000
  H   H16       1.0  0.53051  0.78696  0.40752  1.0000
  H   H17       1.0  0.20011  0.6363400000000002  0.57437  1.0000
  H   H18       1.0  0.29042  0.59054  0.61936  1.0000
  H   H19       1.0  0.1362  0.79607  0.6864900000000002  1.0000
  H   H20       1.0  0.09098  0.70727  0.64021  1.0000
  H   H21       1.0  0.295  0.51575  0.73144  1.0000
  H   H22       1.0  0.34219  0.3714600000000001  0.78969  1.0000
  H   H23       1.0  0.05984  0.37154  0.85835  1.0000
  H   H24       1.0  0.0019800000000000004  0.51922  0.8050800000000001  1.0000
  H   H25       1.0  0.11480999999999998  0.25042  0.97968  1.0000
  H   H26       1.0  0.07004  0.36929  0.05338  1.0000
  H   H27       1.0  0.24342999999999998  0.59914  0.97491  1.0000
  H   H28       1.0  0.2869  0.4692900000000001  0.90746  1.0000
  H   H29       1.0  0.13635  0.80004  0.07444  1.0000
  H   H30       1.0  0.09069  0.7099000000000002  0.11948  1.0000
  H   H31       1.0  0.29539  0.86393  0.18662000000000004  1.0000
  H   H32       1.0  0.20645999999999998  0.9089800000000001  0.14034  1.0000
  H   H33       1.0  0.015  0.70428  0.23144  1.0000
  H   H34       1.0  0.87107  0.65747  0.28978  1.0000
  H   H35       1.0  0.87119  0.93975  0.35854  1.0000
  H   H36       1.0  0.018439999999999998  0.9974900000000001  0.30509  1.0000
  H   H37       1.0  0.38524  0.24958  0.97969  1.0000
  H   H38       1.0  0.42997  0.13069  0.05339  1.0000
  H   H39       1.0  0.25658  0.9008800000000002  0.97489  1.0000
  H   H40       1.0  0.21314  0.030730000000000007  0.90745  1.0000
  H   H41       1.0  0.36365  0.69996  0.07442  1.0000
  H   H42       1.0  0.40933  0.7900900000000001  0.11946000000000001  1.0000
  H   H43       1.0  0.20460999999999996  0.63607  0.18662000000000004  1.0000
  H   H44       1.0  0.29358  0.59104  0.14035  1.0000
  H   H45       1.0  0.485  0.7957100000000003  0.23146  1.0000
  H   H46       1.0  0.62894  0.84251  0.28979  1.0000
  H   H47       1.0  0.62881  0.56024  0.35854  1.0000
  H   H48       1.0  0.48155  0.50252  0.30509  1.0000
  H   H49       1.0  0.24835999999999997  0.11356000000000001  0.52132  1.0000
  H   H50       1.0  0.13104  0.07082000000000001  0.44684  1.0000
  H   H51       1.0  0.90017  0.24420000000000006  0.5249  1.0000
  H   H52       1.0  0.02881  0.28589  0.59323  1.0000
  H   H53       1.0  0.70007  0.13618  0.42538  1.0000
  H   H54       1.0  0.79072  0.09069  0.38045000000000007  1.0000
  H   H55       1.0  0.63603  0.29601  0.31336  1.0000
  H   H56       1.0  0.59091  0.20740000000000006  0.35973  1.0000
  H   H57       1.0  0.79475  0.01579  0.26852  1.0000
  H   H58       1.0  0.84256  0.87252  0.20981  1.0000
  H   H59       1.0  0.5603  0.8721800000000002  0.14102  1.0000
  H   H60       1.0  0.50176  0.019  0.19492  1.0000
  H   H61       1.0  0.25166  0.38639  0.52134  1.0000
  H   H62       1.0  0.36894999999999994  0.4291200000000001  0.44685  1.0000
  H   H63       1.0  0.59987  0.25582  0.5249  1.0000
  H   H64       1.0  0.47125  0.21412  0.59323  1.0000
  H   H65       1.0  0.7999599999999999  0.36384  0.42538  1.0000
  H   H66       1.0  0.70931  0.40934  0.38046  1.0000
  H   H67       1.0  0.86398  0.20402  0.31335  1.0000
  H   H68       1.0  0.90907  0.29266  0.35971  1.0000
  H   H69       1.0  0.70519  0.48426000000000013  0.26851  1.0000
  H   H70       1.0  0.65742  0.62752  0.2098  1.0000
  H   H71       1.0  0.93966  0.6278200000000002  0.14101  1.0000
  H   H72       1.0  0.99818  0.4810200000000001  0.19492  1.0000
  H   H73       1.0  0.88637  0.7481700000000002  0.02153  1.0000
  H   H74       1.0  0.92915  0.6308  0.94698  1.0000
  H   H75       1.0  0.75589  0.4002100000000001  0.02494  1.0000
  H   H76       1.0  0.71421  0.52896  0.09334000000000003  1.0000
  H   H77       1.0  0.86385  0.19994000000000006  0.92544  1.0000
  H   H78       1.0  0.90922  0.2903200000000001  0.88044  1.0000
  H   H79       1.0  0.70458  0.13591  0.81336  1.0000
  H   H80       1.0  0.7934499999999999  0.09093  0.85968  1.0000
  H   H81       1.0  0.98464  0.29525  0.76854  1.0000
  H   H82       1.0  0.12756  0.34268  0.70978  1.0000
  H   H83       1.0  0.12803  0.060430000000000005  0.64093  1.0000
  H   H84       1.0  0.9815599999999999  0.00203  0.6949000000000001  1.0000
  H   H85       1.0  0.61367  0.7518  0.02153  1.0000
  H   H86       1.0  0.57088  0.8691600000000002  0.94698  1.0000
  H   H87       1.0  0.74413  0.09978  0.02493  1.0000
  H   H88       1.0  0.78582  0.9710400000000002  0.09333  1.0000
  H   H89       1.0  0.63619  0.3000300000000001  0.92543  1.0000
  H   H90       1.0  0.59081  0.20963000000000007  0.88044  1.0000
  H   H91       1.0  0.7954800000000001  0.364  0.81336  1.0000
  H   H92       1.0  0.70658  0.40899  0.85968  1.0000
  H   H93       1.0  0.51542  0.20474000000000003  0.76854  1.0000
  H   H94       1.0  0.37246  0.15732000000000004  0.7097900000000003  1.0000
  H   H95       1.0  0.37202999999999997  0.4396  0.64094  1.0000
  H   H96       1.0  0.51855  0.49796000000000007  0.69492  1.0000
  C   C1        1.0  0.82772  0.85714  0.48134  1.0000
  C   C2        1.0  0.8937299999999999  0.8827900000000002  0.52126  1.0000
  C   C3        1.0  0.99303  0.8453900000000001  0.52001  1.0000
  C   C4        1.0  0.0225  0.78552  0.47782000000000013  1.0000
  C   C5        1.0  0.9513199999999999  0.7621100000000001  0.44003  1.0000
  C   C6        1.0  0.06284  0.86862  0.56379  1.0000
  C   C7        1.0  0.23152  0.84405  0.59601  1.0000
  C   C8        1.0  0.34331  0.77067  0.66354  1.0000
  C   C9        1.0  0.39112  0.8855700000000002  0.73036  1.0000
  C   C10       1.0  0.35594  0.97133  0.76351  1.0000
  C   C11       1.0  0.25906  0.013520000000000004  0.75929  1.0000
  C   C12       1.0  0.23291  0.09500000000000001  0.7907900000000001  1.0000
  C   C13       1.0  0.39062  0.09415000000000003  0.82979  1.0000
  C   C14       1.0  0.4226  0.01237  0.80002  1.0000
  C   C15       1.0  0.67231  0.6428300000000002  0.48133000000000004  1.0000
  C   C16       1.0  0.6063  0.6171900000000001  0.52125  1.0000
  C   C17       1.0  0.50701  0.6545900000000002  0.52001  1.0000
  C   C18       1.0  0.47754  0.71446  0.47782000000000013  1.0000
  C   C19       1.0  0.54872  0.73785  0.44002  1.0000
  C   C20       1.0  0.4372  0.63138  0.56379  1.0000
  C   C21       1.0  0.26853  0.6559600000000001  0.59601  1.0000
  C   C22       1.0  0.15677  0.72933  0.66355  1.0000
  C   C23       1.0  0.10894  0.61443  0.73036  1.0000
  C   C24       1.0  0.1441  0.52866  0.7635000000000001  1.0000
  C   C25       1.0  0.24097  0.48647  0.75928  1.0000
  C   C26       1.0  0.26711  0.40501  0.7907900000000001  1.0000
  C   C27       1.0  0.10941  0.40587000000000006  0.82979  1.0000
  C   C28       1.0  0.07743  0.48764  0.80001  1.0000
  C   C29       1.0  0.14286  0.32779000000000014  0.9812400000000002  1.0000
  C   C30       1.0  0.11725  0.39381  0.02121  1.0000
  C   C31       1.0  0.15466  0.49304  0.02  1.0000
  C   C32       1.0  0.21446  0.52242  0.9778000000000001  1.0000
  C   C33       1.0  0.23779999999999998  0.4512500000000001  0.9399600000000001  1.0000
  C   C34       1.0  0.13147  0.56286  0.06382  1.0000
  C   C35       1.0  0.15602  0.7315400000000001  0.09606000000000002  1.0000
  C   C36       1.0  0.22889  0.8431300000000002  0.16361  1.0000
  C   C37       1.0  0.11391  0.8905700000000001  0.23034  1.0000
  C   C38       1.0  0.027949999999999996  0.8554800000000002  0.26338  1.0000
  C   C39       1.0  0.98583  0.75859  0.25921  1.0000
  C   C40       1.0  0.90456  0.7325200000000002  0.29083  1.0000
  C   C41       1.0  0.9054  0.8902  0.32988  1.0000
  C   C42       1.0  0.98691  0.9221100000000001  0.29998  1.0000
  C   C43       1.0  0.35717  0.17222000000000004  0.98125  1.0000
  C   C44       1.0  0.38274  0.10619  0.02122  1.0000
  C   C45       1.0  0.34532  0.00697  0.02  1.0000
  C   C46       1.0  0.28554  0.9775900000000002  0.9778000000000001  1.0000
  C   C47       1.0  0.26222  0.04877  0.9399600000000001  1.0000
  C   C48       1.0  0.36851  0.9371400000000002  0.06383  1.0000
  C   C49       1.0  0.34399  0.7684500000000002  0.09606000000000002  1.0000
  C   C50       1.0  0.27112  0.65689  0.16361  1.0000
  C   C51       1.0  0.38607  0.60946  0.23036  1.0000
  C   C52       1.0  0.47200999999999993  0.6445400000000002  0.26341  1.0000
  C   C53       1.0  0.51416  0.74141  0.25924  1.0000
  C   C54       1.0  0.59546  0.7674600000000001  0.29084  1.0000
  C   C55       1.0  0.59461  0.60979  0.32988  1.0000
  C   C56       1.0  0.51307  0.5779  0.29999  1.0000
  C   C57       1.0  0.25004  0.75  0.62967  1.0000
  C   C58       1.0  0.25  0.75  0.12968  1.0000
  C   C59       1.0  0.17107  0.14196  0.51963  1.0000
  C   C60       1.0  0.10588  0.11746  0.47914  1.0000
  C   C61       1.0  0.00665  0.15501000000000004  0.48013  1.0000
  C   C62       1.0  0.97678  0.21468000000000007  0.52234  1.0000
  C   C63       1.0  0.047259999999999996  0.23696000000000006  0.56069  1.0000
  C   C64       1.0  0.93712  0.13172  0.4362  1.0000
  C   C65       1.0  0.76853  0.15597  0.40383  1.0000
  C   C66       1.0  0.6566699999999999  0.22933  0.33634  1.0000
  C   C67       1.0  0.60844  0.11415000000000002  0.26974  1.0000
  C   C68       1.0  0.64376  0.02858  0.23648  1.0000
  C   C69       1.0  0.74086  0.9867800000000002  0.24055000000000004  1.0000
  C   C70       1.0  0.76744  0.9059900000000002  0.20871  1.0000
  C   C71       1.0  0.60969  0.90659  0.16964  1.0000
  C   C72       1.0  0.57735  0.98769  0.1998  1.0000
  C   C73       1.0  0.32896  0.35801  0.51964  1.0000
  C   C74       1.0  0.39414  0.38253  0.47916  1.0000
  C   C75       1.0  0.49338  0.345  0.48014  1.0000
  C   C76       1.0  0.52326  0.28535000000000005  0.52235  1.0000
  C   C77       1.0  0.45279  0.26305000000000006  0.56069  1.0000
  C   C78       1.0  0.5629  0.36831  0.43622  1.0000
  C   C79       1.0  0.73149  0.34406  0.40383  1.0000
  C   C80       1.0  0.8433099999999999  0.27069000000000004  0.33633  1.0000
  C   C81       1.0  0.8914899999999999  0.38585000000000014  0.26973  1.0000
  C   C82       1.0  0.85619  0.4714400000000001  0.23648  1.0000
  C   C83       1.0  0.7591  0.51326  0.24054  1.0000
  C   C84       1.0  0.73254  0.5940500000000001  0.2087  1.0000
  C   C85       1.0  0.89028  0.59342  0.16964  1.0000
  C   C86       1.0  0.9226  0.51233  0.1998  1.0000
  C   C87       1.0  0.858  0.67093  0.019770000000000003  1.0000
  C   C88       1.0  0.8825  0.60573  0.97926  1.0000
  C   C89       1.0  0.8449799999999998  0.50657  0.9802  1.0000
  C   C90       1.0  0.78535  0.47678  0.02241  1.0000
  C   C91       1.0  0.76309  0.5472700000000001  0.06079  1.0000
  C   C92       1.0  0.86825  0.4370600000000001  0.93623  1.0000
  C   C93       1.0  0.8439899999999999  0.26843  0.90386  1.0000
  C   C94       1.0  0.77109  0.15673  0.83635  1.0000
  C   C95       1.0  0.88606  0.10901000000000001  0.7696600000000002  1.0000
  C   C96       1.0  0.9718199999999999  0.1441  0.73652  1.0000
  C   C97       1.0  0.01357  0.24114000000000005  0.7406  1.0000
  C   C98       1.0  0.09421  0.26759000000000005  0.7087100000000001  1.0000
  C   C99       1.0  0.09369  0.10984000000000001  0.66961  1.0000
  C   C100      1.0  0.01276  0.0776  0.69983  1.0000
  C   C101      1.0  0.64202  0.82905  0.019770000000000003  1.0000
  C   C102      1.0  0.61751  0.8942500000000002  0.97927  1.0000
  C   C103      1.0  0.65503  0.9934100000000002  0.98021  1.0000
  C   C104      1.0  0.71465  0.02322  0.02241  1.0000
  C   C105      1.0  0.73693  0.95273  0.06078000000000001  1.0000
  C   C106      1.0  0.63175  0.06291  0.93623  1.0000
  C   C107      1.0  0.65604  0.23152  0.90386  1.0000
  C   C108      1.0  0.72895  0.3431900000000001  0.83635  1.0000
  C   C109      1.0  0.61395  0.39098  0.76968  1.0000
  C   C110      1.0  0.52821  0.35589  0.7365400000000001  1.0000
  C   C111      1.0  0.48646999999999996  0.25884  0.7406  1.0000
  C   C112      1.0  0.40584  0.23240000000000005  0.7087  1.0000
  C   C113      1.0  0.40636  0.39016  0.66961  1.0000
  C   C114      1.0  0.4873  0.42239  0.69983  1.0000
  C   C115      1.0  0.7499999999999999  0.25001  0.37017  1.0000
  C   C116      1.0  0.75002  0.24996  0.87023  1.0000
  N   N1        1.0  0.85496  0.7960300000000002  0.44171000000000005  1.0000
  N   N2        1.0  0.29765  0.1361  0.8253600000000002  1.0000
  N   N3        1.0  0.64509  0.70394  0.44171000000000005  1.0000
  N   N4        1.0  0.20238  0.3639100000000001  0.82535  1.0000
  N   N5        1.0  0.20390999999999998  0.35494000000000003  0.9416200000000002  1.0000
  N   N6        1.0  0.86355  0.79728  0.32547  1.0000
  N   N7        1.0  0.29612  0.14508  0.9416200000000002  1.0000
  N   N8        1.0  0.63645  0.70271  0.32549  1.0000
  N   N9        1.0  0.14319  0.20192000000000002  0.55959  1.0000
  N   N10       1.0  0.703  0.8653500000000002  0.17383  1.0000
  N   N11       1.0  0.35686  0.29807  0.5596  1.0000
  N   N12       1.0  0.79697  0.63467  0.17382  1.0000
  N   N13       1.0  0.79809  0.64314  0.05971  1.0000
  N   N14       1.0  0.13478  0.20314000000000004  0.67376  1.0000
  N   N15       1.0  0.7019400000000001  0.8568600000000002  0.059720000000000016  1.0000
  N   N16       1.0  0.36524999999999996  0.2968700000000001  0.6737700000000001  1.0000
  Cl  Cl1       1.0  0.67735  0.9153800000000001  0.38236  1.0000
  Cl  Cl2       1.0  0.8226999999999999  0.5845600000000001  0.38235  1.0000
  Cl  Cl3       1.0  0.08483000000000002  0.17765  0.88216  1.0000
  Cl  Cl4       1.0  0.41526  0.3223100000000001  0.8821500000000001  1.0000
  Cl  Cl5       1.0  0.32299  0.08483  0.61801  1.0000
  Cl  Cl6       1.0  0.17700999999999997  0.4150900000000001  0.61798  1.0000
  Cl  Cl7       1.0  0.91505  0.8227000000000002  0.11806  1.0000
  Cl  Cl8       1.0  0.58501  0.67731  0.11805000000000003  1.0000
  O   O1        1.0  0.03972  0.91965  0.60152  1.0000
  O   O2        1.0  0.15483  0.82421  0.5568  1.0000
  O   O3        1.0  0.31664  0.8535100000000001  0.69793  1.0000
  O   O4        1.0  0.47565999999999997  0.84861  0.73191  1.0000
  O   O5        1.0  0.46032  0.58034  0.60152  1.0000
  O   O6        1.0  0.34521  0.67579  0.55679  1.0000
  O   O7        1.0  0.18346  0.64651  0.6979500000000001  1.0000
  O   O8        1.0  0.02442  0.65141  0.7319  1.0000
  O   O9        1.0  0.08042  0.53983  0.10152  1.0000
  O   O10       1.0  0.17583  0.65478  0.05685  1.0000
  O   O11       1.0  0.14619  0.81594  0.19795  1.0000
  O   O12       1.0  0.15115  0.97495  0.23197  1.0000
  O   O13       1.0  0.41958999999999996  0.9601700000000002  0.10151  1.0000
  O   O14       1.0  0.32417  0.84522  0.05685  1.0000
  O   O15       1.0  0.35386  0.68406  0.19794  1.0000
  O   O16       1.0  0.34888  0.52506  0.23197  1.0000
  O   O17       1.0  0.9603699999999998  0.08049  0.3985500000000001  1.0000
  O   O18       1.0  0.8449899999999999  0.17584  0.44314  1.0000
  O   O19       1.0  0.68312  0.14635  0.30203  1.0000
  O   O20       1.0  0.52395  0.15128  0.26824  1.0000
  O   O21       1.0  0.53964  0.4195000000000001  0.39856  1.0000
  O   O22       1.0  0.65504  0.32419  0.44315  1.0000
  O   O23       1.0  0.81683  0.35368  0.30204  1.0000
  O   O24       1.0  0.97598  0.34871000000000013  0.26823  1.0000
  O   O25       1.0  0.91941  0.4602500000000001  0.89858  1.0000
  O   O26       1.0  0.82406  0.3450500000000001  0.94312  1.0000
  O   O27       1.0  0.8538499999999999  0.18365  0.80204  1.0000
  O   O28       1.0  0.84873  0.0247  0.76804  1.0000
  O   O29       1.0  0.58061  0.03973000000000001  0.89858  1.0000
  O   O30       1.0  0.6759499999999999  0.15492  0.94312  1.0000
  O   O31       1.0  0.64621  0.31629  0.80202  1.0000
  O   O32       1.0  0.65129  0.4753000000000001  0.76808  1.0000
