data_image0
_chemical_formula_structural       Zn16H40C112N16O64
_chemical_formula_sum              "Zn16 H40 C112 N16 O64"
_cell_length_a       14.36985
_cell_length_b       15.00001
_cell_length_c       15.56847
_cell_angle_alpha    90.06885999999999
_cell_angle_beta     90.63433
_cell_angle_gamma    90.11908000000001

_symmetry_space_group_name_H-M    'P 1'
_symmetry_Int_Tables_number       1

loop_
  _symmetry_equiv_pos_as_xyz
  'x,y,z'

loop_
  _atom_site_type_symbol
  _atom_site_label
  _atom_site_symmetry_multiplicity
  _atom_site_fract_x
  _atom_site_fract_y
  _atom_site_fract_z
  _atom_site_occupancy
  Zn  Zn1       1.0  0.16977999999999993  0.60933  0.9676399999999997  1.0000
  Zn  Zn2       1.0  0.6312899999999998  0.8338  0.70421  1.0000
  Zn  Zn3       1.0  0.65015  0.8820900000000003  0.96773  1.0000
  Zn  Zn4       1.0  0.87657  0.35587  0.30963  1.0000
  Zn  Zn5       1.0  0.83003  0.10986  0.53043  1.0000
  Zn  Zn6       1.0  0.37270999999999993  0.33410000000000006  0.7979099999999998  1.0000
  Zn  Zn7       1.0  0.34944999999999987  0.38333  0.53451  1.0000
  Zn  Zn8       1.0  0.1276  0.85915  0.19278999999999996  1.0000
  Zn  Zn9       1.0  0.83022  0.39068  0.032359999999999986  1.0000
  Zn  Zn10      1.0  0.36871  0.16621  0.2957999999999999  1.0000
  Zn  Zn11      1.0  0.34985  0.11791  0.03228  1.0000
  Zn  Zn12      1.0  0.12342999999999996  0.64414  0.6903699999999998  1.0000
  Zn  Zn13      1.0  0.16997  0.8901400000000003  0.46957  1.0000
  Zn  Zn14      1.0  0.6272899999999998  0.6659  0.20209  1.0000
  Zn  Zn15      1.0  0.65055  0.61667  0.46549  1.0000
  Zn  Zn16      1.0  0.8723999999999997  0.14086  0.8072099999999998  1.0000
  H   H1        1.0  0.06795  0.26348  0.11780999999999998  1.0000
  H   H2        1.0  0.38319  0.7792300000000002  0.84992  1.0000
  H   H3        1.0  0.7034299999999998  0.23766  0.85406  1.0000
  H   H4        1.0  0.64334  0.39121  0.8448099999999998  1.0000
  H   H5        1.0  0.8951399999999998  0.46233000000000013  0.7099399999999998  1.0000
  H   H6        1.0  0.9439299999999998  0.30649  0.72291  1.0000
  H   H7        1.0  0.57246  0.68648  0.8364599999999998  1.0000
  H   H8        1.0  0.62423  0.53187  0.86416  1.0000
  H   H9        1.0  0.82633  0.5680900000000002  0.66163  1.0000
  H   H10       1.0  0.76983  0.71947  0.64558  1.0000
  H   H11       1.0  0.9327699999999999  0.7641800000000002  0.38232  1.0000
  H   H12       1.0  0.61801  0.2808500000000001  0.65229  1.0000
  H   H13       1.0  0.29673  0.73894  0.6461199999999998  1.0000
  H   H14       1.0  0.35743  0.8927100000000002  0.6570699999999998  1.0000
  H   H15       1.0  0.10527999999999997  0.9622100000000002  0.7923199999999998  1.0000
  H   H16       1.0  0.05664  0.8060800000000002  0.77811  1.0000
  H   H17       1.0  0.4274499999999999  0.18753  0.66435  1.0000
  H   H18       1.0  0.3754499999999999  0.03274  0.63685  1.0000
  H   H19       1.0  0.17358  0.06903  0.8394499999999998  1.0000
  H   H20       1.0  0.23037999999999995  0.22076  0.8553  1.0000
  H   H21       1.0  0.9320399999999998  0.73652  0.8822  1.0000
  H   H22       1.0  0.6168099999999997  0.22077  0.15008  1.0000
  H   H23       1.0  0.29656  0.76235  0.14595  1.0000
  H   H24       1.0  0.35666  0.6088000000000002  0.15519  1.0000
  H   H25       1.0  0.10484999999999997  0.53768  0.2900599999999999  1.0000
  H   H26       1.0  0.05606999999999999  0.69352  0.2771  1.0000
  H   H27       1.0  0.42754  0.31352  0.16354  1.0000
  H   H28       1.0  0.37576  0.4681300000000001  0.13585  1.0000
  H   H29       1.0  0.17367  0.4319100000000001  0.33837  1.0000
  H   H30       1.0  0.23016  0.28054  0.3544199999999999  1.0000
  H   H31       1.0  0.06723  0.23583  0.61768  1.0000
  H   H32       1.0  0.38199  0.7191600000000002  0.34771  1.0000
  H   H33       1.0  0.70327  0.26106  0.35387999999999986  1.0000
  H   H34       1.0  0.6425699999999999  0.1073  0.3429299999999999  1.0000
  H   H35       1.0  0.8947099999999998  0.037800000000000014  0.20767999999999995  1.0000
  H   H36       1.0  0.9433499999999999  0.19393000000000005  0.22189  1.0000
  H   H37       1.0  0.5725499999999999  0.81248  0.33565  1.0000
  H   H38       1.0  0.6245499999999998  0.96727  0.36315  1.0000
  H   H39       1.0  0.82642  0.93098  0.16054999999999994  1.0000
  H   H40       1.0  0.7696199999999999  0.77924  0.1447  1.0000
  C   C1        1.0  0.03451  0.57563  0.09704  1.0000
  C   C2        1.0  0.07664999999999997  0.4856000000000001  0.07694  1.0000
  C   C3        1.0  0.04688999999999999  0.40625  0.11497  1.0000
  C   C4        1.0  0.9701599999999998  0.40192  0.17871  1.0000
  C   C5        1.0  0.09039999999999997  0.32704  0.09126  1.0000
  C   C6        1.0  0.16272  0.32771  0.0317  1.0000
  C   C7        1.0  0.20795999999999998  0.23905  0.01371  1.0000
  C   C8        1.0  0.18846999999999994  0.4099500000000001  0.9956399999999997  1.0000
  C   C9        1.0  0.26047  0.4256300000000001  0.92681  1.0000
  C   C10       1.0  0.48079999999999995  0.07799  0.89828  1.0000
  C   C11       1.0  0.4233699999999999  0.9937000000000001  0.9107699999999997  1.0000
  C   C12       1.0  0.43662  0.91298  0.8672999999999997  1.0000
  C   C13       1.0  0.5171799999999999  0.89497  0.81021  1.0000
  C   C14       1.0  0.37521  0.84259  0.88333  1.0000
  C   C15       1.0  0.3035099999999999  0.8515100000000002  0.94308  1.0000
  C   C16       1.0  0.23357999999999995  0.7764300000000002  0.9499099999999998  1.0000
  C   C17       1.0  0.2988499999999999  0.9324400000000003  0.98833  1.0000
  C   C18       1.0  0.23913999999999994  0.95158  0.06552999999999998  1.0000
  C   C19       1.0  0.7430299999999997  0.28953  0.8220999999999998  1.0000
  C   C20       1.0  0.71079  0.37631  0.8177399999999999  1.0000
  C   C21       1.0  0.76354  0.44156  0.7753499999999998  1.0000
  C   C22       1.0  0.84858  0.41521  0.74048  1.0000
  C   C23       1.0  0.8772  0.3272700000000001  0.7478799999999998  1.0000
  C   C24       1.0  0.62831  0.65724  0.79939  1.0000
  C   C25       1.0  0.6581699999999998  0.57045  0.8143699999999998  1.0000
  C   C26       1.0  0.73066  0.5343000000000002  0.76536  1.0000
  C   C27       1.0  0.77101  0.58991  0.7036299999999998  1.0000
  C   C28       1.0  0.73885  0.67595  0.6929099999999998  1.0000
  C   C29       1.0  0.96571  0.07619000000000002  0.40145  1.0000
  C   C30       1.0  0.92352  0.9863900000000002  0.42226  1.0000
  C   C31       1.0  0.9537299999999999  0.9070600000000002  0.38483  1.0000
  C   C32       1.0  0.03138  0.90381  0.32203  1.0000
  C   C33       1.0  0.9100499999999998  0.8278200000000002  0.40846  1.0000
  C   C34       1.0  0.8373  0.8287200000000002  0.4676599999999999  1.0000
  C   C35       1.0  0.79187  0.74024  0.48621  1.0000
  C   C36       1.0  0.8120299999999998  0.91083  0.50415  1.0000
  C   C37       1.0  0.7413399999999998  0.9258500000000002  0.57432  1.0000
  C   C38       1.0  0.52011  0.57792  0.60044  1.0000
  C   C39       1.0  0.57749  0.49369  0.58779  1.0000
  C   C40       1.0  0.56433  0.4137  0.63234  1.0000
  C   C41       1.0  0.48431  0.39643  0.6901999999999998  1.0000
  C   C42       1.0  0.6257699999999998  0.34332  0.61749  1.0000
  C   C43       1.0  0.69709  0.35134  0.55729  1.0000
  C   C44       1.0  0.76666  0.27634  0.55045  1.0000
  C   C45       1.0  0.70189  0.43142000000000014  0.51102  1.0000
  C   C46       1.0  0.76266  0.4490500000000001  0.43423  1.0000
  C   C47       1.0  0.2573699999999999  0.79053  0.67862  1.0000
  C   C48       1.0  0.2898099999999999  0.8773400000000001  0.6838  1.0000
  C   C49       1.0  0.23679  0.9422400000000002  0.7263  1.0000
  C   C50       1.0  0.15188999999999997  0.9155000000000002  0.7613899999999998  1.0000
  C   C51       1.0  0.1233  0.82753  0.75335  1.0000
  C   C52       1.0  0.37164  0.15829000000000004  0.70155  1.0000
  C   C53       1.0  0.34164999999999995  0.0714  0.68665  1.0000
  C   C54       1.0  0.26935  0.03522  0.73594  1.0000
  C   C55       1.0  0.22888  0.09100000000000003  0.79742  1.0000
  C   C56       1.0  0.26125  0.17715  0.80804  1.0000
  C   C57       1.0  0.9654899999999997  0.42437  0.9029699999999998  1.0000
  C   C58       1.0  0.9233399999999998  0.51441  0.92306  1.0000
  C   C59       1.0  0.9530999999999998  0.59376  0.8850299999999998  1.0000
  C   C60       1.0  0.02983999999999999  0.59808  0.82129  1.0000
  C   C61       1.0  0.9096  0.67296  0.90875  1.0000
  C   C62       1.0  0.83727  0.67229  0.9682999999999998  1.0000
  C   C63       1.0  0.79204  0.76095  0.98629  1.0000
  C   C64       1.0  0.8115299999999998  0.5900600000000003  0.004369999999999998  1.0000
  C   C65       1.0  0.7395199999999997  0.57437  0.0732  1.0000
  C   C66       1.0  0.51919  0.9220100000000002  0.10172  1.0000
  C   C67       1.0  0.57662  0.00631  0.08922999999999998  1.0000
  C   C68       1.0  0.56338  0.08703  0.13271  1.0000
  C   C69       1.0  0.48282  0.10504000000000002  0.18979  1.0000
  C   C70       1.0  0.62479  0.15742  0.11667  1.0000
  C   C71       1.0  0.6964899999999998  0.14850000000000005  0.05692  1.0000
  C   C72       1.0  0.76642  0.22358000000000006  0.05009  1.0000
  C   C73       1.0  0.7011499999999998  0.06757  0.01167  1.0000
  C   C74       1.0  0.76086  0.048420000000000005  0.93448  1.0000
  C   C75       1.0  0.25696  0.71047  0.1779  1.0000
  C   C76       1.0  0.28919999999999996  0.6236900000000001  0.18226  1.0000
  C   C77       1.0  0.23646  0.55845  0.22465  1.0000
  C   C78       1.0  0.15142  0.5848  0.25952  1.0000
  C   C79       1.0  0.1228  0.6727300000000003  0.25212  1.0000
  C   C80       1.0  0.3716799999999999  0.34276  0.20061  1.0000
  C   C81       1.0  0.3418299999999999  0.4295500000000001  0.18563999999999994  1.0000
  C   C82       1.0  0.26933  0.4657000000000001  0.23464999999999994  1.0000
  C   C83       1.0  0.22898999999999994  0.4101  0.29637  1.0000
  C   C84       1.0  0.26114  0.32406  0.3070999999999999  1.0000
  C   C85       1.0  0.03429  0.92382  0.59855  1.0000
  C   C86       1.0  0.07648  0.01361  0.57775  1.0000
  C   C87       1.0  0.04625999999999999  0.09294000000000002  0.61517  1.0000
  C   C88       1.0  0.96861  0.0962  0.67797  1.0000
  C   C89       1.0  0.08994999999999999  0.17219000000000007  0.59155  1.0000
  C   C90       1.0  0.16269999999999996  0.17128  0.53234  1.0000
  C   C91       1.0  0.20812999999999995  0.25976  0.51379  1.0000
  C   C92       1.0  0.18796  0.08918  0.49586  1.0000
  C   C93       1.0  0.25866  0.07415  0.42568  1.0000
  C   C94       1.0  0.4798899999999999  0.42209000000000013  0.3995599999999999  1.0000
  C   C95       1.0  0.4225099999999999  0.50631  0.41221  1.0000
  C   C96       1.0  0.43566  0.5863000000000003  0.3676599999999999  1.0000
  C   C97       1.0  0.51569  0.60357  0.3097999999999999  1.0000
  C   C98       1.0  0.37422999999999995  0.65669  0.38252  1.0000
  C   C99       1.0  0.30291  0.64867  0.44272  1.0000
  C   C100      1.0  0.23333999999999994  0.72366  0.44955  1.0000
  C   C101      1.0  0.29810999999999993  0.5685800000000002  0.48898999999999987  1.0000
  C   C102      1.0  0.23733999999999994  0.5509600000000002  0.5657799999999998  1.0000
  C   C103      1.0  0.74262  0.20948  0.32138  1.0000
  C   C104      1.0  0.7101799999999999  0.12266000000000003  0.3162  1.0000
  C   C105      1.0  0.7631999999999998  0.05777000000000001  0.2737  1.0000
  C   C106      1.0  0.84811  0.08450000000000003  0.23861  1.0000
  C   C107      1.0  0.8766999999999998  0.17247000000000007  0.24664999999999995  1.0000
  C   C108      1.0  0.6283499999999997  0.84172  0.29845  1.0000
  C   C109      1.0  0.65835  0.92861  0.31334999999999996  1.0000
  C   C110      1.0  0.73065  0.96479  0.26406  1.0000
  C   C111      1.0  0.77112  0.90901  0.20258  1.0000
  C   C112      1.0  0.73875  0.8228600000000003  0.19196  1.0000
  N   N1        1.0  0.14529  0.4851600000000001  0.01964  1.0000
  N   N2        1.0  0.35632  0.99975  0.96935  1.0000
  N   N3        1.0  0.8254099999999998  0.26511  0.7875299999999997  1.0000
  N   N4        1.0  0.66763  0.70939  0.73891  1.0000
  N   N5        1.0  0.8550299999999997  0.9860600000000003  0.4797099999999999  1.0000
  N   N6        1.0  0.6445199999999999  0.49906  0.52906  1.0000
  N   N7        1.0  0.17483  0.76595  0.71286  1.0000
  N   N8        1.0  0.33273  0.21049  0.76218  1.0000
  N   N9        1.0  0.8547099999999997  0.51485  0.98036  1.0000
  N   N10       1.0  0.64368  0.00026000000000000003  0.03065  1.0000
  N   N11       1.0  0.17459000000000005  0.7349000000000002  0.21248  1.0000
  N   N12       1.0  0.33237  0.2906100000000001  0.2611  1.0000
  N   N13       1.0  0.14496999999999993  0.013940000000000003  0.5202999999999998  1.0000
  N   N14       1.0  0.3554799999999999  0.50094  0.47094  1.0000
  N   N15       1.0  0.82517  0.23406000000000005  0.28714  1.0000
  N   N16       1.0  0.66727  0.78951  0.23782  1.0000
  O   O1        1.0  0.9714699999999997  0.57637  0.15155  1.0000
  O   O2        1.0  0.06912  0.6424  0.05618  1.0000
  O   O3        1.0  0.8852499999999998  0.39303  0.15608  1.0000
  O   O4        1.0  0.9943  0.39322000000000007  0.25838  1.0000
  O   O5        1.0  0.16231999999999994  0.17932000000000006  0.9776399999999997  1.0000
  O   O6        1.0  0.29213  0.23359000000000005  0.04402  1.0000
  O   O7        1.0  0.2914099999999999  0.35282000000000013  0.89195  1.0000
  O   O8        1.0  0.28255  0.50344  0.9086099999999998  1.0000
  O   O9        1.0  0.45878999999999986  0.14358  0.94782  1.0000
  O   O10       1.0  0.5424399999999999  0.07585000000000003  0.8427  1.0000
  O   O11       1.0  0.5047999999999999  0.88431  0.72921  1.0000
  O   O12       1.0  0.59669  0.87628  0.84323  1.0000
  O   O13       1.0  0.15218  0.79041  0.92651  1.0000
  O   O14       1.0  0.26845  0.70051  0.9740399999999998  1.0000
  O   O15       1.0  0.24075999999999995  0.02678000000000001  0.09925  1.0000
  O   O16       1.0  0.19392  0.88218  0.09106  1.0000
  O   O17       1.0  0.02876  0.07649  0.34688999999999987  1.0000
  O   O18       1.0  0.9309399999999998  0.14310000000000003  0.44178  1.0000
  O   O19       1.0  0.11559999999999997  0.8930400000000002  0.34603  1.0000
  O   O20       1.0  0.00922  0.89758  0.24186  1.0000
  O   O21       1.0  0.8376  0.6823300000000001  0.52442  1.0000
  O   O22       1.0  0.7085  0.73275  0.4542  1.0000
  O   O23       1.0  0.7129199999999999  0.8526300000000002  0.6102799999999998  1.0000
  O   O24       1.0  0.71816  0.0031999999999999997  0.5928899999999998  1.0000
  O   O25       1.0  0.5413299999999999  0.64304  0.55005  1.0000
  O   O26       1.0  0.45940999999999993  0.5759300000000003  0.6570499999999998  1.0000
  O   O27       1.0  0.49877999999999995  0.3840800000000001  0.77072  1.0000
  O   O28       1.0  0.40356  0.37957000000000013  0.65873  1.0000
  O   O29       1.0  0.8475699999999998  0.29002  0.5756299999999999  1.0000
  O   O30       1.0  0.73184  0.20095  0.524  1.0000
  O   O31       1.0  0.7597899999999997  0.52307  0.3984899999999999  1.0000
  O   O32       1.0  0.8101699999999997  0.37997  0.41137  1.0000
  O   O33       1.0  0.02853  0.4236400000000001  0.84846  1.0000
  O   O34       1.0  0.9308799999999998  0.3576100000000001  0.94382  1.0000
  O   O35       1.0  0.11473999999999997  0.60697  0.8439199999999998  1.0000
  O   O36       1.0  0.005699999999999997  0.60679  0.7416299999999998  1.0000
  O   O37       1.0  0.8376799999999998  0.8206800000000002  0.02236  1.0000
  O   O38       1.0  0.70787  0.76642  0.95598  1.0000
  O   O39       1.0  0.7085899999999998  0.64718  0.10806  1.0000
  O   O40       1.0  0.7174499999999998  0.4965700000000001  0.0914  1.0000
  O   O41       1.0  0.54121  0.85642  0.052189999999999986  1.0000
  O   O42       1.0  0.45756  0.92416  0.15730999999999995  1.0000
  O   O43       1.0  0.4952  0.11570000000000003  0.27079  1.0000
  O   O44       1.0  0.40331  0.12373000000000003  0.15676999999999994  1.0000
  O   O45       1.0  0.84782  0.20960000000000006  0.07349  1.0000
  O   O46       1.0  0.73155  0.2994900000000001  0.025959999999999993  1.0000
  O   O47       1.0  0.7592299999999997  0.97323  0.9007499999999998  1.0000
  O   O48       1.0  0.8060799999999998  0.11783  0.90895  1.0000
  O   O49       1.0  0.9712399999999998  0.92351  0.65312  1.0000
  O   O50       1.0  0.06906  0.85691  0.55822  1.0000
  O   O51       1.0  0.8843999999999997  0.10697  0.65397  1.0000
  O   O52       1.0  0.99077  0.10243  0.75814  1.0000
  O   O53       1.0  0.16239999999999993  0.31767  0.4755799999999999  1.0000
  O   O54       1.0  0.29149  0.26725  0.5458  1.0000
  O   O55       1.0  0.28707  0.14738  0.3897199999999999  1.0000
  O   O56       1.0  0.28183999999999987  0.99681  0.4071099999999999  1.0000
  O   O57       1.0  0.45867  0.35696  0.4499499999999999  1.0000
  O   O58       1.0  0.54059  0.4240700000000001  0.3429599999999999  1.0000
  O   O59       1.0  0.50122  0.61592  0.22927999999999996  1.0000
  O   O60       1.0  0.59643  0.6204400000000002  0.34127  1.0000
  O   O61       1.0  0.15242  0.7099900000000002  0.42437  1.0000
  O   O62       1.0  0.26816  0.79906  0.476  1.0000
  O   O63       1.0  0.24020999999999998  0.47693000000000013  0.60152  1.0000
  O   O64       1.0  0.18983  0.62004  0.58864  1.0000
