data_image0
_chemical_formula_structural       Zn8H120C124N24O40
_chemical_formula_sum              "Zn8 H120 C124 N24 O40"
_cell_length_a       10.38705
_cell_length_b       15.33855
_cell_length_c       24.43097
_cell_angle_alpha    90.0
_cell_angle_beta     90.0
_cell_angle_gamma    90.00594

_symmetry_space_group_name_H-M    'P 1'
_symmetry_Int_Tables_number       1

loop_
  _symmetry_equiv_pos_as_xyz
  'x,y,z'

loop_
  _atom_site_type_symbol
  _atom_site_label
  _atom_site_symmetry_multiplicity
  _atom_site_fract_x
  _atom_site_fract_y
  _atom_site_fract_z
  _atom_site_occupancy
  Zn  Zn1       1.0  0.59504  0.50036  0.95962  1.0000
  Zn  Zn2       1.0  0.81492  0.50006  0.04528  1.0000
  Zn  Zn3       1.0  0.90496  0.49964  0.45962000000000003  1.0000
  Zn  Zn4       1.0  0.68508  0.49994  0.54528  1.0000
  Zn  Zn5       1.0  0.4051  0.00011  0.54043  1.0000
  Zn  Zn6       1.0  0.18511999999999998  0.99845  0.45463  1.0000
  Zn  Zn7       1.0  0.09489999999999998  0.9998899999999998  0.04043  1.0000
  Zn  Zn8       1.0  0.31488  0.00155  0.9546399999999999  1.0000
  H   H1        1.0  0.61399  0.33801  0.17115  1.0000
  H   H2        1.0  0.45835999999999993  0.25552  0.0169  1.0000
  H   H3        1.0  0.33071  0.13108  0.16496  1.0000
  H   H4        1.0  0.5490699999999998  0.25407  0.48309  1.0000
  H   H5        1.0  0.69024  0.35092999999999996  0.32931  1.0000
  H   H6        1.0  0.40819  0.14299  0.33327  1.0000
  H   H7        1.0  0.15795  0.65659  0.16288  1.0000
  H   H8        1.0  0.35868  0.56908  0.1359  1.0000
  H   H9        1.0  0.34076  0.46839  0.10267  1.0000
  H   H10       1.0  0.21259999999999998  0.52778  0.25123  1.0000
  H   H11       1.0  0.36942  0.56979  0.2436  1.0000
  H   H12       1.0  0.43127  0.43691  0.18837  1.0000
  H   H13       1.0  0.27271  0.39855  0.1917  1.0000
  H   H14       1.0  0.13095  0.43334  0.9871  1.0000
  H   H15       1.0  0.19236999999999999  0.32757  0.99986  1.0000
  H   H16       1.0  0.28204  0.41979  0.02063  1.0000
  H   H17       1.0  0.30156  0.3913999999999999  0.29413  1.0000
  H   H18       1.0  0.45899  0.42722  0.28144  1.0000
  H   H19       1.0  0.01868  0.35884999999999995  0.06643  1.0000
  H   H20       1.0  0.16609  0.35193  0.10198  1.0000
  H   H21       1.0  0.9092799999999999  0.64844  0.11925  1.0000
  H   H22       1.0  0.4146599999999999  0.44348  0.37736  1.0000
  H   H23       1.0  0.4391999999999999  0.54719  0.34853000000000006  1.0000
  H   H24       1.0  0.25961  0.6585599999999998  0.34931  1.0000
  H   H25       1.0  0.22914999999999996  0.34509  0.38223  1.0000
  H   H26       1.0  0.08607  0.35012  0.42091000000000006  1.0000
  H   H27       1.0  0.024899999999999995  0.66069  0.4050500000000001  1.0000
  H   H28       1.0  0.35108  0.40351  0.46889999999999993  1.0000
  H   H29       1.0  0.28347  0.29805  0.47569  1.0000
  H   H30       1.0  0.20358999999999997  0.38928  0.50499  1.0000
  H   H31       1.0  0.88601  0.66199  0.67115  1.0000
  H   H32       1.0  0.04164  0.74448  0.5169  1.0000
  H   H33       1.0  0.16929  0.86892  0.66496  1.0000
  H   H34       1.0  0.9509299999999999  0.74593  0.98309  1.0000
  H   H35       1.0  0.8097599999999999  0.64906  0.8293100000000001  1.0000
  H   H36       1.0  0.09181  0.85701  0.8332700000000001  1.0000
  H   H37       1.0  0.34205  0.34341  0.66288  1.0000
  H   H38       1.0  0.14132  0.43092  0.6359  1.0000
  H   H39       1.0  0.15924  0.5316099999999999  0.60267  1.0000
  H   H40       1.0  0.2874  0.47222  0.7512299999999998  1.0000
  H   H41       1.0  0.13058  0.43021  0.7436000000000001  1.0000
  H   H42       1.0  0.06873  0.56309  0.68837  1.0000
  H   H43       1.0  0.22729  0.60145  0.6917  1.0000
  H   H44       1.0  0.36905  0.56666  0.4871  1.0000
  H   H45       1.0  0.30762999999999996  0.67243  0.49987  1.0000
  H   H46       1.0  0.21796  0.58021  0.52064  1.0000
  H   H47       1.0  0.19844  0.6086  0.79414  1.0000
  H   H48       1.0  0.04101  0.57278  0.7814399999999999  1.0000
  H   H49       1.0  0.48132  0.64115  0.56643  1.0000
  H   H50       1.0  0.33391  0.64807  0.60198  1.0000
  H   H51       1.0  0.5907199999999999  0.35156  0.61925  1.0000
  H   H52       1.0  0.08533999999999999  0.55652  0.8773600000000001  1.0000
  H   H53       1.0  0.06079999999999999  0.45281  0.84853  1.0000
  H   H54       1.0  0.24039  0.34144  0.84931  1.0000
  H   H55       1.0  0.27085  0.65491  0.88223  1.0000
  H   H56       1.0  0.41393  0.6498799999999999  0.92091  1.0000
  H   H57       1.0  0.47509999999999997  0.33931  0.90505  1.0000
  H   H58       1.0  0.14892  0.59649  0.9689  1.0000
  H   H59       1.0  0.21653  0.70195  0.97569  1.0000
  H   H60       1.0  0.29641  0.61072  0.00499  1.0000
  H   H61       1.0  0.38629  0.83769  0.32902  1.0000
  H   H62       1.0  0.5423  0.75527  0.4830999999999999  1.0000
  H   H63       1.0  0.66931  0.6307  0.33493999999999996  1.0000
  H   H64       1.0  0.45024  0.75458  0.01698  1.0000
  H   H65       1.0  0.30954  0.85138  0.17079  1.0000
  H   H66       1.0  0.59143  0.64311  0.16656  1.0000
  H   H67       1.0  0.84197  0.1564  0.33711  1.0000
  H   H68       1.0  0.64129  0.06904  0.36411  1.0000
  H   H69       1.0  0.6592599999999998  0.96835  0.39734  1.0000
  H   H70       1.0  0.78737  0.02774  0.24878000000000003  1.0000
  H   H71       1.0  0.6305699999999999  0.06977  0.2564  1.0000
  H   H72       1.0  0.56868  0.9369  0.31164  1.0000
  H   H73       1.0  0.72724  0.89852  0.3083  1.0000
  H   H74       1.0  0.86904  0.93335  0.51292  1.0000
  H   H75       1.0  0.80762  0.82758  0.50014  1.0000
  H   H76       1.0  0.71802  0.9198099999999998  0.47934  1.0000
  H   H77       1.0  0.69846  0.89143  0.20585000000000003  1.0000
  H   H78       1.0  0.54096  0.9272  0.21858  1.0000
  H   H79       1.0  0.98139  0.85878  0.43361  1.0000
  H   H80       1.0  0.83407  0.8518099999999997  0.39804000000000006  1.0000
  H   H81       1.0  0.0907  0.14832  0.38069  1.0000
  H   H82       1.0  0.5853  0.94351  0.12263  1.0000
  H   H83       1.0  0.56059  0.04719  0.15152  1.0000
  H   H84       1.0  0.73993  0.15858999999999995  0.15091  1.0000
  H   H85       1.0  0.77098  0.84526  0.11778  1.0000
  H   H86       1.0  0.91401  0.85036  0.07907  1.0000
  H   H87       1.0  0.97457  0.16098  0.09503  1.0000
  H   H88       1.0  0.64896  0.90353  0.03108  1.0000
  H   H89       1.0  0.71668  0.79808  0.02438  1.0000
  H   H90       1.0  0.7964  0.88929  0.99498  1.0000
  H   H91       1.0  0.11371  0.16231  0.8290200000000001  1.0000
  H   H92       1.0  0.9576999999999999  0.24473  0.98311  1.0000
  H   H93       1.0  0.83069  0.3693  0.83494  1.0000
  H   H94       1.0  0.04975999999999999  0.24541999999999997  0.51698  1.0000
  H   H95       1.0  0.19046  0.14862  0.67079  1.0000
  H   H96       1.0  0.90857  0.35688999999999993  0.66656  1.0000
  H   H97       1.0  0.65803  0.8436  0.83712  1.0000
  H   H98       1.0  0.85871  0.93096  0.86411  1.0000
  H   H99       1.0  0.84074  0.03165  0.89734  1.0000
  H   H100      1.0  0.7126299999999999  0.97226  0.7487799999999999  1.0000
  H   H101      1.0  0.86943  0.93023  0.7564  1.0000
  H   H102      1.0  0.9313199999999999  0.06309  0.81164  1.0000
  H   H103      1.0  0.7727599999999999  0.10148  0.8083000000000001  1.0000
  H   H104      1.0  0.63096  0.06665  0.01292  1.0000
  H   H105      1.0  0.69238  0.17242  0.00014  1.0000
  H   H106      1.0  0.7819799999999999  0.08018  0.97934  1.0000
  H   H107      1.0  0.80154  0.10857  0.7058499999999999  1.0000
  H   H108      1.0  0.95904  0.0728  0.7185800000000001  1.0000
  H   H109      1.0  0.51861  0.14122  0.93361  1.0000
  H   H110      1.0  0.66593  0.14818  0.8980399999999998  1.0000
  H   H111      1.0  0.40929999999999994  0.85168  0.88069  1.0000
  H   H112      1.0  0.9147  0.05648  0.62263  1.0000
  H   H113      1.0  0.9394099999999999  0.95281  0.65152  1.0000
  H   H114      1.0  0.7600699999999999  0.8414099999999998  0.65091  1.0000
  H   H115      1.0  0.72902  0.15474  0.61778  1.0000
  H   H116      1.0  0.58599  0.14964  0.57907  1.0000
  H   H117      1.0  0.52543  0.83902  0.59503  1.0000
  H   H118      1.0  0.8510399999999999  0.09647  0.53109  1.0000
  H   H119      1.0  0.7833199999999999  0.20191999999999996  0.52438  1.0000
  H   H120      1.0  0.7035999999999999  0.11071  0.49498000000000003  1.0000
  C   C1        1.0  0.54952  0.29568  0.14861  1.0000
  C   C2        1.0  0.53951  0.30558  0.09184  1.0000
  C   C3        1.0  0.4759399999999999  0.19018  0.41089  1.0000
  C   C4        1.0  0.39128  0.18427  0.08754  1.0000
  C   C5        1.0  0.4734999999999999  0.2327  0.17462  1.0000
  C   C6        1.0  0.62261  0.31229  0.40895  1.0000
  C   C7        1.0  0.54844  0.2475  0.32447  1.0000
  C   C8        1.0  0.4628399999999999  0.24888  0.06116  1.0000
  C   C9        1.0  0.31345  0.11985  0.055540000000000006  1.0000
  C   C10       1.0  0.39230999999999994  0.17804  0.1445  1.0000
  C   C11       1.0  0.54948  0.25211  0.43859  1.0000
  C   C12       1.0  0.62724  0.30751  0.35193  1.0000
  C   C13       1.0  0.60953  0.37881  0.06373  1.0000
  C   C14       1.0  0.47044  0.18942  0.3536099999999999  1.0000
  C   C15       1.0  0.10938999999999999  0.6066  0.13933  1.0000
  C   C16       1.0  0.30508  0.50754  0.13702  1.0000
  C   C17       1.0  0.08485  0.47914  0.09589  1.0000
  C   C18       1.0  0.31359  0.50881  0.24485  1.0000
  C   C19       1.0  0.33036  0.4587  0.19071000000000002  1.0000
  C   C20       1.0  0.18409  0.39364  0.01682  1.0000
  C   C21       1.0  0.6973  0.38106  0.43902  1.0000
  C   C22       1.0  0.36161  0.4504  0.29189  1.0000
  C   C23       1.0  0.11215  0.3912  0.07209  1.0000
  C   C24       1.0  0.98788  0.60212  0.11786  1.0000
  C   C25       1.0  0.37328999999999996  0.49133  0.34897  1.0000
  C   C26       1.0  0.20662999999999998  0.60749  0.37008  1.0000
  C   C27       1.0  0.16453  0.47318  0.40128  1.0000
  C   C28       1.0  0.1821  0.37946  0.41629  1.0000
  C   C29       1.0  0.09153  0.60785  0.39732  1.0000
  C   C30       1.0  0.26001  0.36718  0.46965999999999997  1.0000
  C   C31       1.0  0.40469  0.12127  0.44216  1.0000
  C   C32       1.0  0.95048  0.70432  0.64861  1.0000
  C   C33       1.0  0.96049  0.69442  0.59185  1.0000
  C   C34       1.0  0.02406  0.80982  0.9109  1.0000
  C   C35       1.0  0.10871  0.81573  0.58754  1.0000
  C   C36       1.0  0.026499999999999996  0.7673  0.67462  1.0000
  C   C37       1.0  0.87739  0.6877099999999999  0.90896  1.0000
  C   C38       1.0  0.9515599999999999  0.7525  0.82447  1.0000
  C   C39       1.0  0.03715999999999999  0.75112  0.56116  1.0000
  C   C40       1.0  0.18653999999999998  0.88014  0.55554  1.0000
  C   C41       1.0  0.10768999999999998  0.82196  0.6445  1.0000
  C   C42       1.0  0.9505199999999999  0.74789  0.9386000000000001  1.0000
  C   C43       1.0  0.87276  0.69249  0.85194  1.0000
  C   C44       1.0  0.8904699999999999  0.62119  0.56373  1.0000
  C   C45       1.0  0.02956  0.8105799999999999  0.85361  1.0000
  C   C46       1.0  0.39059999999999995  0.3934  0.63933  1.0000
  C   C47       1.0  0.19492000000000004  0.4924499999999999  0.63702  1.0000
  C   C48       1.0  0.41515  0.52085  0.5959  1.0000
  C   C49       1.0  0.18641  0.49119  0.74485  1.0000
  C   C50       1.0  0.16964  0.5413  0.69071  1.0000
  C   C51       1.0  0.31591  0.60636  0.51682  1.0000
  C   C52       1.0  0.8027  0.61894  0.93902  1.0000
  C   C53       1.0  0.13839  0.5496  0.7919000000000002  1.0000
  C   C54       1.0  0.3878499999999999  0.6087999999999998  0.57209  1.0000
  C   C55       1.0  0.51212  0.39788  0.61786  1.0000
  C   C56       1.0  0.12671  0.50867  0.84897  1.0000
  C   C57       1.0  0.29337  0.39250999999999997  0.87008  1.0000
  C   C58       1.0  0.33547  0.52682  0.90128  1.0000
  C   C59       1.0  0.3179  0.62054  0.9162900000000002  1.0000
  C   C60       1.0  0.40846999999999994  0.39215  0.89732  1.0000
  C   C61       1.0  0.23998999999999998  0.63281  0.96966  1.0000
  C   C62       1.0  0.09531  0.8787299999999998  0.94216  1.0000
  C   C63       1.0  0.45104999999999995  0.7955  0.35147  1.0000
  C   C64       1.0  0.46188  0.80539  0.40816  1.0000
  C   C65       1.0  0.52311  0.69045  0.08919  1.0000
  C   C66       1.0  0.60842  0.68347  0.41253000000000006  1.0000
  C   C67       1.0  0.52677  0.73244  0.32543  1.0000
  C   C68       1.0  0.37677  0.81267  0.09104  1.0000
  C   C69       1.0  0.45083  0.7476999999999999  0.17559000000000002  1.0000
  C   C70       1.0  0.53766  0.74841  0.43887  1.0000
  C   C71       1.0  0.68487  0.61891  0.44496  1.0000
  C   C72       1.0  0.6075599999999999  0.67742  0.35553999999999997  1.0000
  C   C73       1.0  0.44991999999999993  0.75248  0.06145  1.0000
  C   C74       1.0  0.37227999999999994  0.80789  0.14807  1.0000
  C   C75       1.0  0.39124  0.8777099999999998  0.43649  1.0000
  C   C76       1.0  0.52903  0.68973  0.14645  1.0000
  C   C77       1.0  0.8906699999999999  0.10646  0.36067  1.0000
  C   C78       1.0  0.6949  0.00751  0.36298  1.0000
  C   C79       1.0  0.9151699999999999  0.979  0.40406  1.0000
  C   C80       1.0  0.68637  0.00879  0.25517  1.0000
  C   C81       1.0  0.6696  0.9586699999999999  0.30929  1.0000
  C   C82       1.0  0.81593  0.89364  0.48318  1.0000
  C   C83       1.0  0.30293  0.8816  0.06073  1.0000
  C   C84       1.0  0.63832  0.95038  0.20811999999999997  1.0000
  C   C85       1.0  0.8879099999999999  0.89113  0.42793  1.0000
  C   C86       1.0  0.01224  0.1019  0.3821  1.0000
  C   C87       1.0  0.62655  0.99135  0.15107  1.0000
  C   C88       1.0  0.7929499999999999  0.10763  0.13003  1.0000
  C   C89       1.0  0.83526  0.9734  0.09872  1.0000
  C   C90       1.0  0.8179399999999999  0.87965  0.0837  1.0000
  C   C91       1.0  0.9079599999999999  0.10814  0.10273  1.0000
  C   C92       1.0  0.74004  0.86724  0.03034  1.0000
  C   C93       1.0  0.59517  0.6218  0.05813  1.0000
  C   C94       1.0  0.04895  0.2045  0.8514800000000001  1.0000
  C   C95       1.0  0.03812  0.19461  0.90817  1.0000
  C   C96       1.0  0.97689  0.30955  0.58919  1.0000
  C   C97       1.0  0.89158  0.31653  0.9125299999999998  1.0000
  C   C98       1.0  0.97323  0.26756  0.82543  1.0000
  C   C99       1.0  0.12323  0.18733  0.59105  1.0000
  C   C100      1.0  0.04916999999999999  0.2523  0.67559  1.0000
  C   C101      1.0  0.96234  0.25158  0.93888  1.0000
  C   C102      1.0  0.81513  0.38108999999999993  0.94496  1.0000
  C   C103      1.0  0.89244  0.32258  0.85554  1.0000
  C   C104      1.0  0.05008  0.24752  0.56145  1.0000
  C   C105      1.0  0.12772  0.19211  0.64807  1.0000
  C   C106      1.0  0.10876  0.12229  0.93649  1.0000
  C   C107      1.0  0.97097  0.31027  0.64645  1.0000
  C   C108      1.0  0.60933  0.89354  0.8606699999999999  1.0000
  C   C109      1.0  0.8051  0.99249  0.86298  1.0000
  C   C110      1.0  0.58483  0.021  0.90406  1.0000
  C   C111      1.0  0.8136299999999999  0.9912099999999998  0.75517  1.0000
  C   C112      1.0  0.8303999999999999  0.04133  0.8093  1.0000
  C   C113      1.0  0.68407  0.10634999999999999  0.98318  1.0000
  C   C114      1.0  0.19707  0.11839  0.56073  1.0000
  C   C115      1.0  0.86168  0.04962  0.7081199999999999  1.0000
  C   C116      1.0  0.6120899999999999  0.10887  0.9279299999999999  1.0000
  C   C117      1.0  0.48775999999999997  0.89809  0.8821099999999998  1.0000
  C   C118      1.0  0.8734499999999998  0.00865  0.65107  1.0000
  C   C119      1.0  0.70705  0.8923699999999998  0.63003  1.0000
  C   C120      1.0  0.66474  0.0266  0.59872  1.0000
  C   C121      1.0  0.68206  0.12035  0.58371  1.0000
  C   C122      1.0  0.59204  0.8918599999999998  0.60273  1.0000
  C   C123      1.0  0.75996  0.13276  0.53034  1.0000
  C   C124      1.0  0.90483  0.3782  0.55813  1.0000
  N   N1        1.0  0.16998  0.52894  0.12525  1.0000
  N   N2        1.0  0.46117  0.225  0.23342  1.0000
  N   N3        1.0  0.56289  0.24630999999999995  0.26554  1.0000
  N   N4        1.0  0.97365  0.52317  0.09098  1.0000
  N   N5        1.0  0.2519  0.52231  0.3727  1.0000
  N   N6        1.0  0.06612  0.52451  0.41628  1.0000
  N   N7        1.0  0.33002  0.47105999999999987  0.62525  1.0000
  N   N8        1.0  0.03883  0.775  0.73342  1.0000
  N   N9        1.0  0.9371099999999999  0.75369  0.76554  1.0000
  N   N10       1.0  0.52635  0.47683  0.59098  1.0000
  N   N11       1.0  0.2481  0.47769  0.8727  1.0000
  N   N12       1.0  0.43388  0.47549  0.9162900000000002  1.0000
  N   N13       1.0  0.83002  0.02885  0.37476  1.0000
  N   N14       1.0  0.53839  0.72449  0.26662  1.0000
  N   N15       1.0  0.43698999999999993  0.74719  0.23454999999999998  1.0000
  N   N16       1.0  0.026499999999999996  0.02289  0.40894  1.0000
  N   N17       1.0  0.74788  0.0224  0.12737  1.0000
  N   N18       1.0  0.93351  0.02485  0.08368999999999999  1.0000
  N   N19       1.0  0.66998  0.97115  0.8747600000000001  1.0000
  N   N20       1.0  0.96161  0.27551  0.7666199999999999  1.0000
  N   N21       1.0  0.06301  0.25281  0.7345500000000001  1.0000
  N   N22       1.0  0.4734999999999999  0.97711  0.90894  1.0000
  N   N23       1.0  0.75212  0.9776  0.62737  1.0000
  N   N24       1.0  0.5664899999999999  0.97515  0.58369  1.0000
  O   O1        1.0  0.36397  0.09527  0.01061  1.0000
  O   O2        1.0  0.20848  0.09502  0.07681  1.0000
  O   O3        1.0  0.71156  0.40681  0.08649  1.0000
  O   O4        1.0  0.5579899999999999  0.40651  0.01985  1.0000
  O   O5        1.0  0.6713  0.26787  0.24487  1.0000
  O   O6        1.0  0.7995399999999999  0.40876  0.41651000000000005  1.0000
  O   O7        1.0  0.64851  0.4055  0.48424000000000006  1.0000
  O   O8        1.0  0.35529  0.19755  0.25322  1.0000
  O   O9        1.0  0.45419  0.09948  0.48785  1.0000
  O   O10       1.0  0.30473  0.09026  0.41956  1.0000
  O   O11       1.0  0.13603  0.90473  0.51061  1.0000
  O   O12       1.0  0.29152  0.9049799999999998  0.57682  1.0000
  O   O13       1.0  0.78844  0.59319  0.58649  1.0000
  O   O14       1.0  0.9420099999999999  0.59349  0.51985  1.0000
  O   O15       1.0  0.8287  0.73213  0.74487  1.0000
  O   O16       1.0  0.70046  0.59123  0.91651  1.0000
  O   O17       1.0  0.8514899999999999  0.5945  0.98424  1.0000
  O   O18       1.0  0.14471  0.80245  0.75323  1.0000
  O   O19       1.0  0.04581  0.90052  0.98785  1.0000
  O   O20       1.0  0.19527  0.90974  0.91956  1.0000
  O   O21       1.0  0.63638  0.59708  0.49088  1.0000
  O   O22       1.0  0.7882  0.5922  0.42315  1.0000
  O   O23       1.0  0.28872  0.905  0.41376  1.0000
  O   O24       1.0  0.44273999999999997  0.90536  0.48035  1.0000
  O   O25       1.0  0.3295  0.7706  0.25526  1.0000
  O   O26       1.0  0.20121  0.91003  0.08351000000000001  1.0000
  O   O27       1.0  0.35108  0.90502  0.015230000000000002  1.0000
  O   O28       1.0  0.64369  0.69616  0.24677  1.0000
  O   O29       1.0  0.54537  0.59826  0.01296  1.0000
  O   O30       1.0  0.69635  0.5922799999999999  0.08062  1.0000
  O   O31       1.0  0.86362  0.40292  0.99089  1.0000
  O   O32       1.0  0.7118  0.40779  0.92315  1.0000
  O   O33       1.0  0.21128  0.095  0.9137599999999999  1.0000
  O   O34       1.0  0.05726  0.09464  0.98035  1.0000
  O   O35       1.0  0.1705  0.22939999999999997  0.75526  1.0000
  O   O36       1.0  0.29878  0.08997  0.58351  1.0000
  O   O37       1.0  0.14892  0.09498  0.51523  1.0000
  O   O38       1.0  0.85631  0.30384  0.7467700000000002  1.0000
  O   O39       1.0  0.95463  0.40174  0.51296  1.0000
  O   O40       1.0  0.80365  0.40772  0.58062  1.0000
