data_image0
_chemical_formula_structural       Cu16H72C152N16O64
_chemical_formula_sum              "Cu16 H72 C152 N16 O64"
_cell_length_a       18.06219
_cell_length_b       18.03462
_cell_length_c       28.240760000000005
_cell_angle_alpha    90.00406
_cell_angle_beta     89.99369
_cell_angle_gamma    89.99364999999999

_symmetry_space_group_name_H-M    'P 1'
_symmetry_Int_Tables_number       1

loop_
  _symmetry_equiv_pos_as_xyz
  'x,y,z'

loop_
  _atom_site_type_symbol
  _atom_site_label
  _atom_site_symmetry_multiplicity
  _atom_site_fract_x
  _atom_site_fract_y
  _atom_site_fract_z
  _atom_site_occupancy
  Cu  Cu1       1.0  0.03614  0.53648  0.5290499999999999  1.0000
  Cu  Cu2       1.0  0.46181000000000005  0.9617599999999998  0.5292299999999999  1.0000
  Cu  Cu3       1.0  0.9637700000000001  0.03643  0.02897  1.0000
  Cu  Cu4       1.0  0.53613  0.46376999999999996  0.029229999999999992  1.0000
  Cu  Cu5       1.0  0.46375  0.53655  0.9708999999999998  1.0000
  Cu  Cu6       1.0  0.03637  0.9634799999999999  0.9708399999999998  1.0000
  Cu  Cu7       1.0  0.53523  0.03516  0.4716299999999999  1.0000
  Cu  Cu8       1.0  0.96352  0.46368999999999994  0.4707499999999999  1.0000
  Cu  Cu9       1.0  0.24985000000000002  0.3194  0.7497999999999998  1.0000
  Cu  Cu10      1.0  0.24944000000000002  0.18252  0.7493799999999999  1.0000
  Cu  Cu11      1.0  0.18189  0.25005  0.24994999999999995  1.0000
  Cu  Cu12      1.0  0.31826000000000004  0.25003  0.24998999999999993  1.0000
  Cu  Cu13      1.0  0.7498400000000002  0.68203  0.25003  1.0000
  Cu  Cu14      1.0  0.74994  0.8187399999999999  0.24992999999999996  1.0000
  Cu  Cu15      1.0  0.8185  0.74999  0.74999  1.0000
  Cu  Cu16      1.0  0.68209  0.75002  0.7500099999999997  1.0000
  H   H1        1.0  0.11388  0.36163  0.62631  1.0000
  H   H2        1.0  0.96062  0.24851  0.5353199999999999  1.0000
  H   H3        1.0  0.06703  0.13111  0.65125  1.0000
  H   H4        1.0  0.99894  0.11045999999999999  0.50561  1.0000
  H   H5        1.0  0.38547  0.13866  0.62682  1.0000
  H   H6        1.0  0.5387  0.25106  0.5353499999999999  1.0000
  H   H7        1.0  0.43374  0.36875  0.6517799999999999  1.0000
  H   H8        1.0  0.5013400000000002  0.38920999999999994  0.50542  1.0000
  H   H9        1.0  0.13872  0.11485  0.12667  1.0000
  H   H10       1.0  0.25129  0.96148  0.035299999999999984  1.0000
  H   H11       1.0  0.36848  0.06655  0.15176999999999996  1.0000
  H   H12       1.0  0.38895000000000013  0.9990999999999999  0.005419999999999999  1.0000
  H   H13       1.0  0.36145  0.38601  0.12671  1.0000
  H   H14       1.0  0.24836000000000005  0.53895  0.03539999999999999  1.0000
  H   H15       1.0  0.13142000000000004  0.43314  0.15174  1.0000
  H   H16       1.0  0.11073  0.50109  0.0055299999999999985  1.0000
  H   H17       1.0  0.38478000000000007  0.36121  0.8732099999999999  1.0000
  H   H18       1.0  0.53824  0.24852999999999997  0.9642699999999997  1.0000
  H   H19       1.0  0.43257  0.13095  0.8480999999999997  1.0000
  H   H20       1.0  0.50063  0.11085  0.9941699999999998  1.0000
  H   H21       1.0  0.11436  0.13925  0.87248  1.0000
  H   H22       1.0  0.96195  0.25128  0.9647299999999998  1.0000
  H   H23       1.0  0.06566  0.36934  0.8480199999999999  1.0000
  H   H24       1.0  0.99869  0.38938  0.9945699999999997  1.0000
  H   H25       1.0  0.36111  0.11413999999999999  0.37329  1.0000
  H   H26       1.0  0.24756  0.9611799999999999  0.4643799999999999  1.0000
  H   H27       1.0  0.13116  0.06703  0.34787  1.0000
  H   H28       1.0  0.11060000000000002  0.99934  0.4942999999999999  1.0000
  H   H29       1.0  0.13854  0.3855  0.37316999999999995  1.0000
  H   H30       1.0  0.25122  0.5387  0.46456999999999987  1.0000
  H   H31       1.0  0.36848  0.43313  0.34826  1.0000
  H   H32       1.0  0.3888300000000001  0.50109  0.4945299999999999  1.0000
  H   H33       1.0  0.88494  0.63905  0.3731799999999999  1.0000
  H   H34       1.0  0.038750000000000014  0.75109  0.46433999999999986  1.0000
  H   H35       1.0  0.9330600000000001  0.86925  0.34841999999999995  1.0000
  H   H36       1.0  0.00124  0.8891  0.4945199999999999  1.0000
  H   H37       1.0  0.61423  0.86083  0.37330999999999986  1.0000
  H   H38       1.0  0.46113000000000004  0.74716  0.46416  1.0000
  H   H39       1.0  0.56751  0.6305499999999999  0.34785  1.0000
  H   H40       1.0  0.49928  0.61029  0.4940799999999999  1.0000
  H   H41       1.0  0.8612200000000002  0.88521  0.8734  1.0000
  H   H42       1.0  0.7486400000000002  0.03863  0.9647299999999998  1.0000
  H   H43       1.0  0.63152  0.9334699999999999  0.8481999999999997  1.0000
  H   H44       1.0  0.61074  0.00142  0.9944599999999998  1.0000
  H   H45       1.0  0.63873  0.61477  0.8733099999999999  1.0000
  H   H46       1.0  0.75127  0.46143  0.96466  1.0000
  H   H47       1.0  0.86851  0.56659  0.8482299999999998  1.0000
  H   H48       1.0  0.88895  0.49928999999999996  0.9945399999999998  1.0000
  H   H49       1.0  0.6144700000000001  0.63883  0.12667  1.0000
  H   H50       1.0  0.46152  0.75163  0.035299999999999984  1.0000
  H   H51       1.0  0.5662500000000001  0.8689  0.15189999999999995  1.0000
  H   H52       1.0  0.49885  0.88942  0.005459999999999998  1.0000
  H   H53       1.0  0.88476  0.8610799999999998  0.12671999999999997  1.0000
  H   H54       1.0  0.0384  0.74854  0.0356  1.0000
  H   H55       1.0  0.9327300000000001  0.63104  0.15182  1.0000
  H   H56       1.0  0.00083  0.61081  0.00569  1.0000
  H   H57       1.0  0.6386  0.88517  0.6267099999999998  1.0000
  H   H58       1.0  0.75109  0.0387  0.5353499999999999  1.0000
  H   H59       1.0  0.8684  0.9334000000000001  0.65167  1.0000
  H   H60       1.0  0.8889400000000001  0.00077  0.5055099999999999  1.0000
  H   H61       1.0  0.8612900000000001  0.61438  0.62683  1.0000
  H   H62       1.0  0.74866  0.46113  0.5354999999999999  1.0000
  H   H63       1.0  0.63136  0.56673  0.65181  1.0000
  H   H64       1.0  0.61086  0.49922  0.50555  1.0000
  H   H65       1.0  0.9041400000000002  0.0955  0.64294  1.0000
  H   H66       1.0  0.59585  0.40409999999999996  0.64284  1.0000
  H   H67       1.0  0.40414000000000005  0.9044500000000001  0.14282999999999996  1.0000
  H   H68       1.0  0.09536  0.5955  0.14304999999999995  1.0000
  H   H69       1.0  0.59559  0.09555  0.85689  1.0000
  H   H70       1.0  0.9042100000000001  0.40442  0.8571699999999998  1.0000
  H   H71       1.0  0.0953  0.90427  0.3569899999999999  1.0000
  H   H72       1.0  0.40437  0.59477  0.35683  1.0000
  C   C1        1.0  0.15108  0.24538  0.68298  1.0000
  C   C2        1.0  0.036740000000000016  0.31179999999999997  0.57759  1.0000
  C   C3        1.0  0.0846  0.31124  0.6165399999999998  1.0000
  C   C4        1.0  0.09588  0.24634  0.64283  1.0000
  C   C5        1.0  0.00905  0.18336  0.5923699999999998  1.0000
  C   C6        1.0  0.99859  0.24715999999999996  0.56522  1.0000
  C   C7        1.0  0.057390000000000004  0.18139  0.6308699999999999  1.0000
  C   C8        1.0  0.02474  0.38124  0.54892  1.0000
  C   C9        1.0  0.9631300000000002  0.08996  0.5333899999999998  1.0000
  C   C10       1.0  0.35029  0.2543599999999999  0.6839999999999998  1.0000
  C   C11       1.0  0.46266000000000007  0.18799  0.5777299999999997  1.0000
  C   C12       1.0  0.41507  0.18877  0.6168399999999998  1.0000
  C   C13       1.0  0.40456  0.25368  0.6433099999999999  1.0000
  C   C14       1.0  0.49080000000000007  0.31649  0.59242  1.0000
  C   C15       1.0  0.50084  0.25259  0.5652899999999997  1.0000
  C   C16       1.0  0.44303000000000003  0.31855  0.63122  1.0000
  C   C17       1.0  0.47485000000000005  0.11848  0.54901  1.0000
  C   C18       1.0  0.5368800000000001  0.4098  0.5333099999999998  1.0000
  C   C19       1.0  0.2539  0.15002  0.18396999999999994  1.0000
  C   C20       1.0  0.18814000000000006  0.03752  0.07767999999999997  1.0000
  C   C21       1.0  0.18879  0.0852  0.11675999999999997  1.0000
  C   C22       1.0  0.25349  0.09577  0.14327999999999996  1.0000
  C   C23       1.0  0.3164500000000001  0.00955  0.09238  1.0000
  C   C24       1.0  0.2527  0.9993799999999999  0.06525  1.0000
  C   C25       1.0  0.31836  0.05733  0.13121  1.0000
  C   C26       1.0  0.11879  0.02514  0.04902  1.0000
  C   C27       1.0  0.40957  0.9634799999999999  0.03328  1.0000
  C   C28       1.0  0.24614  0.35002  0.18393999999999996  1.0000
  C   C29       1.0  0.31171  0.46327000000000007  0.07789999999999997  1.0000
  C   C30       1.0  0.31119  0.41536  0.11686  1.0000
  C   C31       1.0  0.24647  0.40434  0.14326999999999995  1.0000
  C   C32       1.0  0.18327  0.49059  0.09245999999999999  1.0000
  C   C33       1.0  0.24703000000000003  0.5010799999999999  0.06535999999999999  1.0000
  C   C34       1.0  0.18151  0.44264  0.1312  1.0000
  C   C35       1.0  0.38128  0.47618999999999995  0.04961  1.0000
  C   C36       1.0  0.0901  0.5366599999999999  0.03342  1.0000
  C   C37       1.0  0.34859  0.24573000000000003  0.81621  1.0000
  C   C38       1.0  0.46223  0.31178  0.9220599999999998  1.0000
  C   C39       1.0  0.4142700000000001  0.31099  0.8831299999999997  1.0000
  C   C40       1.0  0.40326  0.24604000000000004  0.85674  1.0000
  C   C41       1.0  0.49010000000000004  0.18322  0.9072399999999998  1.0000
  C   C42       1.0  0.50039  0.24711000000000002  0.9343399999999997  1.0000
  C   C43       1.0  0.44185  0.18113  0.8686699999999998  1.0000
  C   C44       1.0  0.47469000000000006  0.38122  0.95083  1.0000
  C   C45       1.0  0.53639  0.09028  0.9663999999999998  1.0000
  C   C46       1.0  0.1485  0.25533  0.8150599999999998  1.0000
  C   C47       1.0  0.0376  0.18841  0.9219899999999999  1.0000
  C   C48       1.0  0.08478  0.1893  0.8826499999999999  1.0000
  C   C49       1.0  0.09491  0.25429  0.85617  1.0000
  C   C50       1.0  0.009230000000000002  0.31692  0.9075499999999997  1.0000
  C   C51       1.0  0.9995000000000002  0.25296  0.9346399999999998  1.0000
  C   C52       1.0  0.05659  0.3191  0.8685699999999997  1.0000
  C   C53       1.0  0.025290000000000003  0.11891  0.95073  1.0000
  C   C54       1.0  0.96305  0.40997  0.9667499999999998  1.0000
  C   C55       1.0  0.24606  0.15003  0.31595  1.0000
  C   C56       1.0  0.31102  0.03683  0.4221  1.0000
  C   C57       1.0  0.31086000000000014  0.0847  0.38312  1.0000
  C   C58       1.0  0.24625  0.09571  0.3565799999999999  1.0000
  C   C59       1.0  0.18273  0.009609999999999999  0.4072399999999999  1.0000
  C   C60       1.0  0.24629  0.9990300000000001  0.4343999999999999  1.0000
  C   C61       1.0  0.18116  0.05753  0.3684999999999999  1.0000
  C   C62       1.0  0.37971  0.02359  0.4511399999999999  1.0000
  C   C63       1.0  0.08997  0.9635999999999999  0.46648999999999996  1.0000
  C   C64       1.0  0.2538400000000001  0.34999  0.31597  1.0000
  C   C65       1.0  0.18804  0.46266  0.4222  1.0000
  C   C66       1.0  0.18867  0.41502  0.3831  1.0000
  C   C67       1.0  0.25338  0.40425  0.3566299999999999  1.0000
  C   C68       1.0  0.31636  0.49039  0.40751  1.0000
  C   C69       1.0  0.2526200000000001  0.5007599999999999  0.43464  1.0000
  C   C70       1.0  0.31829000000000013  0.44252  0.36872999999999995  1.0000
  C   C71       1.0  0.11873000000000003  0.47489  0.4509399999999999  1.0000
  C   C72       1.0  0.4096  0.53641  0.4665499999999999  1.0000
  C   C73       1.0  0.85008  0.75447  0.31592  1.0000
  C   C74       1.0  0.96231  0.6883  0.4221899999999999  1.0000
  C   C75       1.0  0.91456  0.68913  0.38318999999999986  1.0000
  C   C76       1.0  0.90407  0.75401  0.35672  1.0000
  C   C77       1.0  0.99039  0.81673  0.40751999999999994  1.0000
  C   C78       1.0  0.00062  0.75282  0.43456  1.0000
  C   C79       1.0  0.94241  0.81894  0.36885  1.0000
  C   C80       1.0  0.9748500000000001  0.61889  0.4508399999999999  1.0000
  C   C81       1.0  0.03664  0.90983  0.4665999999999999  1.0000
  C   C82       1.0  0.65002  0.7457899999999998  0.3159299999999999  1.0000
  C   C83       1.0  0.53692  0.81074  0.42209  1.0000
  C   C84       1.0  0.58484  0.81054  0.3831699999999999  1.0000
  C   C85       1.0  0.59587  0.74585  0.35662  1.0000
  C   C86       1.0  0.5097500000000003  0.68224  0.4071099999999999  1.0000
  C   C87       1.0  0.49909000000000003  0.74591  0.4342699999999999  1.0000
  C   C88       1.0  0.5578600000000002  0.68058  0.3684999999999999  1.0000
  C   C89       1.0  0.52365  0.87957  0.4510899999999999  1.0000
  C   C90       1.0  0.46354  0.58956  0.46633  1.0000
  C   C91       1.0  0.74614  0.85  0.81605  1.0000
  C   C92       1.0  0.8117200000000002  0.96257  0.9223599999999997  1.0000
  C   C93       1.0  0.8111300000000002  0.91486  0.8832999999999998  1.0000
  C   C94       1.0  0.74647  0.90427  0.8567499999999998  1.0000
  C   C95       1.0  0.68344  0.9906699999999999  0.9075499999999997  1.0000
  C   C96       1.0  0.7471600000000002  0.00079  0.9347499999999997  1.0000
  C   C97       1.0  0.68161  0.94277  0.8687799999999998  1.0000
  C   C98       1.0  0.88112  0.97491  0.95099  1.0000
  C   C99       1.0  0.59017  0.03691  0.9665299999999999  1.0000
  C   C100      1.0  0.75397  0.6500599999999999  0.8160299999999998  1.0000
  C   C101      1.0  0.68815  0.53743  0.9222699999999998  1.0000
  C   C102      1.0  0.6888100000000001  0.58514  0.88321  1.0000
  C   C103      1.0  0.75353  0.59579  0.8567199999999998  1.0000
  C   C104      1.0  0.8164700000000001  0.50954  0.9075799999999999  1.0000
  C   C105      1.0  0.75271  0.4993  0.9346999999999998  1.0000
  C   C106      1.0  0.8183900000000001  0.55735  0.8687799999999998  1.0000
  C   C107      1.0  0.61881  0.52507  0.9509399999999999  1.0000
  C   C108      1.0  0.90951  0.46357  0.96672  1.0000
  C   C109      1.0  0.6499400000000002  0.75424  0.18395  1.0000
  C   C110      1.0  0.5372700000000001  0.68839  0.07776  1.0000
  C   C111      1.0  0.58496  0.68904  0.11678999999999999  1.0000
  C   C112      1.0  0.59568  0.75386  0.14326  1.0000
  C   C113      1.0  0.5093  0.8168499999999999  0.09249  1.0000
  C   C114      1.0  0.49918000000000007  0.7530199999999999  0.06533  1.0000
  C   C115      1.0  0.55714  0.8187799999999998  0.13124999999999995  1.0000
  C   C116      1.0  0.52512  0.619  0.049059999999999986  1.0000
  C   C117      1.0  0.46323000000000003  0.90999  0.03331  1.0000
  C   C118      1.0  0.84955  0.7458  0.18388999999999994  1.0000
  C   C119      1.0  0.9622500000000002  0.81172  0.07778999999999997  1.0000
  C   C120      1.0  0.9144100000000001  0.81099  0.11675999999999997  1.0000
  C   C121      1.0  0.90371  0.74613  0.14318999999999996  1.0000
  C   C122      1.0  0.99021  0.68319  0.09258  1.0000
  C   C123      1.0  0.00046000000000000007  0.7470799999999999  0.06549  1.0000
  C   C124      1.0  0.94214  0.68117  0.13122  1.0000
  C   C125      1.0  0.9748100000000001  0.88114  0.04911  1.0000
  C   C126      1.0  0.03648000000000001  0.59017  0.03348999999999999  1.0000
  C   C127      1.0  0.75386  0.84997  0.68396  1.0000
  C   C128      1.0  0.6879200000000001  0.96257  0.5776699999999998  1.0000
  C   C129      1.0  0.68863  0.91484  0.6167399999999997  1.0000
  C   C130      1.0  0.7533500000000001  0.9042299999999999  0.6432599999999999  1.0000
  C   C131      1.0  0.81624  0.99056  0.5924399999999997  1.0000
  C   C132      1.0  0.75249  0.00077  0.5652899999999997  1.0000
  C   C133      1.0  0.8182100000000002  0.94267  0.6311899999999998  1.0000
  C   C134      1.0  0.61849  0.9748200000000001  0.54898  1.0000
  C   C135      1.0  0.90949  0.03648  0.5333599999999998  1.0000
  C   C136      1.0  0.7460900000000003  0.64997  0.68403  1.0000
  C   C137      1.0  0.81175  0.5372099999999999  0.57785  1.0000
  C   C138      1.0  0.81116  0.58484  0.6169499999999998  1.0000
  C   C139      1.0  0.7464400000000002  0.59559  0.6434199999999999  1.0000
  C   C140      1.0  0.68342  0.50938  0.59255  1.0000
  C   C141      1.0  0.7472  0.49906  0.56543  1.0000
  C   C142      1.0  0.68152  0.55728  0.63132  1.0000
  C   C143      1.0  0.88104  0.52516  0.54904  1.0000
  C   C144      1.0  0.59032  0.46346999999999994  0.53337  1.0000
  C   C145      1.0  0.91654  0.08305  0.60633  1.0000
  C   C146      1.0  0.58326  0.41676  0.60629  1.0000
  C   C147      1.0  0.41671000000000014  0.9170499999999999  0.10626999999999998  1.0000
  C   C148      1.0  0.08293  0.58301  0.10644999999999998  1.0000
  C   C149      1.0  0.5830500000000001  0.08313  0.89348  1.0000
  C   C150      1.0  0.9166600000000001  0.41700999999999994  0.8937499999999999  1.0000
  C   C151      1.0  0.08272  0.91697  0.3935399999999999  1.0000
  C   C152      1.0  0.4169500000000001  0.58227  0.39340999999999987  1.0000
  N   N1        1.0  0.96691  0.11853999999999999  0.5790099999999998  1.0000
  N   N2        1.0  0.53304  0.38116  0.57892  1.0000
  N   N3        1.0  0.38109  0.96732  0.07891  1.0000
  N   N4        1.0  0.11856000000000001  0.53275  0.07905999999999998  1.0000
  N   N5        1.0  0.5325000000000001  0.1186  0.9207099999999998  1.0000
  N   N6        1.0  0.96691  0.38145  0.9211199999999998  1.0000
  N   N7        1.0  0.11815  0.96749  0.42076999999999987  1.0000
  N   N8        1.0  0.38105  0.53245  0.42093  1.0000
  N   N9        1.0  0.03271  0.8812799999999997  0.42098  1.0000
  N   N10       1.0  0.46757  0.6176  0.4205899999999999  1.0000
  N   N11       1.0  0.61877  0.033  0.9209199999999997  1.0000
  N   N12       1.0  0.8811  0.46736999999999995  0.9210699999999998  1.0000
  N   N13       1.0  0.46709000000000006  0.88153  0.07896999999999997  1.0000
  N   N14       1.0  0.03257  0.61856  0.07914999999999998  1.0000
  N   N15       1.0  0.8809000000000001  0.03278  0.57898  1.0000
  N   N16       1.0  0.6187600000000002  0.46723000000000003  0.57903  1.0000
  O   O1        1.0  0.18147  0.30723  0.6927  1.0000
  O   O2        1.0  0.1624  0.18271  0.7025299999999998  1.0000
  O   O3        1.0  0.05514  0.44001  0.5644599999999999  1.0000
  O   O4        1.0  0.9849  0.37365  0.512  1.0000
  O   O5        1.0  0.31899000000000005  0.19261  0.6929299999999998  1.0000
  O   O6        1.0  0.3405  0.31618  0.70478  1.0000
  O   O7        1.0  0.44479  0.05964  0.56453  1.0000
  O   O8        1.0  0.51466  0.12625  0.51199  1.0000
  O   O9        1.0  0.19236  0.18156999999999998  0.19284  1.0000
  O   O10       1.0  0.31555  0.15952  0.20490999999999995  1.0000
  O   O11       1.0  0.05992000000000001  0.055249999999999994  0.06456999999999999  1.0000
  O   O12       1.0  0.12646  0.98512  0.01215  1.0000
  O   O13       1.0  0.30766000000000004  0.31844999999999996  0.19281999999999994  1.0000
  O   O14       1.0  0.18449  0.34049  0.20488999999999993  1.0000
  O   O15       1.0  0.44035000000000013  0.44801  0.06627999999999998  1.0000
  O   O16       1.0  0.37357000000000007  0.5147  0.01208  1.0000
  O   O17       1.0  0.3184000000000001  0.30779  0.8069999999999998  1.0000
  O   O18       1.0  0.33734  0.1838  0.7956999999999997  1.0000
  O   O19       1.0  0.44469  0.44017  0.9352999999999999  1.0000
  O   O20       1.0  0.5145  0.37356  0.9878199999999998  1.0000
  O   O21       1.0  0.17794  0.19308  0.8048499999999997  1.0000
  O   O22       1.0  0.15949  0.31782  0.7952899999999998  1.0000
  O   O23       1.0  0.055350000000000024  0.059960000000000006  0.9352599999999998  1.0000
  O   O24       1.0  0.9852400000000001  0.12656999999999996  0.9876199999999998  1.0000
  O   O25       1.0  0.30766000000000004  0.18148  0.3071299999999999  1.0000
  O   O26       1.0  0.18439  0.15966  0.2950499999999999  1.0000
  O   O27       1.0  0.43929  0.05211  0.4355499999999999  1.0000
  O   O28       1.0  0.3707  0.9845499999999999  0.48829  1.0000
  O   O29       1.0  0.1923  0.31848  0.30712  1.0000
  O   O30       1.0  0.31555  0.34044  0.2951  1.0000
  O   O31       1.0  0.05993  0.44458999999999993  0.4354699999999999  1.0000
  O   O32       1.0  0.12636000000000003  0.51492  0.48781999999999986  1.0000
  O   O33       1.0  0.81855  0.69279  0.3071  1.0000
  O   O34       1.0  0.84064  0.81622  0.29496  1.0000
  O   O35       1.0  0.9448400000000001  0.55993  0.4352999999999999  1.0000
  O   O36       1.0  0.014750000000000001  0.62661  0.48775  1.0000
  O   O37       1.0  0.68145  0.80747  0.3071299999999999  1.0000
  O   O38       1.0  0.6595900000000002  0.68405  0.29496  1.0000
  O   O39       1.0  0.55225  0.93916  0.43549  1.0000
  O   O40       1.0  0.48462000000000005  0.87065  0.48824  1.0000
  O   O41       1.0  0.8077100000000003  0.81853  0.8071599999999998  1.0000
  O   O42       1.0  0.6845  0.84042  0.7951  1.0000
  O   O43       1.0  0.93993  0.94476  0.9354099999999999  1.0000
  O   O44       1.0  0.8735500000000003  0.01496  0.9878699999999998  1.0000
  O   O45       1.0  0.6924300000000001  0.6816  0.80714  1.0000
  O   O46       1.0  0.81565  0.65955  0.79511  1.0000
  O   O47       1.0  0.55999  0.55526  0.93539  1.0000
  O   O48       1.0  0.6264  0.48503  0.9878099999999997  1.0000
  O   O49       1.0  0.68126  0.69252  0.19289999999999993  1.0000
  O   O50       1.0  0.65969  0.8160699999999999  0.20475999999999994  1.0000
  O   O51       1.0  0.5555  0.56024  0.06454  1.0000
  O   O52       1.0  0.4850900000000001  0.62655  0.012169999999999997  1.0000
  O   O53       1.0  0.8184700000000003  0.80759  0.19286999999999996  1.0000
  O   O54       1.0  0.8398  0.68401  0.20476999999999995  1.0000
  O   O55       1.0  0.94474  0.94012  0.06461  1.0000
  O   O56       1.0  0.014840000000000002  0.87343  0.012259999999999997  1.0000
  O   O57       1.0  0.69231  0.81847  0.6928799999999998  1.0000
  O   O58       1.0  0.81555  0.84044  0.7048499999999998  1.0000
  O   O59       1.0  0.5596900000000002  0.9447999999999999  0.5645099999999998  1.0000
  O   O60       1.0  0.62624  0.014690000000000002  0.51197  1.0000
  O   O61       1.0  0.80766  0.68147  0.69285  1.0000
  O   O62       1.0  0.6844100000000002  0.65963  0.70493  1.0000
  O   O63       1.0  0.9398000000000001  0.55558  0.56448  1.0000
  O   O64       1.0  0.8735  0.4851  0.5121699999999999  1.0000
