data_image0
_chemical_formula_structural       Ni4H136C164N16O16
_chemical_formula_sum              "Ni4 H136 C164 N16 O16"
_cell_length_a       10.06035
_cell_length_b       17.37463
_cell_length_c       23.84659
_cell_angle_alpha    90.26449999999998
_cell_angle_beta     89.98926
_cell_angle_gamma    89.99509

_symmetry_space_group_name_H-M    'P 1'
_symmetry_Int_Tables_number       1

loop_
  _symmetry_equiv_pos_as_xyz
  'x,y,z'

loop_
  _atom_site_type_symbol
  _atom_site_label
  _atom_site_symmetry_multiplicity
  _atom_site_fract_x
  _atom_site_fract_y
  _atom_site_fract_z
  _atom_site_occupancy
  Ni  Ni1       1.0  0.32991  0.25031999999999993  0.38105  1.0000
  Ni  Ni2       1.0  0.83034  0.24957  0.11886999999999998  1.0000
  Ni  Ni3       1.0  0.67009  0.7496799999999998  0.6189499999999999  1.0000
  Ni  Ni4       1.0  0.16966  0.75043  0.88113  1.0000
  H   H1        1.0  0.0221  0.22345  0.3793399999999999  1.0000
  H   H2        1.0  0.83985  0.21871  0.44998  1.0000
  H   H3        1.0  0.13695  0.26363  0.57723  1.0000
  H   H4        1.0  0.3074  0.26609  0.50049  1.0000
  H   H5        1.0  0.76226  0.14380999999999997  0.5336  1.0000
  H   H6        1.0  0.60121  0.14386  0.6118499999999999  1.0000
  H   H7        1.0  0.79143  0.34386  0.6828199999999999  1.0000
  H   H8        1.0  0.95566  0.34210000000000007  0.60626  1.0000
  H   H9        1.0  0.17018  0.80852  0.7539899999999999  1.0000
  H   H10       1.0  0.27613  0.91596  0.70156  1.0000
  H   H11       1.0  0.44616999999999996  0.9915599999999999  0.85873  1.0000
  H   H12       1.0  0.34088  0.8784099999999998  0.90385  1.0000
  H   H13       1.0  0.6241  0.01025  0.78274  1.0000
  H   H14       1.0  0.71983  0.13386  0.7495399999999998  1.0000
  H   H15       1.0  0.33997  0.1972  0.6809299999999998  1.0000
  H   H16       1.0  0.24404  0.07254  0.7127399999999998  1.0000
  H   H17       1.0  0.24128  0.5955499999999998  0.90959  1.0000
  H   H18       1.0  0.34834  0.47774  0.8743599999999999  1.0000
  H   H19       1.0  0.40261  0.59577  0.71568  1.0000
  H   H20       1.0  0.29278  0.70646  0.7579399999999998  1.0000
  H   H21       1.0  0.43061  0.3852  0.84307  1.0000
  H   H22       1.0  0.51454  0.2664999999999999  0.80175  1.0000
  H   H23       1.0  0.55883  0.3794299999999999  0.64253  1.0000
  H   H24       1.0  0.47749  0.50011  0.68343  1.0000
  H   H25       1.0  0.65471  0.38714  0.50405  1.0000
  H   H26       1.0  0.48736  0.3899199999999999  0.5256399999999999  1.0000
  H   H27       1.0  0.6045  0.48218  0.42835  1.0000
  H   H28       1.0  0.3192  0.47235  0.4720599999999999  1.0000
  H   H29       1.0  0.36985  0.5251599999999998  0.41292  1.0000
  H   H30       1.0  0.55448  0.9736499999999999  0.3991499999999999  1.0000
  H   H31       1.0  0.39512  0.9846199999999999  0.42896999999999996  1.0000
  H   H32       1.0  0.6489  0.06307999999999997  0.46961  1.0000
  H   H33       1.0  0.49449  0.13582999999999998  0.53438  1.0000
  H   H34       1.0  0.361  0.08078  0.50999  1.0000
  H   H35       1.0  0.52209  0.2768  0.12069  1.0000
  H   H36       1.0  0.33988  0.2813  0.05008999999999999  1.0000
  H   H37       1.0  0.637  0.2369  0.9227799999999999  1.0000
  H   H38       1.0  0.8074999999999999  0.23437  0.9994499999999998  1.0000
  H   H39       1.0  0.26194  0.3560799999999999  0.96648  1.0000
  H   H40       1.0  0.10115  0.35629  0.88817  1.0000
  H   H41       1.0  0.29117  0.15626  0.8171299999999998  1.0000
  H   H42       1.0  0.45528  0.15776  0.89372  1.0000
  H   H43       1.0  0.6695  0.69121  0.74613  1.0000
  H   H44       1.0  0.77598  0.58376  0.79857  1.0000
  H   H45       1.0  0.94572  0.50821  0.64128  1.0000
  H   H46       1.0  0.84001  0.6214  0.59623  1.0000
  H   H47       1.0  0.12416  0.48989  0.71725  1.0000
  H   H48       1.0  0.21995  0.36626999999999993  0.7503599999999998  1.0000
  H   H49       1.0  0.83999  0.3029099999999999  0.81899  1.0000
  H   H50       1.0  0.7441  0.42759  0.78723  1.0000
  H   H51       1.0  0.74184  0.9042499999999998  0.59052  1.0000
  H   H52       1.0  0.8488699999999999  0.022139999999999993  0.62574  1.0000
  H   H53       1.0  0.9028599999999999  0.90415  0.7844699999999999  1.0000
  H   H54       1.0  0.79319  0.79339  0.7421599999999999  1.0000
  H   H55       1.0  0.93051  0.11462  0.65704  1.0000
  H   H56       1.0  0.0142  0.23342  0.6982499999999999  1.0000
  H   H57       1.0  0.05911000000000001  0.12062999999999999  0.8574799999999998  1.0000
  H   H58       1.0  0.9775200000000001  0.99996  0.81673  1.0000
  H   H59       1.0  0.15391  0.11307999999999997  0.9961499999999998  1.0000
  H   H60       1.0  0.9867999999999999  0.10952  0.97455  1.0000
  H   H61       1.0  0.10439  0.016729999999999995  0.07152  1.0000
  H   H62       1.0  0.8188899999999999  0.02777  0.028059999999999998  1.0000
  H   H63       1.0  0.86937  0.9746399999999998  0.08702999999999997  1.0000
  H   H64       1.0  0.05482999999999999  0.52631  0.10079  1.0000
  H   H65       1.0  0.8952799999999999  0.51511  0.07116  1.0000
  H   H66       1.0  0.14915  0.43678999999999996  0.03048  1.0000
  H   H67       1.0  0.9948900000000002  0.3641399999999999  0.96558  1.0000
  H   H68       1.0  0.8613099999999999  0.41906  0.99007  1.0000
  H   H69       1.0  0.9779000000000001  0.77655  0.62066  1.0000
  H   H70       1.0  0.16015  0.78129  0.55001  1.0000
  H   H71       1.0  0.86305  0.73637  0.4227699999999999  1.0000
  H   H72       1.0  0.6926  0.73391  0.49950999999999995  1.0000
  H   H73       1.0  0.23773999999999998  0.85619  0.4663999999999999  1.0000
  H   H74       1.0  0.3987899999999999  0.85614  0.38815  1.0000
  H   H75       1.0  0.20857  0.65614  0.31717999999999996  1.0000
  H   H76       1.0  0.04434  0.6578899999999998  0.39374  1.0000
  H   H77       1.0  0.8298199999999999  0.19147999999999996  0.24600999999999998  1.0000
  H   H78       1.0  0.72387  0.08404  0.2984399999999999  1.0000
  H   H79       1.0  0.55383  0.00844  0.14127  1.0000
  H   H80       1.0  0.65912  0.12159  0.09615  1.0000
  H   H81       1.0  0.3759  0.9897499999999999  0.21726  1.0000
  H   H82       1.0  0.28017  0.86614  0.25046  1.0000
  H   H83       1.0  0.66003  0.8028  0.31907  1.0000
  H   H84       1.0  0.75596  0.92746  0.28726  1.0000
  H   H85       1.0  0.75872  0.4044499999999999  0.09040999999999998  1.0000
  H   H86       1.0  0.65166  0.52226  0.12563999999999997  1.0000
  H   H87       1.0  0.59739  0.4042299999999999  0.28432  1.0000
  H   H88       1.0  0.70722  0.29354  0.24205999999999997  1.0000
  H   H89       1.0  0.56939  0.6148  0.15691999999999998  1.0000
  H   H90       1.0  0.48546  0.7335  0.19825  1.0000
  H   H91       1.0  0.44116999999999995  0.62057  0.35747  1.0000
  H   H92       1.0  0.52251  0.49988999999999995  0.31656999999999996  1.0000
  H   H93       1.0  0.34529  0.61286  0.4959499999999999  1.0000
  H   H94       1.0  0.51264  0.61007  0.47436  1.0000
  H   H95       1.0  0.3955  0.51781  0.57165  1.0000
  H   H96       1.0  0.6808  0.52765  0.52794  1.0000
  H   H97       1.0  0.63015  0.47483999999999993  0.58708  1.0000
  H   H98       1.0  0.44552  0.026349999999999995  0.60085  1.0000
  H   H99       1.0  0.60488  0.015379999999999998  0.5710299999999999  1.0000
  H   H100      1.0  0.3511  0.9369099999999999  0.53039  1.0000
  H   H101      1.0  0.50551  0.86417  0.46561999999999987  1.0000
  H   H102      1.0  0.639  0.9192199999999999  0.49001  1.0000
  H   H103      1.0  0.47790999999999995  0.7232  0.8793099999999998  1.0000
  H   H104      1.0  0.66012  0.7187  0.94991  1.0000
  H   H105      1.0  0.363  0.7631  0.07722  1.0000
  H   H106      1.0  0.1925  0.76563  0.00055  1.0000
  H   H107      1.0  0.73806  0.6439199999999998  0.03352  1.0000
  H   H108      1.0  0.89885  0.6437  0.11183  1.0000
  H   H109      1.0  0.70883  0.8437399999999999  0.18287  1.0000
  H   H110      1.0  0.54472  0.84224  0.10626999999999998  1.0000
  H   H111      1.0  0.3305  0.30879  0.25387  1.0000
  H   H112      1.0  0.22402  0.41624  0.20143  1.0000
  H   H113      1.0  0.05427  0.49178999999999995  0.35871999999999993  1.0000
  H   H114      1.0  0.15999  0.37859  0.40377  1.0000
  H   H115      1.0  0.8758399999999998  0.5100999999999999  0.28274999999999995  1.0000
  H   H116      1.0  0.78005  0.63373  0.24963999999999995  1.0000
  H   H117      1.0  0.16001  0.69709  0.18101  1.0000
  H   H118      1.0  0.2559  0.57241  0.21276999999999993  1.0000
  H   H119      1.0  0.25816  0.09573999999999998  0.40948  1.0000
  H   H120      1.0  0.15113  0.97786  0.37426  1.0000
  H   H121      1.0  0.09714  0.09584999999999999  0.21552  1.0000
  H   H122      1.0  0.20681  0.20661  0.25784  1.0000
  H   H123      1.0  0.06949  0.88538  0.3429599999999999  1.0000
  H   H124      1.0  0.9857999999999999  0.76658  0.30175  1.0000
  H   H125      1.0  0.94089  0.87937  0.14252  1.0000
  H   H126      1.0  0.02248  3.9999999999999766e-05  0.18326999999999993  1.0000
  H   H127      1.0  0.8460899999999999  0.8869199999999998  0.00385  1.0000
  H   H128      1.0  0.0132  0.89048  0.025449999999999997  1.0000
  H   H129      1.0  0.8956099999999999  0.9832699999999999  0.92848  1.0000
  H   H130      1.0  0.18111  0.97223  0.9719399999999999  1.0000
  H   H131      1.0  0.13063  0.02536  0.9129699999999998  1.0000
  H   H132      1.0  0.94517  0.47368  0.8992099999999998  1.0000
  H   H133      1.0  0.10472  0.48489  0.9288399999999999  1.0000
  H   H134      1.0  0.8508499999999999  0.5632099999999998  0.96952  1.0000
  H   H135      1.0  0.00511  0.63586  0.03441999999999999  1.0000
  H   H136      1.0  0.13869  0.58094  0.009929999999999998  1.0000
  C   C1        1.0  0.04309  0.23134999999999997  0.42376  1.0000
  C   C2        1.0  0.9419800000000002  0.22858  0.4634399999999999  1.0000
  C   C3        1.0  0.97322  0.24162  0.52016  1.0000
  C   C4        1.0  0.10721  0.25509  0.5337599999999999  1.0000
  C   C5        1.0  0.20275  0.25589  0.4918999999999999  1.0000
  C   C6        1.0  0.87192  0.24247  0.5644599999999999  1.0000
  C   C7        1.0  0.76965  0.18748999999999996  0.56636  1.0000
  C   C8        1.0  0.67824  0.18752  0.61012  1.0000
  C   C9        1.0  0.68407  0.24435999999999997  0.65212  1.0000
  C   C10       1.0  0.78515  0.3002  0.6501899999999999  1.0000
  C   C11       1.0  0.87783  0.2986  0.60718  1.0000
  C   C12       1.0  0.23393  0.84953  0.7756999999999998  1.0000
  C   C13       1.0  0.2892  0.91122  0.7467799999999999  1.0000
  C   C14       1.0  0.36834  0.9641799999999999  0.7762499999999998  1.0000
  C   C15       1.0  0.38809  0.9513  0.83369  1.0000
  C   C16       1.0  0.32994  0.88823  0.85918  1.0000
  C   C17       1.0  0.42724  0.03351  0.7507299999999998  1.0000
  C   C18       1.0  0.5616  0.05134999999999999  0.7607  1.0000
  C   C19       1.0  0.61563  0.12048999999999999  0.74214  1.0000
  C   C20       1.0  0.53488  0.17337  0.7140099999999999  1.0000
  C   C21       1.0  0.40146  0.15568  0.70299  1.0000
  C   C22       1.0  0.34831  0.08565999999999997  0.72057  1.0000
  C   C23       1.0  0.27772  0.59232  0.8667599999999998  1.0000
  C   C24       1.0  0.33938  0.52668  0.8463999999999999  1.0000
  C   C25       1.0  0.38656  0.52371  0.7908199999999997  1.0000
  C   C26       1.0  0.36876  0.5911099999999999  0.759  1.0000
  C   C27       1.0  0.30517  0.6545  0.7826199999999999  1.0000
  C   C28       1.0  0.4464000000000001  0.45338  0.76703  1.0000
  C   C29       1.0  0.45942  0.3858399999999999  0.7991499999999998  1.0000
  C   C30       1.0  0.50699  0.3177  0.77602  1.0000
  C   C31       1.0  0.54353  0.31438  0.7192199999999999  1.0000
  C   C32       1.0  0.53205  0.3814099999999999  0.68668  1.0000
  C   C33       1.0  0.48551999999999995  0.44955  0.71018  1.0000
  C   C34       1.0  0.48445  0.38398  0.41024  1.0000
  C   C35       1.0  0.56727  0.4249199999999999  0.50733  1.0000
  C   C36       1.0  0.52237  0.45129  0.44871999999999995  1.0000
  C   C37       1.0  0.40207999999999994  0.50592  0.45464  1.0000
  C   C38       1.0  0.51558  0.12753  0.41767  1.0000
  C   C39       1.0  0.5021  0.9845399999999999  0.43889  1.0000
  C   C40       1.0  0.54073  0.06455  0.46204  1.0000
  C   C41       1.0  0.46854  0.07862  0.518  1.0000
  C   C42       1.0  0.54316  0.26877  0.07627999999999999  1.0000
  C   C43       1.0  0.44201  0.27142  0.03662  1.0000
  C   C44       1.0  0.47309999999999997  0.25836999999999993  0.9798799999999998  1.0000
  C   C45       1.0  0.60719  0.24515  0.9662699999999997  1.0000
  C   C46       1.0  0.7028  0.24435999999999997  0.00811  1.0000
  C   C47       1.0  0.37172  0.25746  0.93558  1.0000
  C   C48       1.0  0.26944  0.31246  0.9336799999999997  1.0000
  C   C49       1.0  0.17811  0.31256  0.8898799999999998  1.0000
  C   C50       1.0  0.18398  0.25576  0.8478599999999997  1.0000
  C   C51       1.0  0.28498  0.19988  0.8497999999999999  1.0000
  C   C52       1.0  0.37759  0.20136  0.89283  1.0000
  C   C53       1.0  0.73368  0.65034  0.7244699999999998  1.0000
  C   C54       1.0  0.78906  0.58866  0.7533599999999999  1.0000
  C   C55       1.0  0.86836  0.53583  0.72382  1.0000
  C   C56       1.0  0.88787  0.5485699999999999  0.66636  1.0000
  C   C57       1.0  0.82965  0.61167  0.64094  1.0000
  C   C58       1.0  0.92738  0.46658  0.74931  1.0000
  C   C59       1.0  0.06171000000000001  0.44875999999999994  0.7392999999999998  1.0000
  C   C60       1.0  0.11573000000000001  0.3796  0.7577899999999997  1.0000
  C   C61       1.0  0.03494  0.32671  0.7859099999999999  1.0000
  C   C62       1.0  0.9015200000000001  0.34441999999999995  0.79695  1.0000
  C   C63       1.0  0.8483799999999999  0.41443999999999986  0.77942  1.0000
  C   C64       1.0  0.77822  0.90759  0.63335  1.0000
  C   C65       1.0  0.8398  0.97323  0.6537199999999999  1.0000
  C   C66       1.0  0.88682  0.9761899999999999  0.7093099999999999  1.0000
  C   C67       1.0  0.86912  0.9087799999999998  0.74114  1.0000
  C   C68       1.0  0.80559  0.8453799999999998  0.7175099999999998  1.0000
  C   C69       1.0  0.9465  0.04654999999999999  0.7331  1.0000
  C   C70       1.0  0.95936  0.11405999999999997  0.7009399999999998  1.0000
  C   C71       1.0  0.00681  0.18224999999999994  0.7240199999999998  1.0000
  C   C72       1.0  0.04351  0.18566  0.7807999999999998  1.0000
  C   C73       1.0  0.03216  0.11863  0.8133599999999999  1.0000
  C   C74       1.0  0.98565  0.050460000000000005  0.78993  1.0000
  C   C75       1.0  0.98711  0.11598  0.08982  1.0000
  C   C76       1.0  0.06722  0.07482  0.9927499999999998  1.0000
  C   C77       1.0  0.0227  0.048239999999999984  0.05131999999999999  1.0000
  C   C78       1.0  0.90176  0.9941099999999999  0.045389999999999986  1.0000
  C   C79       1.0  0.015430000000000001  0.37247999999999987  0.08234  1.0000
  C   C80       1.0  0.0022  0.5154199999999999  0.06111  1.0000
  C   C81       1.0  0.04092  0.43538999999999994  0.03794999999999999  1.0000
  C   C82       1.0  0.96882  0.42133  0.9819899999999998  1.0000
  C   C83       1.0  0.95691  0.7686499999999998  0.5762399999999999  1.0000
  C   C84       1.0  0.05802  0.77142  0.53656  1.0000
  C   C85       1.0  0.026779999999999998  0.7583799999999999  0.4798399999999999  1.0000
  C   C86       1.0  0.89279  0.74491  0.46624  1.0000
  C   C87       1.0  0.79725  0.74411  0.5081  1.0000
  C   C88       1.0  0.12808  0.75753  0.4355299999999999  1.0000
  C   C89       1.0  0.23035  0.8125  0.43364  1.0000
  C   C90       1.0  0.32176  0.8124799999999998  0.38987  1.0000
  C   C91       1.0  0.31593  0.75564  0.3478799999999999  1.0000
  C   C92       1.0  0.21485000000000004  0.6998  0.34980999999999995  1.0000
  C   C93       1.0  0.12217000000000001  0.7013999999999998  0.39282  1.0000
  C   C94       1.0  0.76607  0.15047  0.2243  1.0000
  C   C95       1.0  0.7108  0.08877999999999997  0.25322  1.0000
  C   C96       1.0  0.63166  0.03582  0.22374999999999998  1.0000
  C   C97       1.0  0.61191  0.04869999999999999  0.16631  1.0000
  C   C98       1.0  0.67006  0.11176999999999997  0.14081999999999997  1.0000
  C   C99       1.0  0.57276  0.96649  0.24926999999999994  1.0000
  C   C100      1.0  0.4384  0.94865  0.2393  1.0000
  C   C101      1.0  0.38437  0.87951  0.25786  1.0000
  C   C102      1.0  0.46512000000000003  0.82663  0.28599  1.0000
  C   C103      1.0  0.59854  0.84432  0.29701  1.0000
  C   C104      1.0  0.65169  0.91434  0.27941999999999995  1.0000
  C   C105      1.0  0.72228  0.40768  0.13324  1.0000
  C   C106      1.0  0.66062  0.47332  0.1536  1.0000
  C   C107      1.0  0.61344  0.47629  0.20917  1.0000
  C   C108      1.0  0.63124  0.40888999999999986  0.241  1.0000
  C   C109      1.0  0.69483  0.3455  0.21738  1.0000
  C   C110      1.0  0.5536  0.54662  0.23296999999999998  1.0000
  C   C111      1.0  0.54058  0.61416  0.20083999999999994  1.0000
  C   C112      1.0  0.49301  0.6823  0.22397999999999996  1.0000
  C   C113      1.0  0.45646999999999993  0.68562  0.28078  1.0000
  C   C114      1.0  0.4679499999999999  0.6185899999999999  0.31331999999999993  1.0000
  C   C115      1.0  0.51448  0.55045  0.28982  1.0000
  C   C116      1.0  0.51555  0.61601  0.5897599999999998  1.0000
  C   C117      1.0  0.43273  0.5750799999999999  0.49267  1.0000
  C   C118      1.0  0.47763  0.5487099999999999  0.55128  1.0000
  C   C119      1.0  0.59792  0.49407999999999996  0.54536  1.0000
  C   C120      1.0  0.48442  0.87246  0.5823299999999999  1.0000
  C   C121      1.0  0.49789999999999995  0.01546  0.56111  1.0000
  C   C122      1.0  0.4592800000000001  0.93545  0.5379599999999999  1.0000
  C   C123      1.0  0.53146  0.92138  0.482  1.0000
  C   C124      1.0  0.45683999999999997  0.73123  0.92372  1.0000
  C   C125      1.0  0.55799  0.7285799999999998  0.9633799999999998  1.0000
  C   C126      1.0  0.5269  0.7416299999999998  0.020119999999999996  1.0000
  C   C127      1.0  0.39281  0.75485  0.03373  1.0000
  C   C128      1.0  0.2972  0.75564  0.99189  1.0000
  C   C129      1.0  0.62828  0.74254  0.06441999999999999  1.0000
  C   C130      1.0  0.73056  0.68754  0.06632  1.0000
  C   C131      1.0  0.82189  0.68744  0.11012  1.0000
  C   C132      1.0  0.81602  0.74424  0.15214  1.0000
  C   C133      1.0  0.71502  0.80012  0.1502  1.0000
  C   C134      1.0  0.62241  0.79864  0.10717  1.0000
  C   C135      1.0  0.26632  0.34964999999999996  0.27553  1.0000
  C   C136      1.0  0.21094  0.41134  0.24664  1.0000
  C   C137      1.0  0.13164  0.46416999999999997  0.27618  1.0000
  C   C138      1.0  0.11213  0.4514299999999999  0.33364  1.0000
  C   C139      1.0  0.17035  0.38833  0.35906  1.0000
  C   C140      1.0  0.07262  0.53342  0.25068999999999997  1.0000
  C   C141      1.0  0.9382899999999998  0.55124  0.2607  1.0000
  C   C142      1.0  0.8842699999999999  0.6204  0.24221  1.0000
  C   C143      1.0  0.96506  0.67328  0.21409  1.0000
  C   C144      1.0  0.09848  0.6555799999999999  0.20305  1.0000
  C   C145      1.0  0.15162  0.58556  0.22057  1.0000
  C   C146      1.0  0.22178000000000003  0.09241  0.36664999999999986  1.0000
  C   C147      1.0  0.1602  0.02676999999999999  0.34628  1.0000
  C   C148      1.0  0.11319  0.023809999999999998  0.29069  1.0000
  C   C149      1.0  0.13088  0.09121999999999997  0.25886  1.0000
  C   C150      1.0  0.19441  0.15461  0.28248  1.0000
  C   C151      1.0  0.0535  0.95345  0.2669  1.0000
  C   C152      1.0  0.04064  0.88594  0.29905999999999994  1.0000
  C   C153      1.0  0.99319  0.81774  0.27597999999999995  1.0000
  C   C154      1.0  0.9564900000000001  0.81434  0.21919999999999998  1.0000
  C   C155      1.0  0.96784  0.88136  0.18663999999999997  1.0000
  C   C156      1.0  0.014350000000000003  0.94954  0.21006999999999995  1.0000
  C   C157      1.0  0.01289  0.88402  0.9101699999999999  1.0000
  C   C158      1.0  0.9327799999999999  0.92518  0.0072499999999999995  1.0000
  C   C159      1.0  0.9773  0.9517599999999999  0.94868  1.0000
  C   C160      1.0  0.09824  0.005889999999999999  0.9546099999999997  1.0000
  C   C161      1.0  0.9845699999999998  0.6275199999999999  0.91766  1.0000
  C   C162      1.0  0.9978000000000001  0.48458  0.93889  1.0000
  C   C163      1.0  0.9590799999999999  0.56461  0.9620499999999997  1.0000
  C   C164      1.0  0.03118  0.57867  0.01801  1.0000
  N   N1        1.0  0.17112  0.24500999999999998  0.43739999999999996  1.0000
  N   N2        1.0  0.2541  0.83695  0.83095  1.0000
  N   N3        1.0  0.25777  0.6561999999999998  0.83565  1.0000
  N   N4        1.0  0.58991  0.24499  0.6957199999999998  1.0000
  N   N5        1.0  0.67124  0.25508  0.06263  1.0000
  N   N6        1.0  0.75411  0.663  0.66925  1.0000
  N   N7        1.0  0.75823  0.8437399999999999  0.66449  1.0000
  N   N8        1.0  0.08995  0.25509  0.8042099999999998  1.0000
  N   N9        1.0  0.82888  0.75499  0.5626  1.0000
  N   N10       1.0  0.7459  0.16304999999999994  0.16904999999999998  1.0000
  N   N11       1.0  0.74222  0.3438  0.16434999999999997  1.0000
  N   N12       1.0  0.41009  0.7549999999999998  0.30428  1.0000
  N   N13       1.0  0.32876  0.74492  0.93737  1.0000
  N   N14       1.0  0.24588999999999997  0.33699  0.33074  1.0000
  N   N15       1.0  0.24176999999999998  0.15626  0.3355099999999999  1.0000
  N   N16       1.0  0.9100500000000001  0.74491  0.19579  1.0000
  O   O1        1.0  0.40072  0.33627999999999997  0.43190999999999996  1.0000
  O   O2        1.0  0.52883  0.37903  0.36113  1.0000
  O   O3        1.0  0.42222  0.17556  0.43195  1.0000
  O   O4        1.0  0.57945  0.12801  0.37280999999999986  1.0000
  O   O5        1.0  0.9032  0.16377  0.06834  1.0000
  O   O6        1.0  0.03345  0.12118  0.13859999999999997  1.0000
  O   O7        1.0  0.92226  0.32438  0.06797999999999998  1.0000
  O   O8        1.0  0.07882  0.3723299999999999  0.12730999999999998  1.0000
  O   O9        1.0  0.59928  0.66371  0.56809  1.0000
  O   O10       1.0  0.47117  0.6209699999999998  0.6388699999999999  1.0000
  O   O11       1.0  0.57778  0.8244399999999997  0.56805  1.0000
  O   O12       1.0  0.42055  0.8719799999999998  0.62719  1.0000
  O   O13       1.0  0.0968  0.83623  0.9316599999999999  1.0000
  O   O14       1.0  0.96655  0.87882  0.8614  1.0000
  O   O15       1.0  0.07774  0.67562  0.9320199999999998  1.0000
  O   O16       1.0  0.92118  0.62767  0.8726899999999999  1.0000
