data_image0
_chemical_formula_structural       Cd8H152C152N20O32
_chemical_formula_sum              "Cd8 H152 C152 N20 O32"
_cell_length_a       15.93336
_cell_length_b       15.9294
_cell_length_c       20.154479999999996
_cell_angle_alpha    84.5378
_cell_angle_beta     84.55341
_cell_angle_gamma    70.73729

_symmetry_space_group_name_H-M    'P 1'
_symmetry_Int_Tables_number       1

loop_
  _symmetry_equiv_pos_as_xyz
  'x,y,z'

loop_
  _atom_site_type_symbol
  _atom_site_label
  _atom_site_symmetry_multiplicity
  _atom_site_fract_x
  _atom_site_fract_y
  _atom_site_fract_z
  _atom_site_occupancy
  Cd  Cd1       1.0  0.32604  0.27185  0.19177  1.0000
  Cd  Cd2       1.0  0.17424000000000003  0.18060999999999997  0.27585  1.0000
  Cd  Cd3       1.0  0.7280799999999997  0.67471  0.30851  1.0000
  Cd  Cd4       1.0  0.8198299999999998  0.825  0.22426999999999997  1.0000
  Cd  Cd5       1.0  0.67396  0.72815  0.80823  1.0000
  Cd  Cd6       1.0  0.8257599999999999  0.81939  0.72415  1.0000
  Cd  Cd7       1.0  0.27192  0.32529  0.69149  1.0000
  Cd  Cd8       1.0  0.18017000000000002  0.17499999999999996  0.77573  1.0000
  H   H1        1.0  0.15597  0.03366000000000001  0.10484  1.0000
  H   H2        1.0  0.24465  0.93233  0.10598  1.0000
  H   H3        1.0  0.22678999999999996  0.92091  0.99128  1.0000
  H   H4        1.0  0.13907999999999998  0.021309999999999992  0.9917500000000001  1.0000
  H   H5        1.0  0.33578  0.9913799999999999  0.95544  1.0000
  H   H6        1.0  0.33735  0.18481999999999998  0.94284  1.0000
  H   H7        1.0  0.36223  0.18247000000000002  0.027999999999999997  1.0000
  H   H8        1.0  0.4155199999999998  0.08893000000000001  0.9796  1.0000
  H   H9        1.0  0.13066  0.1663  0.03502  1.0000
  H   H10       1.0  0.19357999999999997  0.23598  0.04797  1.0000
  H   H11       1.0  0.1742099999999999  0.22098  0.9653  1.0000
  H   H12       1.0  0.38521999999999995  0.9414  0.13256  1.0000
  H   H13       1.0  0.40005  0.93819  0.04467  1.0000
  H   H14       1.0  0.4311099999999999  0.01726  0.08526  1.0000
  H   H15       1.0  0.3725199999999999  0.01758  0.36613  1.0000
  H   H16       1.0  0.38522  0.06611  0.43786  1.0000
  H   H17       1.0  0.5104  0.9367900000000002  0.46675  1.0000
  H   H18       1.0  0.47492999999999996  0.88437  0.40747  1.0000
  H   H19       1.0  0.6264899999999998  0.9576100000000002  0.39473  1.0000
  H   H20       1.0  0.5902599999999998  0.11619  0.24916999999999997  1.0000
  H   H21       1.0  0.6796499999999998  0.007900000000000003  0.25309  1.0000
  H   H22       1.0  0.55297  0.94201  0.21561  1.0000
  H   H23       1.0  0.45137  0.18891999999999998  0.41957  1.0000
  H   H24       1.0  0.5511  0.09791000000000001  0.42704  1.0000
  H   H25       1.0  0.54214  0.17938  0.35854  1.0000
  H   H26       1.0  0.23291999999999993  0.4571600000000001  0.41236  1.0000
  H   H27       1.0  0.2556  0.33279  0.33979  1.0000
  H   H28       1.0  0.33985  0.46967  0.17634  1.0000
  H   H29       1.0  0.31945  0.60147  0.24160000000000004  1.0000
  H   H30       1.0  0.18515999999999982  0.9047000000000002  0.46171  1.0000
  H   H31       1.0  0.16034  0.06106999999999999  0.41716000000000003  1.0000
  H   H32       1.0  0.23516  0.98687  0.22378  1.0000
  H   H33       1.0  0.2660399999999998  0.8253900000000002  0.25912  1.0000
  H   H34       1.0  0.16582999999999998  0.64856  0.56278  1.0000
  H   H35       1.0  0.18388000000000002  0.53281  0.65743  1.0000
  H   H36       1.0  0.3871200000000001  0.34901  0.55305  1.0000
  H   H37       1.0  0.3820299999999998  0.45803  0.45422999999999997  1.0000
  H   H38       1.0  0.24296999999999983  0.74533  0.48904999999999993  1.0000
  H   H39       1.0  0.9650799999999996  0.8449100000000003  0.3958  1.0000
  H   H40       1.0  0.06669  0.7568  0.39433  1.0000
  H   H41       1.0  0.07793999999999983  0.7746300000000005  0.50923  1.0000
  H   H42       1.0  0.9766199999999997  0.8611  0.50889  1.0000
  H   H43       1.0  0.008649999999999975  0.6639200000000001  0.54425  1.0000
  H   H44       1.0  0.8137  0.66309  0.55639  1.0000
  H   H45       1.0  0.8173400000000001  0.63796  0.47122  1.0000
  H   H46       1.0  0.90987  0.58431  0.5205  1.0000
  H   H47       1.0  0.8332799999999997  0.86936  0.4652700000000001  1.0000
  H   H48       1.0  0.7635799999999999  0.8063700000000003  0.45252  1.0000
  H   H49       1.0  0.7793  0.82533  0.53514  1.0000
  H   H50       1.0  0.05909999999999999  0.61451  0.36819  1.0000
  H   H51       1.0  0.061599999999999995  0.60042  0.45619  1.0000
  H   H52       1.0  0.98275  0.56914  0.41538  1.0000
  H   H53       1.0  0.9831199999999999  0.62708  0.13125  1.0000
  H   H54       1.0  0.9350899999999996  0.61252  0.05994  1.0000
  H   H55       1.0  0.06471  0.48705  0.0328  1.0000
  H   H56       1.0  0.11654999999999999  0.52337  0.09209  1.0000
  H   H57       1.0  0.04229999999999995  0.3722900000000001  0.10570000000000002  1.0000
  H   H58       1.0  0.88254  0.41177  0.25041  1.0000
  H   H59       1.0  0.98994  0.32124  0.247  1.0000
  H   H60       1.0  0.057449999999999994  0.44736  0.28429  1.0000
  H   H61       1.0  0.8117599999999998  0.54782  0.07909  1.0000
  H   H62       1.0  0.9022300000000001  0.44731  0.07328  1.0000
  H   H63       1.0  0.81992  0.45868  0.1413  1.0000
  H   H64       1.0  0.54276  0.7670300000000002  0.08756  1.0000
  H   H65       1.0  0.66728  0.74453  0.15989  1.0000
  H   H66       1.0  0.5303700000000001  0.66127  0.32379  1.0000
  H   H67       1.0  0.39860000000000007  0.68128  0.25867  1.0000
  H   H68       1.0  0.09548999999999998  0.81409  0.03835  1.0000
  H   H69       1.0  0.9393399999999998  0.83816  0.08293  1.0000
  H   H70       1.0  0.013879999999999995  0.76372  0.27636  1.0000
  H   H71       1.0  0.17524  0.73345  0.24085999999999996  1.0000
  H   H72       1.0  0.35143999999999975  0.83306  0.93738  1.0000
  H   H73       1.0  0.46724  0.81472  0.84268  1.0000
  H   H74       1.0  0.6514499999999999  0.61273  0.94779  1.0000
  H   H75       1.0  0.5421599999999999  0.61769  0.04648  1.0000
  H   H76       1.0  0.25493999999999994  0.7560000000000002  0.011  1.0000
  H   H77       1.0  0.8440299999999997  0.9663400000000002  0.89516  1.0000
  H   H78       1.0  0.7553499999999997  0.06767000000000002  0.89402  1.0000
  H   H79       1.0  0.77321  0.07909  0.00872  1.0000
  H   H80       1.0  0.8609099999999998  0.9786900000000001  0.00825  1.0000
  H   H81       1.0  0.66422  0.00862  0.04456  1.0000
  H   H82       1.0  0.6626499999999997  0.81518  0.05716  1.0000
  H   H83       1.0  0.6377699999999997  0.8175300000000004  0.972  1.0000
  H   H84       1.0  0.5844799999999998  0.91107  0.02041  1.0000
  H   H85       1.0  0.8693400000000003  0.8337  0.9649799999999998  1.0000
  H   H86       1.0  0.8064199999999999  0.76402  0.9520299999999999  1.0000
  H   H87       1.0  0.8257899999999996  0.77902  0.0347  1.0000
  H   H88       1.0  0.61478  0.058589999999999996  0.86744  1.0000
  H   H89       1.0  0.5999499999999998  0.06180999999999999  0.9553300000000001  1.0000
  H   H90       1.0  0.5688899999999998  0.98274  0.9147400000000001  1.0000
  H   H91       1.0  0.62747  0.98241  0.63388  1.0000
  H   H92       1.0  0.6147799999999999  0.93389  0.56214  1.0000
  H   H93       1.0  0.4896  0.06321  0.53325  1.0000
  H   H94       1.0  0.5250699999999998  0.11562999999999998  0.59253  1.0000
  H   H95       1.0  0.3735  0.04239  0.60527  1.0000
  H   H96       1.0  0.4097399999999998  0.88381  0.75083  1.0000
  H   H97       1.0  0.32035  0.9921  0.74691  1.0000
  H   H98       1.0  0.44703  0.05798999999999999  0.78439  1.0000
  H   H99       1.0  0.54863  0.8110800000000001  0.58044  1.0000
  H   H100      1.0  0.4489  0.90209  0.57296  1.0000
  H   H101      1.0  0.45786  0.82062  0.64146  1.0000
  H   H102      1.0  0.7670799999999999  0.54284  0.58764  1.0000
  H   H103      1.0  0.74439  0.66721  0.66021  1.0000
  H   H104      1.0  0.6601499999999999  0.5303300000000001  0.8236599999999998  1.0000
  H   H105      1.0  0.68055  0.39853  0.7584  1.0000
  H   H106      1.0  0.81484  0.09530000000000001  0.53829  1.0000
  H   H107      1.0  0.8396599999999999  0.93893  0.58284  1.0000
  H   H108      1.0  0.7648299999999998  0.013130000000000003  0.77622  1.0000
  H   H109      1.0  0.73396  0.17461  0.74088  1.0000
  H   H110      1.0  0.83416  0.35144  0.43722  1.0000
  H   H111      1.0  0.81612  0.4671900000000001  0.34257  1.0000
  H   H112      1.0  0.61288  0.65099  0.44695000000000007  1.0000
  H   H113      1.0  0.6179699999999997  0.5419700000000002  0.54577  1.0000
  H   H114      1.0  0.7570200000000001  0.25467  0.51096  1.0000
  H   H115      1.0  0.034920000000000014  0.15508999999999998  0.6042  1.0000
  H   H116      1.0  0.9333  0.24320000000000003  0.60567  1.0000
  H   H117      1.0  0.92206  0.22536999999999996  0.49077  1.0000
  H   H118      1.0  0.023380000000000005  0.1389  0.49110999999999994  1.0000
  H   H119      1.0  0.9913499999999996  0.33608  0.45575  1.0000
  H   H120      1.0  0.18629000000000004  0.33691  0.44361000000000006  1.0000
  H   H121      1.0  0.18266  0.36204  0.52878  1.0000
  H   H122      1.0  0.09013  0.41569000000000006  0.4795  1.0000
  H   H123      1.0  0.16671  0.13064000000000006  0.53473  1.0000
  H   H124      1.0  0.23640999999999987  0.19363000000000005  0.54749  1.0000
  H   H125      1.0  0.22068999999999997  0.17467000000000002  0.46486  1.0000
  H   H126      1.0  0.9408999999999995  0.3854900000000001  0.63181  1.0000
  H   H127      1.0  0.9383899999999998  0.39958000000000005  0.54382  1.0000
  H   H128      1.0  0.017240000000000002  0.43086  0.58462  1.0000
  H   H129      1.0  0.016879999999999912  0.37292000000000014  0.8687500000000001  1.0000
  H   H130      1.0  0.06491000000000001  0.38748  0.94007  1.0000
  H   H131      1.0  0.9352899999999997  0.51295  0.9672000000000001  1.0000
  H   H132      1.0  0.8834499999999997  0.47662999999999994  0.90791  1.0000
  H   H133      1.0  0.9577  0.6277100000000002  0.8942999999999999  1.0000
  H   H134      1.0  0.11745999999999997  0.58823  0.74959  1.0000
  H   H135      1.0  0.010049999999999976  0.67876  0.75301  1.0000
  H   H136      1.0  0.94255  0.55264  0.71572  1.0000
  H   H137      1.0  0.18824000000000002  0.45218  0.9209100000000001  1.0000
  H   H138      1.0  0.09776999999999997  0.55269  0.9267200000000001  1.0000
  H   H139      1.0  0.18007999999999996  0.54132  0.8587  1.0000
  H   H140      1.0  0.45724  0.23296999999999998  0.91244  1.0000
  H   H141      1.0  0.3327199999999999  0.2554700000000001  0.84011  1.0000
  H   H142      1.0  0.4696299999999998  0.33873000000000003  0.67621  1.0000
  H   H143      1.0  0.6014  0.31872  0.74133  1.0000
  H   H144      1.0  0.9045  0.18590999999999996  0.9616500000000001  1.0000
  H   H145      1.0  0.06065999999999999  0.16184  0.91708  1.0000
  H   H146      1.0  0.9861199999999999  0.23628000000000002  0.72364  1.0000
  H   H147      1.0  0.82476  0.26655  0.75915  1.0000
  H   H148      1.0  0.64856  0.16694  0.06262  1.0000
  H   H149      1.0  0.53275  0.18528  0.15732  1.0000
  H   H150      1.0  0.3485499999999998  0.38727000000000006  0.05221  1.0000
  H   H151      1.0  0.45783999999999997  0.3823100000000001  0.9535199999999999  1.0000
  H   H152      1.0  0.7450599999999997  0.24400000000000008  0.989  1.0000
  C   C1        1.0  0.2752799999999999  0.10769  0.01095  1.0000
  C   C2        1.0  0.2863999999999999  0.04985000000000001  0.07998  1.0000
  C   C3        1.0  0.21958000000000003  0.99791  0.07897  1.0000
  C   C4        1.0  0.20854  0.99016  0.00439  1.0000
  C   C5        1.0  0.26805  0.03891  0.96374  1.0000
  C   C6        1.0  0.35285000000000005  0.14303999999999997  0.9893  1.0000
  C   C7        1.0  0.18781  0.18718  0.015090000000000001  1.0000
  C   C8        1.0  0.23858999999999994  0.07298999999999999  0.89342  1.0000
  C   C9        1.0  0.26730000000000004  0.11278  0.13724  1.0000
  C   C10       1.0  0.38157  0.98318  0.08557  1.0000
  C   C11       1.0  0.5460199999999997  0.015089999999999996  0.31274  1.0000
  C   C12       1.0  0.46860999999999997  0.08748  0.34932  1.0000
  C   C13       1.0  0.42186999999999986  0.03017  0.39464  1.0000
  C   C14       1.0  0.49509  0.94218  0.41433000000000003  1.0000
  C   C15       1.0  0.57871  0.93951  0.36744  1.0000
  C   C16       1.0  0.6079999999999998  0.04378  0.25789  1.0000
  C   C17       1.0  0.5460199999999996  0.99946  0.24282000000000004  1.0000
  C   C18       1.0  0.40691999999999995  0.15245  0.29992  1.0000
  C   C19       1.0  0.63088  0.84752  0.34438  1.0000
  C   C20       1.0  0.50592  0.14173  0.39098  1.0000
  C   C21       1.0  0.2686599999999998  0.61573  0.37188  1.0000
  C   C22       1.0  0.26301  0.62576  0.44093000000000004  1.0000
  C   C23       1.0  0.24422999999999995  0.7568900000000002  0.38223  1.0000
  C   C24       1.0  0.27909  0.53874  0.33395  1.0000
  C   C25       1.0  0.25911  0.4624  0.36094  1.0000
  C   C26       1.0  0.27143999999999996  0.39253  0.32063  1.0000
  C   C27       1.0  0.31778999999999996  0.46936000000000005  0.22916000000000003  1.0000
  C   C28       1.0  0.3072499999999998  0.54213  0.26566  1.0000
  C   C29       1.0  0.22900000000000004  0.85081  0.36379  1.0000
  C   C30       1.0  0.19909999999999997  0.91867  0.40864  1.0000
  C   C31       1.0  0.18451  0.006739999999999996  0.38407  1.0000
  C   C32       1.0  0.22668999999999992  0.9648200000000002  0.27594  1.0000
  C   C33       1.0  0.24315  0.87555  0.29582  1.0000
  C   C34       1.0  0.27226  0.56288  0.49926  1.0000
  C   C35       1.0  0.2174199999999999  0.58399  0.55842  1.0000
  C   C36       1.0  0.22658999999999999  0.51967  0.61151  1.0000
  C   C37       1.0  0.34068999999999977  0.41685  0.55296  1.0000
  C   C38       1.0  0.33651  0.47727  0.49801000000000006  1.0000
  C   C39       1.0  0.89203  0.72457  0.48908  1.0000
  C   C40       1.0  0.9500899999999995  0.7136  0.42022000000000004  1.0000
  C   C41       1.0  0.0011600000000000338  0.78118  0.42141000000000006  1.0000
  C   C42       1.0  0.00883000000000002  0.79188  0.49605000000000005  1.0000
  C   C43       1.0  0.9608199999999996  0.73154  0.53638  1.0000
  C   C44       1.0  0.8562399999999999  0.64721  0.51034  1.0000
  C   C45       1.0  0.81261  0.81209  0.48519  1.0000
  C   C46       1.0  0.9264800000000001  0.76012  0.60679  1.0000
  C   C47       1.0  0.8881500000000002  0.73158  0.36253  1.0000
  C   C48       1.0  0.017050000000000006  0.61852  0.41505000000000003  1.0000
  C   C49       1.0  0.9846099999999999  0.45433  0.18693  1.0000
  C   C50       1.0  0.9127699999999999  0.53156  0.14965  1.0000
  C   C51       1.0  0.9707  0.57691  0.10359000000000002  1.0000
  C   C52       1.0  0.058820000000000004  0.50312  0.08506  1.0000
  C   C53       1.0  0.060530000000000014  0.42027  0.1327  1.0000
  C   C54       1.0  0.95504  0.3931000000000001  0.24191  1.0000
  C   C55       1.0  8.999999999999446e-05  0.45442  0.25681  1.0000
  C   C56       1.0  0.8481300000000002  0.59516  0.19825  1.0000
  C   C57       1.0  0.1521199999999999  0.3676000000000001  0.15652  1.0000
  C   C58       1.0  0.8583199999999999  0.49377  0.10852  1.0000
  C   C59       1.0  0.38432  0.73129  0.12821  1.0000
  C   C60       1.0  0.37435999999999997  0.73637  0.05923  1.0000
  C   C61       1.0  0.24327999999999997  0.7553900000000001  0.11779000000000002  1.0000
  C   C62       1.0  0.46127  0.72114  0.16614  1.0000
  C   C63       1.0  0.5375699999999998  0.7410400000000001  0.13902  1.0000
  C   C64       1.0  0.60752  0.72887  0.17923  1.0000
  C   C65       1.0  0.53071  0.68299  0.27091  1.0000
  C   C66       1.0  0.45792000000000005  0.69335  0.23448  1.0000
  C   C67       1.0  0.14946999999999994  0.7703500000000002  0.13626  1.0000
  C   C68       1.0  0.08163  0.79998  0.09142  1.0000
  C   C69       1.0  0.9936599999999999  0.81422  0.11603  1.0000
  C   C70       1.0  0.03575000000000004  0.7722899999999999  0.22418000000000002  1.0000
  C   C71       1.0  0.12494999999999996  0.75612  0.20424  1.0000
  C   C72       1.0  0.4373  0.72696  0.00101  1.0000
  C   C73       1.0  0.41607999999999995  0.78159  0.9417899999999999  1.0000
  C   C74       1.0  0.4804099999999998  0.7723500000000002  0.88877  1.0000
  C   C75       1.0  0.5834899999999997  0.65885  0.94767  1.0000
  C   C76       1.0  0.52298  0.66294  0.00254  1.0000
  C   C77       1.0  0.7247200000000001  0.89231  0.98905  1.0000
  C   C78       1.0  0.7136  0.95015  0.9200200000000001  1.0000
  C   C79       1.0  0.78042  0.0020900000000000077  0.92104  1.0000
  C   C80       1.0  0.79146  0.009839999999999991  0.9956100000000001  1.0000
  C   C81       1.0  0.73195  0.96109  0.03626  1.0000
  C   C82       1.0  0.6471499999999998  0.8569600000000003  0.0107  1.0000
  C   C83       1.0  0.8121900000000001  0.8128200000000002  0.98491  1.0000
  C   C84       1.0  0.7614  0.92701  0.10658  1.0000
  C   C85       1.0  0.73269  0.88722  0.8627599999999999  1.0000
  C   C86       1.0  0.6184299999999998  0.016820000000000005  0.91443  1.0000
  C   C87       1.0  0.4539799999999998  0.98491  0.68726  1.0000
  C   C88       1.0  0.53139  0.91252  0.65068  1.0000
  C   C89       1.0  0.57813  0.96983  0.60536  1.0000
  C   C90       1.0  0.50491  0.057819999999999996  0.58567  1.0000
  C   C91       1.0  0.42129000000000005  0.060489999999999995  0.63257  1.0000
  C   C92       1.0  0.3919899999999999  0.9562200000000001  0.74212  1.0000
  C   C93       1.0  0.4539799999999998  0.0005399999999999991  0.75718  1.0000
  C   C94       1.0  0.59308  0.84755  0.70008  1.0000
  C   C95       1.0  0.36912  0.15248  0.65562  1.0000
  C   C96       1.0  0.49407999999999996  0.85827  0.60902  1.0000
  C   C97       1.0  0.7313399999999998  0.38427  0.62812  1.0000
  C   C98       1.0  0.73699  0.37424  0.55907  1.0000
  C   C99       1.0  0.7557699999999996  0.24311000000000002  0.61777  1.0000
  C   C100      1.0  0.7209100000000002  0.46126  0.66605  1.0000
  C   C101      1.0  0.74089  0.5376  0.63906  1.0000
  C   C102      1.0  0.7285599999999995  0.60747  0.67937  1.0000
  C   C103      1.0  0.6822100000000001  0.5306399999999999  0.77085  1.0000
  C   C104      1.0  0.69274  0.45787  0.73434  1.0000
  C   C105      1.0  0.771  0.14919  0.63621  1.0000
  C   C106      1.0  0.8009  0.08133  0.59137  1.0000
  C   C107      1.0  0.8154899999999995  0.9932600000000003  0.61593  1.0000
  C   C108      1.0  0.7733099999999998  0.03518000000000003  0.72406  1.0000
  C   C109      1.0  0.7568499999999998  0.12445  0.70418  1.0000
  C   C110      1.0  0.72773  0.4371200000000001  0.50075  1.0000
  C   C111      1.0  0.7825799999999997  0.41601  0.44158  1.0000
  C   C112      1.0  0.77341  0.48033  0.38849  1.0000
  C   C113      1.0  0.65931  0.58315  0.44704  1.0000
  C   C114      1.0  0.6634899999999998  0.5227300000000003  0.50199  1.0000
  C   C115      1.0  0.10797  0.27543  0.51092  1.0000
  C   C116      1.0  0.049909999999999954  0.2864000000000001  0.57978  1.0000
  C   C117      1.0  0.9988399999999998  0.21882000000000001  0.57859  1.0000
  C   C118      1.0  0.9911700000000001  0.20812  0.50395  1.0000
  C   C119      1.0  0.039180000000000006  0.26846  0.46362  1.0000
  C   C120      1.0  0.14376  0.35279  0.48966  1.0000
  C   C121      1.0  0.18739  0.18791  0.51481  1.0000
  C   C122      1.0  0.07351999999999995  0.23988000000000004  0.39321  1.0000
  C   C123      1.0  0.11184999999999996  0.26842  0.63747  1.0000
  C   C124      1.0  0.98295  0.38148  0.58495  1.0000
  C   C125      1.0  0.015390000000000001  0.54567  0.8130800000000001  1.0000
  C   C126      1.0  0.08722999999999993  0.46843999999999997  0.85035  1.0000
  C   C127      1.0  0.029299999999999982  0.4230900000000001  0.89641  1.0000
  C   C128      1.0  0.9411799999999999  0.49688  0.9149400000000001  1.0000
  C   C129      1.0  0.93947  0.57973  0.8673000000000001  1.0000
  C   C130      1.0  0.04495999999999999  0.6069  0.75809  1.0000
  C   C131      1.0  0.9999099999999999  0.54558  0.74319  1.0000
  C   C132      1.0  0.15186999999999992  0.40484  0.8017600000000001  1.0000
  C   C133      1.0  0.8478799999999999  0.6324  0.84349  1.0000
  C   C134      1.0  0.14167999999999992  0.5062300000000002  0.8914799999999999  1.0000
  C   C135      1.0  0.6156799999999998  0.26871  0.87179  1.0000
  C   C136      1.0  0.62564  0.26363  0.9407700000000001  1.0000
  C   C137      1.0  0.75672  0.24461  0.88221  1.0000
  C   C138      1.0  0.53873  0.27886  0.8338599999999999  1.0000
  C   C139      1.0  0.4624299999999998  0.25896  0.86098  1.0000
  C   C140      1.0  0.39248  0.27113  0.8207799999999998  1.0000
  C   C141      1.0  0.46928999999999993  0.31701  0.72909  1.0000
  C   C142      1.0  0.5420799999999998  0.30665  0.76552  1.0000
  C   C143      1.0  0.8505299999999999  0.22964999999999997  0.8637400000000001  1.0000
  C   C144      1.0  0.9183699999999996  0.20002  0.90858  1.0000
  C   C145      1.0  0.006340000000000004  0.18578  0.8839699999999999  1.0000
  C   C146      1.0  0.9642499999999999  0.22771  0.77582  1.0000
  C   C147      1.0  0.87505  0.24388  0.79576  1.0000
  C   C148      1.0  0.5627  0.27304  0.99899  1.0000
  C   C149      1.0  0.58392  0.21841  0.05821  1.0000
  C   C150      1.0  0.5195799999999998  0.22765  0.11123  1.0000
  C   C151      1.0  0.4165099999999998  0.34115  0.05233  1.0000
  C   C152      1.0  0.47702000000000006  0.33706  0.9974600000000001  1.0000
  N   N1        1.0  0.25771999999999995  0.69673  0.33739  1.0000
  N   N2        1.0  0.24617000000000006  0.71624  0.44573999999999997  1.0000
  N   N3        1.0  0.30155  0.39514000000000005  0.25596  1.0000
  N   N4        1.0  0.19782999999999995  0.030089999999999995  0.3189  1.0000
  N   N5        1.0  0.28662999999999994  0.4371200000000001  0.60901  1.0000
  N   N6        1.0  0.30331  0.74238  0.16264  1.0000
  N   N7        1.0  0.28398  0.75301  0.05431  1.0000
  N   N8        1.0  0.6049699999999998  0.69899  0.24396  1.0000
  N   N9        1.0  0.9704600000000001  0.80091  0.18124  1.0000
  N   N10       1.0  0.56307  0.71263  0.8915  1.0000
  N   N11       1.0  0.74228  0.3032700000000001  0.66261  1.0000
  N   N12       1.0  0.7538199999999998  0.28376  0.55426  1.0000
  N   N13       1.0  0.69844  0.60486  0.74404  1.0000
  N   N14       1.0  0.8021699999999999  0.96991  0.68111  1.0000
  N   N15       1.0  0.7133699999999997  0.56288  0.39099  1.0000
  N   N16       1.0  0.69668  0.25762  0.8373600000000001  1.0000
  N   N17       1.0  0.7160199999999999  0.24699000000000002  0.94569  1.0000
  N   N18       1.0  0.39502999999999977  0.30101  0.75604  1.0000
  N   N19       1.0  0.029539999999999993  0.19909000000000002  0.81876  1.0000
  N   N20       1.0  0.43693  0.28737  0.1085  1.0000
  O   O1        1.0  0.19524999999999998  0.12417999999999998  0.17482  1.0000
  O   O2        1.0  0.32579  0.14934  0.14205  1.0000
  O   O3        1.0  0.19585999999999998  0.03421999999999999  0.8649900000000001  1.0000
  O   O4        1.0  0.25924  0.14073000000000005  0.8655999999999999  1.0000
  O   O5        1.0  0.32515  0.15828  0.30276  1.0000
  O   O6        1.0  0.4413299999999998  0.20038  0.25902  1.0000
  O   O7        1.0  0.6801599999999998  0.84091  0.28968  1.0000
  O   O8        1.0  0.6248  0.77959  0.38062  1.0000
  O   O9        1.0  0.87527  0.80443  0.32579  1.0000
  O   O10       1.0  0.8541499999999999  0.6713700000000002  0.35626  1.0000
  O   O11       1.0  0.9661999999999998  0.8005300000000002  0.63673  1.0000
  O   O12       1.0  0.85703  0.74161  0.63308  1.0000
  O   O13       1.0  0.84208  0.67698  0.19243  1.0000
  O   O14       1.0  0.8011700000000002  0.56205  0.24112000000000003  1.0000
  O   O15       1.0  0.15816  0.32009  0.21208  1.0000
  O   O16       1.0  0.22036999999999995  0.3717800000000001  0.11993000000000001  1.0000
  O   O17       1.0  0.8047499999999996  0.87582  0.82518  1.0000
  O   O18       1.0  0.6742099999999998  0.8506600000000002  0.85795  1.0000
  O   O19       1.0  0.8041400000000001  0.96578  0.13501  1.0000
  O   O20       1.0  0.7407599999999999  0.85927  0.1344  1.0000
  O   O21       1.0  0.6748499999999998  0.84172  0.69724  1.0000
  O   O22       1.0  0.55867  0.79962  0.74098  1.0000
  O   O23       1.0  0.3198399999999999  0.15909  0.71032  1.0000
  O   O24       1.0  0.3752  0.22041  0.61938  1.0000
  O   O25       1.0  0.12472999999999998  0.19557  0.67421  1.0000
  O   O26       1.0  0.14585000000000004  0.32863  0.64374  1.0000
  O   O27       1.0  0.0338  0.19947000000000004  0.36327  1.0000
  O   O28       1.0  0.14297  0.25839  0.36692  1.0000
  O   O29       1.0  0.15792  0.32302  0.80758  1.0000
  O   O30       1.0  0.19882999999999998  0.43795  0.75888  1.0000
  O   O31       1.0  0.8418299999999999  0.67991  0.78792  1.0000
  O   O32       1.0  0.7796299999999999  0.6282199999999999  0.8800700000000001  1.0000
