data_image0
_chemical_formula_structural       Er8H72C144S24N24O48
_chemical_formula_sum              "Er8 H72 C144 S24 N24 O48"
_cell_length_a       12.74375
_cell_length_b       12.73346
_cell_length_c       34.21191
_cell_angle_alpha    82.411
_cell_angle_beta     82.27694999999999
_cell_angle_gamma    64.49403

_symmetry_space_group_name_H-M    'P 1'
_symmetry_Int_Tables_number       1

loop_
  _symmetry_equiv_pos_as_xyz
  'x,y,z'

loop_
  _atom_site_type_symbol
  _atom_site_label
  _atom_site_symmetry_multiplicity
  _atom_site_fract_x
  _atom_site_fract_y
  _atom_site_fract_z
  _atom_site_occupancy
  Er  Er1       1.0  0.29372000000000004  0.13018  0.93883  1.0000
  Er  Er2       1.0  0.36217  0.14004999999999998  0.8205  1.0000
  Er  Er3       1.0  0.12422000000000002  0.29617000000000004  0.43736999999999987  1.0000
  Er  Er4       1.0  0.14502999999999996  0.35701000000000005  0.32132  1.0000
  Er  Er5       1.0  0.8714400000000001  0.70643  0.56262  1.0000
  Er  Er6       1.0  0.8576399999999998  0.6416500000000003  0.67849  1.0000
  Er  Er7       1.0  0.7038199999999999  0.87542  0.06146999999999999  1.0000
  Er  Er8       1.0  0.64297  0.85723  0.17869  1.0000
  H   H1        1.0  0.9031  0.38581  0.92177  1.0000
  H   H2        1.0  0.8850499999999997  0.5603300000000002  0.78445  1.0000
  H   H3        1.0  0.07302000000000004  0.40146  0.8047999999999997  1.0000
  H   H4        1.0  0.42978000000000005  0.6006200000000003  0.9389799999999998  1.0000
  H   H5        1.0  0.35994000000000004  0.44308  0.94167  1.0000
  H   H6        1.0  0.5022700000000002  0.39052  0.82069  1.0000
  H   H7        1.0  0.1665799999999999  0.8858400000000005  0.9371099999999998  1.0000
  H   H8        1.0  0.09046999999999993  0.7325200000000002  0.9374699999999998  1.0000
  H   H9        1.0  0.3014100000000001  0.8224499999999999  0.81578  1.0000
  H   H10       1.0  0.9299899999999998  0.7406000000000003  0.8445  1.0000
  H   H11       1.0  0.7355300000000001  0.90288  0.83081  1.0000
  H   H12       1.0  0.6268100000000004  0.8707  0.95476  1.0000
  H   H13       1.0  0.9429699999999998  0.19439000000000006  0.2141  1.0000
  H   H14       1.0  0.014969999999999959  0.99868  0.18678999999999998  1.0000
  H   H15       1.0  0.27478  0.07313000000000003  0.26219  1.0000
  H   H16       1.0  0.0014199999999999666  0.8893800000000001  0.09315  1.0000
  H   H17       1.0  0.039130000000000054  0.99351  0.029059999999999992  1.0000
  H   H18       1.0  0.38787999999999995  0.89162  0.06011999999999999  1.0000
  H   H19       1.0  0.3882999999999999  0.8993100000000002  0.42236  1.0000
  H   H20       1.0  0.56041  0.88456  0.2846  1.0000
  H   H21       1.0  0.40164999999999995  0.07185000000000004  0.3057499999999999  1.0000
  H   H22       1.0  0.6011  0.42978  0.43914  1.0000
  H   H23       1.0  0.44273  0.36063000000000006  0.4418999999999999  1.0000
  H   H24       1.0  0.39089  0.5023900000000001  0.32107  1.0000
  H   H25       1.0  0.88591  0.16762  0.43545  1.0000
  H   H26       1.0  0.7323200000000001  0.09148000000000005  0.4368399999999999  1.0000
  H   H27       1.0  0.8207100000000002  0.30158  0.31458  1.0000
  H   H28       1.0  0.73951  0.9318000000000002  0.3441099999999999  1.0000
  H   H29       1.0  0.90165  0.73758  0.32943  1.0000
  H   H30       1.0  0.8726  0.62638  0.45331  1.0000
  H   H31       1.0  0.1942600000000001  0.9424  0.71411  1.0000
  H   H32       1.0  0.9988  0.014980000000000054  0.6867299999999997  1.0000
  H   H33       1.0  0.07391999999999994  0.2748800000000001  0.76216  1.0000
  H   H34       1.0  0.8898700000000003  0.0021399999999999887  0.59281  1.0000
  H   H35       1.0  0.9934499999999998  0.040130000000000006  0.52875  1.0000
  H   H36       1.0  0.8903099999999998  0.3895900000000001  0.56035  1.0000
  H   H37       1.0  0.61207  0.10036000000000006  0.5780799999999998  1.0000
  H   H38       1.0  0.43863000000000013  0.11590999999999999  0.71561  1.0000
  H   H39       1.0  0.5977700000000001  0.9283000000000002  0.6948199999999998  1.0000
  H   H40       1.0  0.3987999999999999  0.57012  0.56104  1.0000
  H   H41       1.0  0.5572299999999999  0.6391600000000001  0.5582799999999998  1.0000
  H   H42       1.0  0.60918  0.4974800000000001  0.6790699999999998  1.0000
  H   H43       1.0  0.11368999999999996  0.8328300000000002  0.56425  1.0000
  H   H44       1.0  0.2676299999999999  0.9085800000000002  0.56299  1.0000
  H   H45       1.0  0.17949000000000004  0.6985400000000002  0.68528  1.0000
  H   H46       1.0  0.25985  0.06869  0.65562  1.0000
  H   H47       1.0  0.09799  0.26329000000000014  0.6700999999999998  1.0000
  H   H48       1.0  0.12739000000000003  0.37416  0.54639  1.0000
  H   H49       1.0  0.80581  0.05730000000000001  0.2858  1.0000
  H   H50       1.0  0.001129999999999998  0.98501  0.31337  1.0000
  H   H51       1.0  0.9269700000000002  0.7248000000000002  0.23776999999999998  1.0000
  H   H52       1.0  0.11017999999999996  0.9980700000000001  0.4071099999999999  1.0000
  H   H53       1.0  0.006199999999999981  0.9611000000000001  0.47126  1.0000
  H   H54       1.0  0.10823999999999999  0.61142  0.44016  1.0000
  H   H55       1.0  0.10184000000000001  0.61119  0.07708  1.0000
  H   H56       1.0  0.11356999999999996  0.4412000000000001  0.21491  1.0000
  H   H57       1.0  0.92717  0.59948  0.19371  1.0000
  H   H58       1.0  0.57085  0.3990000000000001  0.06095  1.0000
  H   H59       1.0  0.63889  0.55833  0.05783  1.0000
  H   H60       1.0  0.49819999999999987  0.61037  0.17893  1.0000
  H   H61       1.0  0.83373  0.11604  0.06326  1.0000
  H   H62       1.0  0.91014  0.26896  0.06262  1.0000
  H   H63       1.0  0.69893  0.18001000000000003  0.18456  1.0000
  H   H64       1.0  0.06820999999999994  0.26033000000000006  0.1557  1.0000
  H   H65       1.0  0.26313000000000003  0.09791000000000002  0.1698  1.0000
  H   H66       1.0  0.37328000000000006  0.12824  0.04614  1.0000
  H   H67       1.0  0.057339999999999856  0.8058000000000002  0.78592  1.0000
  H   H68       1.0  0.98487  0.0014399999999999819  0.81311  1.0000
  H   H69       1.0  0.7253100000000002  0.92632  0.7378399999999998  1.0000
  H   H70       1.0  0.9985499999999999  0.11062999999999999  0.90663  1.0000
  H   H71       1.0  0.9593499999999999  0.007990000000000018  0.9708  1.0000
  H   H72       1.0  0.6110200000000001  0.11031000000000005  0.9389799999999998  1.0000
  C   C1        1.0  0.11077999999999998  0.28442000000000006  0.87837  1.0000
  C   C2        1.0  0.0015900000000000456  0.37839000000000006  0.8648799999999998  1.0000
  C   C3        1.0  0.90069  0.42201999999999995  0.89105  1.0000
  C   C4        1.0  0.7953599999999998  0.5536800000000002  0.84303  1.0000
  C   C5        1.0  0.89152  0.5182800000000002  0.8143899999999997  1.0000
  C   C6        1.0  0.99572  0.4295800000000003  0.82576  1.0000
  C   C7        1.0  0.50389  0.5753300000000001  0.87798  1.0000
  C   C8        1.0  0.44461999999999996  0.5520300000000001  0.9134499999999998  1.0000
  C   C9        1.0  0.4058899999999999  0.46498  0.91493  1.0000
  C   C10       1.0  0.42588999999999994  0.405  0.88112  1.0000
  C   C11       1.0  0.48551999999999995  0.43575000000000014  0.8472999999999998  1.0000
  C   C12       1.0  0.38439000000000006  0.3133700000000001  0.8803799999999998  1.0000
  C   C13       1.0  0.28194999999999987  0.95748  0.87445  1.0000
  C   C14       1.0  0.24055  0.8649600000000001  0.87629  1.0000
  C   C15       1.0  0.18043999999999996  0.8392100000000002  0.9109999999999998  1.0000
  C   C16       1.0  0.13910999999999996  0.7544100000000002  0.91155  1.0000
  C   C17       1.0  0.16201  0.6965500000000001  0.8771  1.0000
  C   C18       1.0  0.25660000000000005  0.8032300000000001  0.8432599999999998  1.0000
  C   C19       1.0  0.8749  0.71845  0.9067  1.0000
  C   C20       1.0  0.8606099999999999  0.7710100000000001  0.86802  1.0000
  C   C21       1.0  0.7533500000000001  0.86104  0.86047  1.0000
  C   C22       1.0  0.6660499999999997  0.89809  0.89169  1.0000
  C   C23       1.0  0.6910300000000001  0.8417000000000002  0.92961  1.0000
  C   C24       1.0  0.5494  0.9906100000000004  0.8841499999999998  1.0000
  C   C25       1.0  0.06928000000000001  0.27074  0.25218  1.0000
  C   C26       1.0  0.10582  0.15099000000000007  0.23905  1.0000
  C   C27       1.0  0.030709999999999987  0.12721000000000002  0.21857  1.0000
  C   C28       1.0  0.06977  0.019150000000000004  0.20346  1.0000
  C   C29       1.0  0.18316000000000004  0.93638  0.21031  1.0000
  C   C30       1.0  0.21556999999999996  0.05987000000000005  0.24536999999999998  1.0000
  C   C31       1.0  0.17510999999999996  0.8428700000000001  0.11091  1.0000
  C   C32       1.0  0.08586999999999993  0.8920200000000001  0.08496  1.0000
  C   C33       1.0  0.10691999999999995  0.9493100000000002  0.0494  1.0000
  C   C34       1.0  0.2158400000000001  0.9534600000000001  0.04057  1.0000
  C   C35       1.0  0.3012599999999999  0.89361  0.06716  1.0000
  C   C36       1.0  0.23819000000000004  0.024530000000000003  0.005729999999999998  1.0000
  C   C37       1.0  0.28578  0.10758000000000005  0.38018999999999986  1.0000
  C   C38       1.0  0.3792400000000001  0.9993199999999999  0.36585  1.0000
  C   C39       1.0  0.4237099999999999  0.89799  0.39159  1.0000
  C   C40       1.0  0.55474  0.7937  0.34298  1.0000
  C   C41       1.0  0.5186499999999999  0.8905400000000002  0.3146799999999999  1.0000
  C   C42       1.0  0.4298800000000001  0.99444  0.32659999999999995  1.0000
  C   C43       1.0  0.57558  0.5038500000000001  0.37806  1.0000
  C   C44       1.0  0.5521500000000003  0.44482  0.41361  1.0000
  C   C45       1.0  0.46471999999999997  0.4064000000000001  0.41514999999999996  1.0000
  C   C46       1.0  0.40483  0.42590000000000006  0.38147  1.0000
  C   C47       1.0  0.43567  0.4855600000000001  0.34767  1.0000
  C   C48       1.0  0.31324  0.38438000000000005  0.38097  1.0000
  C   C49       1.0  0.95675  0.28142  0.37312  1.0000
  C   C50       1.0  0.8639800000000001  0.24058000000000002  0.37493  1.0000
  C   C51       1.0  0.83829  0.18089  0.40972  1.0000
  C   C52       1.0  0.75334  0.13974000000000006  0.4107  1.0000
  C   C53       1.0  0.69482  0.16259000000000007  0.3764899999999999  1.0000
  C   C54       1.0  0.80161  0.25705  0.3421799999999999  1.0000
  C   C55       1.0  0.7186699999999999  0.8751000000000002  0.4061799999999999  1.0000
  C   C56       1.0  0.7705  0.8618300000000001  0.3673399999999999  1.0000
  C   C57       1.0  0.86045  0.75487  0.35923999999999995  1.0000
  C   C58       1.0  0.8982300000000004  0.6668  0.3901  1.0000
  C   C59       1.0  0.8429900000000001  0.69091  0.4283  1.0000
  C   C60       1.0  0.99055  0.55062  0.38189  1.0000
  C   C61       1.0  0.27135000000000004  0.06680000000000007  0.7519299999999998  1.0000
  C   C62       1.0  0.15148999999999999  0.10512000000000002  0.73901  1.0000
  C   C63       1.0  0.12718  0.030360000000000026  0.71854  1.0000
  C   C64       1.0  0.01926000000000003  0.06989000000000002  0.7034399999999998  1.0000
  C   C65       1.0  0.93691  0.18358  0.71038  1.0000
  C   C66       1.0  0.060789999999999955  0.21529000000000004  0.74543  1.0000
  C   C67       1.0  0.84294  0.17584000000000008  0.6108899999999998  1.0000
  C   C68       1.0  0.8925699999999999  0.08662000000000003  0.58482  1.0000
  C   C69       1.0  0.9497199999999999  0.10791000000000006  0.5492199999999998  1.0000
  C   C70       1.0  0.95362  0.21715000000000007  0.54043  1.0000
  C   C71       1.0  0.8933899999999999  0.3024300000000001  0.56722  1.0000
  C   C72       1.0  0.024079999999999956  0.23961000000000007  0.50524  1.0000
  C   C73       1.0  0.7140999999999997  0.89249  0.62037  1.0000
  C   C74       1.0  0.6206899999999997  0.0005499999999999901  0.63469  1.0000
  C   C75       1.0  0.57643  0.10183000000000003  0.6088599999999998  1.0000
  C   C76       1.0  0.44499999999999995  0.20628000000000002  0.65731  1.0000
  C   C77       1.0  0.48095999999999994  0.10960000000000003  0.68565  1.0000
  C   C78       1.0  0.5698299999999998  0.005560000000000008  0.67391  1.0000
  C   C79       1.0  0.42432  0.49605  0.62201  1.0000
  C   C80       1.0  0.44764000000000015  0.5550999999999999  0.5865  1.0000
  C   C81       1.0  0.53499  0.59347  0.58497  1.0000
  C   C82       1.0  0.59501  0.5739400000000001  0.6186299999999998  1.0000
  C   C83       1.0  0.56428  0.51429  0.65245  1.0000
  C   C84       1.0  0.68664  0.6155600000000002  0.6189799999999999  1.0000
  C   C85       1.0  0.043919999999999945  0.7180800000000002  0.62679  1.0000
  C   C86       1.0  0.13612000000000007  0.7596  0.6247899999999997  1.0000
  C   C87       1.0  0.16147  0.81941  0.58997  1.0000
  C   C88       1.0  0.24658000000000002  0.8602300000000002  0.5891  1.0000
  C   C89       1.0  0.30484999999999995  0.83739  0.62336  1.0000
  C   C90       1.0  0.19831000000000004  0.7431900000000001  0.65764  1.0000
  C   C91       1.0  0.28141  0.12503  0.5935  1.0000
  C   C92       1.0  0.22928999999999997  0.13849  0.63231  1.0000
  C   C93       1.0  0.13945000000000002  0.24565  0.64032  1.0000
  C   C94       1.0  0.10183000000000002  0.3336400000000001  0.6093999999999998  1.0000
  C   C95       1.0  0.15732000000000004  0.30919  0.57126  1.0000
  C   C96       1.0  0.00950999999999984  0.45002000000000025  0.61763  1.0000
  C   C97       1.0  0.73012  0.93162  0.24776  1.0000
  C   C98       1.0  0.8494899999999999  0.8945100000000002  0.26077  1.0000
  C   C99       1.0  0.8732  0.96949  0.28133  1.0000
  C   C100      1.0  0.9809499999999999  0.93008  0.29658  1.0000
  C   C101      1.0  0.06347999999999987  0.8163500000000002  0.28972  1.0000
  C   C102      1.0  0.94023  0.7844000000000001  0.2544599999999999  1.0000
  C   C103      1.0  0.15661000000000005  0.82418  0.3892899999999999  1.0000
  C   C104      1.0  0.10739000000000001  0.91364  0.4152899999999999  1.0000
  C   C105      1.0  0.04995999999999997  0.8929  0.45093  1.0000
  C   C106      1.0  0.04527  0.78401  0.45982  1.0000
  C   C107      1.0  0.10561  0.6983600000000001  0.43314999999999987  1.0000
  C   C108      1.0  0.9747699999999997  0.7618900000000002  0.49511  1.0000
  C   C109      1.0  0.89161  0.7155900000000002  0.11934  1.0000
  C   C110      1.0  0.9999800000000001  0.62204  0.13362999999999994  1.0000
  C   C111      1.0  0.10190000000000002  0.57682  0.10795  1.0000
  C   C112      1.0  0.20567999999999997  0.44609  0.15659  1.0000
  C   C113      1.0  0.10839999999999998  0.48256  0.18481  1.0000
  C   C114      1.0  0.004749999999999998  0.57141  0.17286  1.0000
  C   C115      1.0  0.4965799999999999  0.42519000000000007  0.12192  1.0000
  C   C116      1.0  0.55558  0.44843  0.08635  1.0000
  C   C117      1.0  0.5935099999999999  0.5362400000000002  0.08467  1.0000
  C   C118      1.0  0.5739300000000003  0.5965  0.11834999999999997  1.0000
  C   C119      1.0  0.51481  0.56545  0.15228  1.0000
  C   C120      1.0  0.6156199999999998  0.6881300000000002  0.11872  1.0000
  C   C121      1.0  0.7188500000000001  0.04464  0.12551  1.0000
  C   C122      1.0  0.76001  0.1372  0.12399  1.0000
  C   C123      1.0  0.82009  0.16296000000000002  0.08929  1.0000
  C   C124      1.0  0.8612599999999999  0.24784000000000006  0.08866  1.0000
  C   C125      1.0  0.83776  0.3062  0.12307  1.0000
  C   C126      1.0  0.7436  0.19907999999999998  0.157  1.0000
  C   C127      1.0  0.12465999999999997  0.28185000000000004  0.09362  1.0000
  C   C128      1.0  0.13837999999999998  0.22957000000000002  0.13237  1.0000
  C   C129      1.0  0.24575000000000005  0.1397  0.14011999999999994  1.0000
  C   C130      1.0  0.33371  0.10281  0.10913  1.0000
  C   C131      1.0  0.30876  0.15808  0.0711  1.0000
  C   C132      1.0  0.45079  0.01141  0.11664  1.0000
  C   C133      1.0  0.9315899999999999  0.7288699999999999  0.74783  1.0000
  C   C134      1.0  0.89445  0.8484100000000002  0.76104  1.0000
  C   C135      1.0  0.9693000000000002  0.8725300000000001  0.7814899999999998  1.0000
  C   C136      1.0  0.9299499999999999  0.9807400000000002  0.7965299999999997  1.0000
  C   C137      1.0  0.81657  0.06344000000000002  0.78961  1.0000
  C   C138      1.0  0.7845899999999999  0.9393200000000003  0.75469  1.0000
  C   C139      1.0  0.82496  0.15780000000000005  0.8886299999999999  1.0000
  C   C140      1.0  0.9139399999999998  0.10854999999999998  0.91463  1.0000
  C   C141      1.0  0.8922399999999999  0.05207000000000009  0.9502299999999999  1.0000
  C   C142      1.0  0.78313  0.04831000000000001  0.95893  1.0000
  C   C143      1.0  0.6979599999999999  0.10782000000000005  0.9321999999999998  1.0000
  C   C144      1.0  0.7605599999999997  0.9780300000000002  0.9940200000000001  1.0000
  S   S1        1.0  0.6623700000000001  0.66726  0.82737  1.0000
  S   S2        1.0  0.5518000000000001  0.6886000000000001  0.8771299999999997  1.0000
  S   S3        1.0  0.1192899999999999  0.5826200000000001  0.87257  1.0000
  S   S4        1.0  0.0037699999999999405  0.5955100000000002  0.92113  1.0000
  S   S5        1.0  0.14174999999999996  0.78217  0.15892  1.0000
  S   S6        1.0  0.25452  0.7943000000000001  0.19303999999999993  1.0000
  S   S7        1.0  0.66832  0.66068  0.32703999999999994  1.0000
  S   S8        1.0  0.68952  0.5508600000000001  0.37694  1.0000
  S   S9        1.0  0.5808  0.11944000000000002  0.37265  1.0000
  S   S10       1.0  0.5964400000000002  0.0034600000000000264  0.42126999999999987  1.0000
  S   S11       1.0  0.7826600000000001  0.1420200000000001  0.6589299999999998  1.0000
  S   S12       1.0  0.79472  0.2548  0.6933199999999998  1.0000
  S   S13       1.0  0.33138  0.33927  0.67307  1.0000
  S   S14       1.0  0.31043999999999994  0.4490200000000001  0.62315  1.0000
  S   S15       1.0  0.41838  0.8811200000000002  0.6270699999999999  1.0000
  S   S16       1.0  0.40386000000000005  0.99691  0.57844  1.0000
  S   S17       1.0  0.21736999999999992  0.8576200000000002  0.34126  1.0000
  S   S18       1.0  0.20534  0.74487  0.30686  1.0000
  S   S19       1.0  0.33823  0.3330600000000001  0.17271  1.0000
  S   S20       1.0  0.44976000000000027  0.31094  0.12312  1.0000
  S   S21       1.0  0.8806700000000001  0.42012  0.1273  1.0000
  S   S22       1.0  0.9967800000000001  0.40514  0.07876999999999998  1.0000
  S   S23       1.0  0.8588100000000001  0.21800000000000014  0.8406099999999997  1.0000
  S   S24       1.0  0.7457400000000002  0.20578999999999997  0.80666  1.0000
  N   N1        1.0  0.79919  0.50686  0.88051  1.0000
  N   N2        1.0  0.5251500000000001  0.51807  0.8457199999999998  1.0000
  N   N3        1.0  0.7935799999999996  0.7528500000000002  0.93736  1.0000
  N   N4        1.0  0.21867  0.7199700000000001  0.84354  1.0000
  N   N5        1.0  0.25439999999999996  0.9545  0.23154  1.0000
  N   N6        1.0  0.28168999999999994  0.8402700000000002  0.10191999999999997  1.0000
  N   N7        1.0  0.5083900000000002  0.7970000000000002  0.3805399999999999  1.0000
  N   N8        1.0  0.51803  0.52516  0.34591  1.0000
  N   N9        1.0  0.7540900000000001  0.79315  0.43652  1.0000
  N   N10       1.0  0.71824  0.21898  0.34289  1.0000
  N   N11       1.0  0.9553600000000002  0.25459  0.7317  1.0000
  N   N12       1.0  0.83999  0.28259  0.60199  1.0000
  N   N13       1.0  0.49162000000000017  0.20288000000000006  0.61979  1.0000
  N   N14       1.0  0.48190000000000005  0.47470999999999997  0.65413  1.0000
  N   N15       1.0  0.24628  0.20687  0.5631  1.0000
  N   N16       1.0  0.2819000000000002  0.7809  0.65704  1.0000
  N   N17       1.0  0.04532999999999989  0.7452100000000002  0.26835  1.0000
  N   N18       1.0  0.1591600000000001  0.71759  0.3983099999999999  1.0000
  N   N19       1.0  0.20273  0.49198000000000003  0.11902  1.0000
  N   N20       1.0  0.47529  0.48296000000000006  0.15407  1.0000
  N   N21       1.0  0.20628  0.24643  0.0631  1.0000
  N   N22       1.0  0.7810200000000002  0.28281000000000006  0.15663  1.0000
  N   N23       1.0  0.74549  0.04486  0.76842  1.0000
  N   N24       1.0  0.7182100000000002  0.16079000000000004  0.8974499999999997  1.0000
  O   O1        1.0  0.19103000000000003  0.23058000000000012  0.8516099999999998  1.0000
  O   O2        1.0  0.12148999999999997  0.25937000000000004  0.91536  1.0000
  O   O3        1.0  0.39123  0.27543000000000006  0.84672  1.0000
  O   O4        1.0  0.34344999999999976  0.27701  0.91299  1.0000
  O   O5        1.0  0.32728  0.9852600000000001  0.84154  1.0000
  O   O6        1.0  0.26901  0.006019999999999992  0.90627  1.0000
  O   O7        1.0  0.52673  0.024570000000000005  0.84803  1.0000
  O   O8        1.0  0.47691000000000017  0.03121000000000005  0.9139799999999998  1.0000
  O   O9        1.0  0.9682  0.34559  0.24965  1.0000
  O   O10       1.0  0.15314  0.2902900000000001  0.26535  1.0000
  O   O11       1.0  0.15599000000000002  0.08986  0.98407  1.0000
  O   O12       1.0  0.34117999999999993  0.02316  0.99779  1.0000
  O   O13       1.0  0.23143999999999998  0.18944  0.35387  1.0000
  O   O14       1.0  0.25992  0.11743000000000002  0.41707  1.0000
  O   O15       1.0  0.27632  0.39101000000000014  0.3472  1.0000
  O   O16       1.0  0.27619999999999995  0.3434200000000001  0.41341  1.0000
  O   O17       1.0  0.9847000000000001  0.32853000000000004  0.34067999999999987  1.0000
  O   O18       1.0  0.006399999999999971  0.26472000000000007  0.40492  1.0000
  O   O19       1.0  0.025599999999999987  0.52899  0.3458  1.0000
  O   O20       1.0  0.02956999999999999  0.47659000000000007  0.4115899999999999  1.0000
  O   O21       1.0  0.34505000000000013  0.9650100000000001  0.74959  1.0000
  O   O22       1.0  0.2920400000000001  0.14987  0.76492  1.0000
  O   O23       1.0  0.08680999999999996  0.15815  0.48296  1.0000
  O   O24       1.0  0.02223000000000001  0.34298  0.49684999999999996  1.0000
  O   O25       1.0  0.7684399999999999  0.8098200000000004  0.6463399999999998  1.0000
  O   O26       1.0  0.73989  0.8836100000000002  0.58337  1.0000
  O   O27       1.0  0.7250399999999997  0.6086400000000002  0.65247  1.0000
  O   O28       1.0  0.7223899999999999  0.6568400000000002  0.58627  1.0000
  O   O29       1.0  0.016840000000000025  0.67159  0.65961  1.0000
  O   O30       1.0  0.9942900000000002  0.7334  0.5951  1.0000
  O   O31       1.0  0.97619  0.4708600000000001  0.65395  1.0000
  O   O32       1.0  0.9689399999999999  0.52441  0.58824  1.0000
  O   O33       1.0  0.65509  0.03259000000000001  0.25044  1.0000
  O   O34       1.0  0.7106100000000002  0.84795  0.23449999999999993  1.0000
  O   O35       1.0  0.91281  0.8435100000000001  0.5174599999999998  1.0000
  O   O36       1.0  0.9736199999999999  0.65984  0.50309  1.0000
  O   O37       1.0  0.81046  0.77189  0.14561  1.0000
  O   O38       1.0  0.88116  0.73923  0.08239  1.0000
  O   O39       1.0  0.6103800000000001  0.72469  0.15249  1.0000
  O   O40       1.0  0.65499  0.72566  0.08602  1.0000
  O   O41       1.0  0.67304  0.01587  0.15817  1.0000
  O   O42       1.0  0.7333599999999999  0.9966700000000003  0.09342999999999997  1.0000
  O   O43       1.0  0.4741  0.9737  0.15242  1.0000
  O   O44       1.0  0.5241499999999999  0.9755100000000002  0.08654  1.0000
  O   O45       1.0  0.03265000000000005  0.65392  0.75029  1.0000
  O   O46       1.0  0.8479999999999998  0.70948  0.73453  1.0000
  O   O47       1.0  0.8411399999999999  0.9167  0.01679  1.0000
  O   O48       1.0  0.6584899999999999  0.9768800000000001  0.00159  1.0000
