data_image0
_chemical_formula_structural       Cu8H120C144N16O32
_chemical_formula_sum              "Cu8 H120 C144 N16 O32"
_cell_length_a       12.56802
_cell_length_b       17.84955
_cell_length_c       18.55355
_cell_angle_alpha    100.02466
_cell_angle_beta     89.82788
_cell_angle_gamma    90.04709

_symmetry_space_group_name_H-M    'P 1'
_symmetry_Int_Tables_number       1

loop_
  _symmetry_equiv_pos_as_xyz
  'x,y,z'

loop_
  _atom_site_type_symbol
  _atom_site_label
  _atom_site_symmetry_multiplicity
  _atom_site_fract_x
  _atom_site_fract_y
  _atom_site_fract_z
  _atom_site_occupancy
  Cu  Cu1       1.0  0.74357  0.74765  0.01033  1.0000
  Cu  Cu2       1.0  0.25517  0.75317  0.01897  1.0000
  Cu  Cu3       1.0  0.24446999999999997  0.75173  0.48833000000000004  1.0000
  Cu  Cu4       1.0  0.75579  0.74649  0.48054  1.0000
  Cu  Cu5       1.0  0.25642  0.25234999999999996  0.9896799999999999  1.0000
  Cu  Cu6       1.0  0.74483  0.24682999999999997  0.98103  1.0000
  Cu  Cu7       1.0  0.75553  0.24827  0.51167  1.0000
  Cu  Cu8       1.0  0.2442  0.25351  0.51946  1.0000
  H   H1        1.0  0.03687  0.21936  0.58548  1.0000
  H   H2        1.0  0.88548  0.12816999999999998  0.55168  1.0000
  H   H3        1.0  0.06778  0.029489999999999995  0.36091  1.0000
  H   H4        1.0  0.21394  0.11972  0.40624  1.0000
  H   H5        1.0  0.79767  0.05398  0.43443  1.0000
  H   H6        1.0  0.8601  0.9834400000000001  0.47281  1.0000
  H   H7        1.0  0.9489799999999999  0.9342399999999998  0.35036  1.0000
  H   H8        1.0  0.8823199999999999  0.005310000000000013  0.31291  1.0000
  H   H9        1.0  0.70528  0.9512  0.35389  1.0000
  H   H10       1.0  0.77809  0.87623  0.37853  1.0000
  H   H11       1.0  0.60457  0.9024599999999999  0.25012  1.0000
  H   H12       1.0  0.59761  0.83676  0.11986  1.0000
  H   H13       1.0  0.93273  0.83199  0.25389  1.0000
  H   H14       1.0  0.91141  0.76559  0.12613  1.0000
  H   H15       1.0  0.6923  0.01717000000000002  0.9806200000000002  1.0000
  H   H16       1.0  0.46164  0.27042  0.46553  1.0000
  H   H17       1.0  0.61065  0.36485  0.48805  1.0000
  H   H18       1.0  0.40375999999999995  0.5066399999999999  0.64046  1.0000
  H   H19       1.0  0.26327  0.40805  0.60961  1.0000
  H   H20       1.0  0.6855900000000001  0.47122  0.5612  1.0000
  H   H21       1.0  0.59797  0.54475  0.55035  1.0000
  H   H22       1.0  0.64397  0.49199  0.69552  1.0000
  H   H23       1.0  0.5501  0.5621999999999999  0.68506  1.0000
  H   H24       1.0  0.78971  0.57247  0.65264  1.0000
  H   H25       1.0  0.6947699999999999  0.6407299999999999  0.6394  1.0000
  H   H26       1.0  0.56253  0.68121  0.76094  1.0000
  H   H27       1.0  0.57896  0.73568  0.89282  1.0000
  H   H28       1.0  0.8844  0.59844  0.76705  1.0000
  H   H29       1.0  0.88788  0.65637  0.90001  1.0000
  H   H30       1.0  0.8098999999999998  0.47628  0.02116  1.0000
  H   H31       1.0  0.53824  0.28048  0.91449  1.0000
  H   H32       1.0  0.38660000000000005  0.37184  0.94772  1.0000
  H   H33       1.0  0.56566  0.47003  0.13945  1.0000
  H   H34       1.0  0.71236  0.37987  0.09466  1.0000
  H   H35       1.0  0.29731  0.44616  0.06505  1.0000
  H   H36       1.0  0.3608  0.51607  0.02606  1.0000
  H   H37       1.0  0.44928  0.56561  0.14822  1.0000
  H   H38       1.0  0.38107  0.49546999999999997  0.18635  1.0000
  H   H39       1.0  0.2055  0.55026  0.14467000000000002  1.0000
  H   H40       1.0  0.27998  0.6244700000000001  0.11958  1.0000
  H   H41       1.0  0.10521  0.59936  0.24872000000000002  1.0000
  H   H42       1.0  0.09902  0.66443  0.37933  1.0000
  H   H43       1.0  0.43427  0.66791  0.24384999999999998  1.0000
  H   H44       1.0  0.41373000000000004  0.73369  0.37207  1.0000
  H   H45       1.0  0.19158  0.48302  0.52124  1.0000
  H   H46       1.0  0.96326  0.23028  0.03303  1.0000
  H   H47       1.0  0.11123  0.13517  0.01014  1.0000
  H   H48       1.0  0.90336  0.9938599999999999  0.85894  1.0000
  H   H49       1.0  0.76371  0.09292999999999997  0.8901799999999999  1.0000
  H   H50       1.0  0.18505999999999997  0.02793  0.9376700000000001  1.0000
  H   H51       1.0  0.09627  0.9550399999999999  0.949  1.0000
  H   H52       1.0  0.14295  0.007299999999999996  0.80345  1.0000
  H   H53       1.0  0.04945  0.9367999999999999  0.81443  1.0000
  H   H54       1.0  0.28935  0.92732  0.84519  1.0000
  H   H55       1.0  0.1952  0.85864  0.85903  1.0000
  H   H56       1.0  0.0625  0.81754  0.73776  1.0000
  H   H57       1.0  0.07956  0.76282  0.60606  1.0000
  H   H58       1.0  0.3841  0.9012  0.73071  1.0000
  H   H59       1.0  0.38827  0.84288  0.59793  1.0000
  H   H60       1.0  0.31009  0.02287999999999999  0.47825  1.0000
  H   H61       1.0  0.96313  0.78064  0.41452  1.0000
  H   H62       1.0  0.11451  0.8718299999999999  0.44832  1.0000
  H   H63       1.0  0.93222  0.9705100000000001  0.6390900000000002  1.0000
  H   H64       1.0  0.7860600000000001  0.88028  0.59377  1.0000
  H   H65       1.0  0.20233  0.94602  0.5655800000000001  1.0000
  H   H66       1.0  0.1399  0.01656  0.52719  1.0000
  H   H67       1.0  0.05102  0.06576000000000001  0.64965  1.0000
  H   H68       1.0  0.11768  0.99469  0.6870900000000001  1.0000
  H   H69       1.0  0.29472  0.04880000000000002  0.64612  1.0000
  H   H70       1.0  0.2219  0.12377  0.62148  1.0000
  H   H71       1.0  0.39543  0.09753999999999997  0.74988  1.0000
  H   H72       1.0  0.40238  0.16324  0.88014  1.0000
  H   H73       1.0  0.06726  0.16801  0.74611  1.0000
  H   H74       1.0  0.08859  0.23440999999999998  0.8738700000000001  1.0000
  H   H75       1.0  0.30769  0.98283  0.01938  1.0000
  H   H76       1.0  0.53836  0.72958  0.53447  1.0000
  H   H77       1.0  0.38935  0.63515  0.51195  1.0000
  H   H78       1.0  0.59624  0.4933600000000001  0.35954  1.0000
  H   H79       1.0  0.7367299999999999  0.59195  0.3904  1.0000
  H   H80       1.0  0.31441  0.52878  0.4388000000000001  1.0000
  H   H81       1.0  0.40203  0.45524999999999993  0.44964999999999994  1.0000
  H   H82       1.0  0.35602  0.50801  0.30448  1.0000
  H   H83       1.0  0.4499  0.4378  0.31494  1.0000
  H   H84       1.0  0.21029  0.42753  0.34736  1.0000
  H   H85       1.0  0.30522  0.35927000000000003  0.3606  1.0000
  H   H86       1.0  0.43747  0.31879  0.23906  1.0000
  H   H87       1.0  0.42104  0.26432  0.10719  1.0000
  H   H88       1.0  0.1156  0.40156  0.23295  1.0000
  H   H89       1.0  0.11211  0.34363  0.09999  1.0000
  H   H90       1.0  0.1901  0.52372  0.97885  1.0000
  H   H91       1.0  0.46175  0.71952  0.08551  1.0000
  H   H92       1.0  0.6134  0.62816  0.05228  1.0000
  H   H93       1.0  0.43434  0.52997  0.86055  1.0000
  H   H94       1.0  0.28764  0.62013  0.90535  1.0000
  H   H95       1.0  0.7026799999999999  0.55384  0.93495  1.0000
  H   H96       1.0  0.6392  0.48392999999999997  0.97395  1.0000
  H   H97       1.0  0.55071  0.43438999999999994  0.85178  1.0000
  H   H98       1.0  0.61893  0.50453  0.81365  1.0000
  H   H99       1.0  0.79449  0.4497399999999999  0.85533  1.0000
  H   H100      1.0  0.72001  0.37553  0.88042  1.0000
  H   H101      1.0  0.89479  0.40064  0.75128  1.0000
  H   H102      1.0  0.9009799999999999  0.33557  0.62067  1.0000
  H   H103      1.0  0.56572  0.33209  0.75615  1.0000
  H   H104      1.0  0.58627  0.2663  0.62794  1.0000
  H   H105      1.0  0.80842  0.51699  0.47876  1.0000
  H   H106      1.0  0.03674  0.76972  0.96697  1.0000
  H   H107      1.0  0.88877  0.8648299999999999  0.98986  1.0000
  H   H108      1.0  0.09664  0.006139999999999995  0.14106  1.0000
  H   H109      1.0  0.23629  0.90707  0.10981999999999999  1.0000
  H   H110      1.0  0.81494  0.97207  0.06233  1.0000
  H   H111      1.0  0.9037299999999999  0.04496  0.051  1.0000
  H   H112      1.0  0.85704  0.9926999999999999  0.19656  1.0000
  H   H113      1.0  0.95055  0.06319999999999999  0.18557  1.0000
  H   H114      1.0  0.71065  0.07268  0.15481  1.0000
  H   H115      1.0  0.8048  0.14136  0.14097  1.0000
  H   H116      1.0  0.9375  0.18246  0.26224  1.0000
  H   H117      1.0  0.92044  0.23717999999999997  0.39394  1.0000
  H   H118      1.0  0.6159  0.0988  0.26929  1.0000
  H   H119      1.0  0.61172  0.15711999999999998  0.40207  1.0000
  H   H120      1.0  0.6899  0.97712  0.52175  1.0000
  C   C1        1.0  0.04075999999999999  0.17483  0.53741  1.0000
  C   C2        1.0  0.9569099999999999  0.12503  0.51754  1.0000
  C   C3        1.0  0.9629  0.07147999999999999  0.45244999999999996  1.0000
  C   C4        1.0  0.05685  0.06992999999999999  0.4114300000000001  1.0000
  C   C5        1.0  0.13898  0.12028  0.43573  1.0000
  C   C6        1.0  0.87023  0.019089999999999996  0.4305  1.0000
  C   C7        1.0  0.87648  0.9691200000000001  0.35496  1.0000
  C   C8        1.0  0.77807  0.9174899999999999  0.34075  1.0000
  C   C9        1.0  0.77019  0.8746  0.26357  1.0000
  C   C10       1.0  0.67491  0.87377  0.22434999999999997  1.0000
  C   C11       1.0  0.6696499999999999  0.8365  0.15218  1.0000
  C   C12       1.0  0.85623  0.8345299999999999  0.22706999999999997  1.0000
  C   C13       1.0  0.84564  0.79743  0.15503  1.0000
  C   C14       1.0  0.6483  0.8730399999999998  0.9782699999999999  1.0000
  C   C15       1.0  0.56839  0.9363899999999998  0.98661  1.0000
  C   C16       1.0  0.60738  0.010339999999999972  0.9890299999999999  1.0000
  C   C17       1.0  0.45885  0.9258  0.99736  1.0000
  C   C18       1.0  0.40434  0.8495499999999999  0.98887  1.0000
  C   C19       1.0  0.45248  0.32395  0.50313  1.0000
  C   C20       1.0  0.53502  0.37604  0.51689  1.0000
  C   C21       1.0  0.52175  0.44318  0.568  1.0000
  C   C22       1.0  0.4217  0.45507999999999993  0.60172  1.0000
  C   C23       1.0  0.34207  0.40066  0.58506  1.0000
  C   C24       1.0  0.61173  0.49953999999999993  0.58268  1.0000
  C   C25       1.0  0.62517  0.5361  0.66302  1.0000
  C   C26       1.0  0.71304  0.5972  0.67296  1.0000
  C   C27       1.0  0.72253  0.63431  0.7519  1.0000
  C   C28       1.0  0.6367799999999998  0.67416  0.7890900000000001  1.0000
  C   C29       1.0  0.64479  0.7049399999999999  0.86296  1.0000
  C   C30       1.0  0.81485  0.62841  0.79267  1.0000
  C   C31       1.0  0.81809  0.6607599999999999  0.86649  1.0000
  C   C32       1.0  0.84988  0.62357  0.04652  1.0000
  C   C33       1.0  0.93138  0.56139  0.02699  1.0000
  C   C34       1.0  0.89372  0.48643  0.01181  1.0000
  C   C35       1.0  0.040060000000000005  0.57507  0.01575  1.0000
  C   C36       1.0  0.09142  0.6519499999999999  0.03804  1.0000
  C   C37       1.0  0.54121  0.32476  0.96278  1.0000
  C   C38       1.0  0.45738000000000006  0.37471  0.98217  1.0000
  C   C39       1.0  0.46257  0.42818  0.047290000000000006  1.0000
  C   C40       1.0  0.55558  0.42961  0.08887  1.0000
  C   C41       1.0  0.6378100000000001  0.37917  0.06498  1.0000
  C   C42       1.0  0.37012  0.48080999999999996  0.06871  1.0000
  C   C43       1.0  0.37631  0.53121  0.14389  1.0000
  C   C44       1.0  0.27868  0.58352  0.15765  1.0000
  C   C45       1.0  0.2711  0.62645  0.23477000000000003  1.0000
  C   C46       1.0  0.17581  0.62757  0.27433  1.0000
  C   C47       1.0  0.17101000000000002  0.6644  0.34666  1.0000
  C   C48       1.0  0.35771  0.66575  0.27103  1.0000
  C   C49       1.0  0.34758  0.70241  0.34329  1.0000
  C   C50       1.0  0.14757  0.62704  0.52162  1.0000
  C   C51       1.0  0.0682  0.5635100000000001  0.51354  1.0000
  C   C52       1.0  0.10694000000000001  0.48974  0.51232  1.0000
  C   C53       1.0  0.9592199999999999  0.5741  0.50153  1.0000
  C   C54       1.0  0.90577  0.65058  0.50982  1.0000
  C   C55       1.0  0.95347  0.17666  0.9956700000000002  1.0000
  C   C56       1.0  0.03553  0.12420999999999999  0.98168  1.0000
  C   C57       1.0  0.02169  0.0569  0.9309399999999999  1.0000
  C   C58       1.0  0.92168  0.04540999999999999  0.89752  1.0000
  C   C59       1.0  0.84251  0.10015000000000002  0.9144200000000001  1.0000
  C   C60       1.0  0.11100999999999998  0.9999399999999998  0.9163799999999999  1.0000
  C   C61       1.0  0.12450000000000001  0.9631199999999999  0.83601  1.0000
  C   C62       1.0  0.21271999999999996  0.9022999999999999  0.8254  1.0000
  C   C63       1.0  0.22221  0.86516  0.74639  1.0000
  C   C64       1.0  0.13678  0.82492  0.70947  1.0000
  C   C65       1.0  0.14513  0.79395  0.63563  1.0000
  C   C66       1.0  0.31464  0.8711  0.70535  1.0000
  C   C67       1.0  0.31829  0.8385600000000001  0.6315900000000001  1.0000
  C   C68       1.0  0.35122  0.87611  0.45285  1.0000
  C   C69       1.0  0.43209  0.93848  0.47292  1.0000
  C   C70       1.0  0.39393  0.013320000000000005  0.4876400000000001  1.0000
  C   C71       1.0  0.54047  0.92494  0.4848299999999999  1.0000
  C   C72       1.0  0.59217  0.84824  0.46196  1.0000
  C   C73       1.0  0.95924  0.82517  0.46259  1.0000
  C   C74       1.0  0.04309  0.87497  0.48247  1.0000
  C   C75       1.0  0.0371  0.92852  0.5475500000000001  1.0000
  C   C76       1.0  0.94315  0.9300699999999998  0.58858  1.0000
  C   C77       1.0  0.86101  0.87973  0.56427  1.0000
  C   C78       1.0  0.12977  0.98091  0.5695  1.0000
  C   C79       1.0  0.12351  0.030879999999999998  0.64504  1.0000
  C   C80       1.0  0.22193  0.08250999999999997  0.65926  1.0000
  C   C81       1.0  0.22981  0.1254  0.73643  1.0000
  C   C82       1.0  0.32509  0.12623  0.77565  1.0000
  C   C83       1.0  0.33035  0.1635  0.84782  1.0000
  C   C84       1.0  0.14377  0.16547  0.77293  1.0000
  C   C85       1.0  0.15436  0.20257  0.84497  1.0000
  C   C86       1.0  0.35169999999999996  0.12696  0.02173  1.0000
  C   C87       1.0  0.43161  0.06360999999999999  0.01339  1.0000
  C   C88       1.0  0.39260999999999996  0.98966  0.01097  1.0000
  C   C89       1.0  0.54115  0.0742  0.00264  1.0000
  C   C90       1.0  0.59566  0.15045  0.01113  1.0000
  C   C91       1.0  0.54752  0.67605  0.49687000000000003  1.0000
  C   C92       1.0  0.46498  0.62396  0.48311  1.0000
  C   C93       1.0  0.47825  0.55682  0.43201  1.0000
  C   C94       1.0  0.5783  0.54492  0.39828  1.0000
  C   C95       1.0  0.65793  0.5993399999999998  0.41494  1.0000
  C   C96       1.0  0.38826000000000005  0.50046  0.4173200000000001  1.0000
  C   C97       1.0  0.37483  0.4639  0.33698  1.0000
  C   C98       1.0  0.28696  0.4028  0.32704  1.0000
  C   C99       1.0  0.27747  0.36569000000000007  0.24811  1.0000
  C   C100      1.0  0.36322  0.32584  0.21091  1.0000
  C   C101      1.0  0.35520999999999997  0.29506  0.13704  1.0000
  C   C102      1.0  0.18514999999999998  0.37159  0.20734  1.0000
  C   C103      1.0  0.18191  0.33924  0.13351  1.0000
  C   C104      1.0  0.15012  0.37642999999999993  0.9534799999999999  1.0000
  C   C105      1.0  0.06862  0.43861  0.9730100000000002  1.0000
  C   C106      1.0  0.10628  0.51357  0.9881900000000001  1.0000
  C   C107      1.0  0.9599400000000001  0.42493000000000003  0.9842500000000001  1.0000
  C   C108      1.0  0.9085799999999999  0.34805  0.96196  1.0000
  C   C109      1.0  0.45879  0.6752499999999999  0.03722  1.0000
  C   C110      1.0  0.54262  0.62529  0.01783  1.0000
  C   C111      1.0  0.53743  0.57182  0.9527199999999999  1.0000
  C   C112      1.0  0.44442  0.57039  0.91114  1.0000
  C   C113      1.0  0.36218  0.6208300000000001  0.9350300000000001  1.0000
  C   C114      1.0  0.62988  0.51919  0.93129  1.0000
  C   C115      1.0  0.62369  0.46879  0.85611  1.0000
  C   C116      1.0  0.72132  0.4164800000000001  0.84235  1.0000
  C   C117      1.0  0.7289  0.37355  0.76523  1.0000
  C   C118      1.0  0.82419  0.37242999999999993  0.72567  1.0000
  C   C119      1.0  0.82899  0.3356  0.65334  1.0000
  C   C120      1.0  0.64228  0.33424  0.72898  1.0000
  C   C121      1.0  0.6524099999999999  0.29759  0.65671  1.0000
  C   C122      1.0  0.85243  0.37296  0.47838  1.0000
  C   C123      1.0  0.9318  0.43649  0.48646  1.0000
  C   C124      1.0  0.89306  0.5102599999999999  0.48768  1.0000
  C   C125      1.0  0.04078  0.42589999999999995  0.4984700000000001  1.0000
  C   C126      1.0  0.09423  0.34942  0.49018000000000006  1.0000
  C   C127      1.0  0.04653  0.8233399999999998  0.00433  1.0000
  C   C128      1.0  0.96447  0.87579  0.01832  1.0000
  C   C129      1.0  0.97831  0.9430999999999999  0.06906000000000001  1.0000
  C   C130      1.0  0.07832  0.9545899999999999  0.10248  1.0000
  C   C131      1.0  0.15749  0.89985  0.08558  1.0000
  C   C132      1.0  0.88898  6.000000000000053e-05  0.08363  1.0000
  C   C133      1.0  0.8755  0.03688  0.16399  1.0000
  C   C134      1.0  0.78728  0.0977  0.1746  1.0000
  C   C135      1.0  0.77779  0.13484  0.25361  1.0000
  C   C136      1.0  0.86321  0.17508  0.29053  1.0000
  C   C137      1.0  0.85486  0.20604999999999996  0.36437  1.0000
  C   C138      1.0  0.68536  0.1289  0.29466  1.0000
  C   C139      1.0  0.68171  0.16144  0.36841  1.0000
  C   C140      1.0  0.64877  0.12388999999999999  0.54716  1.0000
  C   C141      1.0  0.56791  0.06152  0.52708  1.0000
  C   C142      1.0  0.60607  0.9866799999999999  0.51236  1.0000
  C   C143      1.0  0.45952  0.07506  0.51517  1.0000
  C   C144      1.0  0.40783  0.15176  0.53804  1.0000
  N   N1        1.0  0.13119  0.17233  0.49762  1.0000
  N   N2        1.0  0.75395  0.7991699999999999  0.11731  1.0000
  N   N3        1.0  0.7342799999999999  0.69829  0.9017299999999999  1.0000
  N   N4        1.0  0.35688999999999993  0.33554  0.53673  1.0000
  N   N5        1.0  0.63072  0.32709  0.0031  1.0000
  N   N6        1.0  0.25579  0.7009  0.38136  1.0000
  N   N7        1.0  0.23466  0.8008  0.59662  1.0000
  N   N8        1.0  0.85773  0.16524  0.96268  1.0000
  N   N9        1.0  0.86881  0.82767  0.50238  1.0000
  N   N10       1.0  0.24604  0.20082999999999995  0.88269  1.0000
  N   N11       1.0  0.26572  0.30171  0.09828  1.0000
  N   N12       1.0  0.6431099999999998  0.66446  0.46326999999999996  1.0000
  N   N13       1.0  0.36928  0.67291  0.9968999999999999  1.0000
  N   N14       1.0  0.7442  0.2991  0.61865  1.0000
  N   N15       1.0  0.76534  0.19920000000000002  0.40339  1.0000
  N   N16       1.0  0.14227  0.83476  0.03732  1.0000
  O   O1        1.0  0.61728  0.81089  5e-05  1.0000
  O   O2        1.0  0.74017  0.88282  0.95537  1.0000
  O   O3        1.0  0.39109  0.81123  0.9266299999999998  1.0000
  O   O4        1.0  0.36478  0.8331899999999998  0.04934  1.0000
  O   O5        1.0  0.8689799999999999  0.68448  0.01811  1.0000
  O   O6        1.0  0.7683  0.61308  0.08182  1.0000
  O   O7        1.0  0.15184  0.67113  0.98656  1.0000
  O   O8        1.0  0.08007  0.68843  0.10115  1.0000
  O   O9        1.0  0.11695  0.6885399999999999  0.49844  1.0000
  O   O10       1.0  0.23864999999999997  0.61784  0.54569  1.0000
  O   O11       1.0  0.89317  0.68887  0.57217  1.0000
  O   O12       1.0  0.86651  0.66728  0.44957  1.0000
  O   O13       1.0  0.37074  0.8147199999999998  0.48024000000000006  1.0000
  O   O14       1.0  0.26972  0.88673  0.41788  1.0000
  O   O15       1.0  0.6502  0.82685  0.51323  1.0000
  O   O16       1.0  0.58293  0.81392  0.39796  1.0000
  O   O17       1.0  0.38272000000000006  0.18911  0.99996  1.0000
  O   O18       1.0  0.25983  0.11718  0.04463000000000001  1.0000
  O   O19       1.0  0.6089  0.18877  0.07337  1.0000
  O   O20       1.0  0.63522  0.16681  0.95066  1.0000
  O   O21       1.0  0.13102  0.31553  0.9818900000000002  1.0000
  O   O22       1.0  0.23169  0.38692  0.91817  1.0000
  O   O23       1.0  0.8481499999999998  0.32887  0.01344  1.0000
  O   O24       1.0  0.91993  0.31157  0.89886  1.0000
  O   O25       1.0  0.88305  0.31146  0.50156  1.0000
  O   O26       1.0  0.76135  0.3821599999999999  0.45432  1.0000
  O   O27       1.0  0.10683  0.31112999999999996  0.42783  1.0000
  O   O28       1.0  0.13348  0.33272  0.55043  1.0000
  O   O29       1.0  0.62926  0.18528  0.51977  1.0000
  O   O30       1.0  0.73028  0.11327000000000002  0.5821300000000001  1.0000
  O   O31       1.0  0.34979999999999994  0.17315  0.48678  1.0000
  O   O32       1.0  0.41707  0.18609  0.60204  1.0000
