data_image0
_chemical_formula_structural       Gd8H96C192O48
_chemical_formula_sum              "Gd8 H96 C192 O48"
_cell_length_a       20.87402
_cell_length_b       20.87696
_cell_length_c       23.113030000000002
_cell_angle_alpha    106.23358999999999
_cell_angle_beta     106.86191000000001
_cell_angle_gamma    111.60621

_symmetry_space_group_name_H-M    'P 1'
_symmetry_Int_Tables_number       1

loop_
  _symmetry_equiv_pos_as_xyz
  'x,y,z'

loop_
  _atom_site_type_symbol
  _atom_site_label
  _atom_site_symmetry_multiplicity
  _atom_site_fract_x
  _atom_site_fract_y
  _atom_site_fract_z
  _atom_site_occupancy
  Gd  Gd1       1.0  0.62462  0.21872  0.3801  1.0000
  Gd  Gd2       1.0  0.52107  0.2934399999999999  0.27888  1.0000
  Gd  Gd3       1.0  0.16073999999999994  0.2554  0.87962  1.0000
  Gd  Gd4       1.0  0.9850399999999998  0.2580199999999999  0.7789399999999999  1.0000
  Gd  Gd5       1.0  0.83927  0.7445999999999999  0.12037999999999999  1.0000
  Gd  Gd6       1.0  0.014969999999999992  0.74198  0.22106  1.0000
  Gd  Gd7       1.0  0.3753899999999999  0.78127  0.6199  1.0000
  Gd  Gd8       1.0  0.47893  0.70656  0.72112  1.0000
  H   H1        1.0  0.37161999999999995  0.28667  0.38056  1.0000
  H   H2        1.0  0.4740599999999998  0.17986000000000002  0.48052999999999996  1.0000
  H   H3        1.0  0.29555999999999993  0.28600999999999993  0.44680999999999993  1.0000
  H   H4        1.0  0.39651  0.17642999999999995  0.54571  1.0000
  H   H5        1.0  0.13875  0.25366  0.5352  1.0000
  H   H6        1.0  0.28432999999999997  0.21883  0.68473  1.0000
  H   H7        1.0  0.06317000000000003  0.26269  0.6008  1.0000
  H   H8        1.0  0.20852999999999997  0.22742  0.74913  1.0000
  H   H9        1.0  0.63513  0.27328  0.14561  1.0000
  H   H10       1.0  0.79227  0.25022  0.29479  1.0000
  H   H11       1.0  0.70213  0.25714  0.07336  1.0000
  H   H12       1.0  0.86301  0.23841999999999994  0.22495999999999997  1.0000
  H   H13       1.0  0.8296699999999997  0.23323000000000008  0.94899  1.0000
  H   H14       1.0  0.004220000000000015  0.25369  0.12059  1.0000
  H   H15       1.0  0.9141199999999998  0.24164999999999992  0.89163  1.0000
  H   H16       1.0  0.08780999999999997  0.26071  0.06125  1.0000
  H   H17       1.0  0.7024099999999999  0.022260000000000002  0.3372  1.0000
  H   H18       1.0  0.5273499999999998  0.9869699999999999  0.40556999999999993  1.0000
  H   H19       1.0  0.6764499999999999  0.8878799999999999  0.31196999999999997  1.0000
  H   H20       1.0  0.49809999999999993  0.85123  0.37779  1.0000
  H   H21       1.0  0.48492  0.63255  0.36781  1.0000
  H   H22       1.0  0.59724  0.63791  0.23775999999999997  1.0000
  H   H23       1.0  0.46759  0.50218  0.35092  1.0000
  H   H24       1.0  0.57831  0.50712  0.22066999999999998  1.0000
  H   H25       1.0  0.09340999999999995  0.50919  0.8804799999999999  1.0000
  H   H26       1.0  0.2997999999999999  0.5060399999999999  0.9797  1.0000
  H   H27       1.0  0.16055999999999995  0.65134  0.94625  1.0000
  H   H28       1.0  0.36874  0.64878  0.04484  1.0000
  H   H29       1.0  0.28201999999999994  0.8966099999999999  0.03545  1.0000
  H   H30       1.0  0.46577999999999986  0.8995199999999999  0.18461  1.0000
  H   H31       1.0  0.33914  0.03779  0.10122  1.0000
  H   H32       1.0  0.52225  0.03964000000000002  0.24901  1.0000
  H   H33       1.0  0.87169  0.009860000000000006  0.64474  1.0000
  H   H34       1.0  0.04432000000000003  0.0029600000000000433  0.79421  1.0000
  H   H35       1.0  0.8155299999999999  0.87049  0.5732999999999999  1.0000
  H   H36       1.0  0.9864599999999997  0.86238  0.72524  1.0000
  H   H37       1.0  0.7166599999999997  0.6194199999999999  0.44858  1.0000
  H   H38       1.0  0.8672999999999996  0.61583  0.61995  1.0000
  H   H39       1.0  0.65074  0.47789999999999994  0.3910699999999999  1.0000
  H   H40       1.0  0.80065  0.47313999999999995  0.5606  1.0000
  H   H41       1.0  0.31491  0.1353  0.83792  1.0000
  H   H42       1.0  0.41839999999999994  0.37828999999999996  0.90464  1.0000
  H   H43       1.0  0.4239399999999999  0.13548  0.81283  1.0000
  H   H44       1.0  0.5267499999999999  0.37932999999999995  0.8776499999999999  1.0000
  H   H45       1.0  0.73432  0.38151000000000007  0.8684599999999999  1.0000
  H   H46       1.0  0.5991  0.14012999999999998  0.73635  1.0000
  H   H47       1.0  0.8481  0.38260999999999984  0.8517599999999999  1.0000
  H   H48       1.0  0.7132400000000001  0.14275  0.71945  1.0000
  H   H49       1.0  0.9065999999999999  0.4908099999999999  0.11952  1.0000
  H   H50       1.0  0.7002099999999999  0.49396  0.0203  1.0000
  H   H51       1.0  0.83945  0.34866  0.05374999999999999  1.0000
  H   H52       1.0  0.6312699999999999  0.3512199999999998  0.9551599999999999  1.0000
  H   H53       1.0  0.7179899999999999  0.10339000000000001  0.9645499999999999  1.0000
  H   H54       1.0  0.53423  0.10047999999999996  0.81539  1.0000
  H   H55       1.0  0.66087  0.9622099999999999  0.89878  1.0000
  H   H56       1.0  0.47776  0.9603499999999999  0.75099  1.0000
  H   H57       1.0  0.12831999999999985  0.99014  0.35526  1.0000
  H   H58       1.0  0.95569  0.99704  0.20579  1.0000
  H   H59       1.0  0.18447999999999995  0.12950999999999996  0.42669999999999997  1.0000
  H   H60       1.0  0.01353999999999998  0.13761999999999996  0.27476  1.0000
  H   H61       1.0  0.28335  0.38058  0.55142  1.0000
  H   H62       1.0  0.13270999999999994  0.38417  0.38004  1.0000
  H   H63       1.0  0.34926  0.5221  0.60893  1.0000
  H   H64       1.0  0.19935999999999993  0.52686  0.43939999999999996  1.0000
  H   H65       1.0  0.6850899999999999  0.8646999999999999  0.16208  1.0000
  H   H66       1.0  0.5816099999999998  0.62171  0.09536  1.0000
  H   H67       1.0  0.57606  0.8645199999999998  0.18717  1.0000
  H   H68       1.0  0.4732599999999999  0.6206699999999999  0.12235  1.0000
  H   H69       1.0  0.26568  0.61848  0.13154  1.0000
  H   H70       1.0  0.40090999999999977  0.8598599999999998  0.26365  1.0000
  H   H71       1.0  0.15191000000000002  0.61738  0.14824  1.0000
  H   H72       1.0  0.28675999999999985  0.8572399999999999  0.28055  1.0000
  H   H73       1.0  0.62839  0.71333  0.61944  1.0000
  H   H74       1.0  0.5259499999999999  0.82014  0.51947  1.0000
  H   H75       1.0  0.70445  0.71399  0.55319  1.0000
  H   H76       1.0  0.6034899999999999  0.8235699999999999  0.45429  1.0000
  H   H77       1.0  0.8612599999999999  0.74633  0.46479999999999994  1.0000
  H   H78       1.0  0.71567  0.78117  0.31527  1.0000
  H   H79       1.0  0.9368399999999999  0.73731  0.3992  1.0000
  H   H80       1.0  0.79148  0.77257  0.25087  1.0000
  H   H81       1.0  0.36487999999999987  0.7267099999999999  0.8543899999999999  1.0000
  H   H82       1.0  0.20773999999999995  0.7497799999999999  0.70521  1.0000
  H   H83       1.0  0.29788  0.74286  0.92664  1.0000
  H   H84       1.0  0.137  0.76158  0.77504  1.0000
  H   H85       1.0  0.17033999999999994  0.76677  0.05101  1.0000
  H   H86       1.0  0.99579  0.7463099999999999  0.8794099999999999  1.0000
  H   H87       1.0  0.08589000000000001  0.75834  0.10837  1.0000
  H   H88       1.0  0.9121899999999997  0.7392899999999998  0.93875  1.0000
  H   H89       1.0  0.2975999999999999  0.97774  0.6628  1.0000
  H   H90       1.0  0.47266  0.013020000000000025  0.59443  1.0000
  H   H91       1.0  0.32356  0.11210999999999999  0.68803  1.0000
  H   H92       1.0  0.50191  0.14877  0.62221  1.0000
  H   H93       1.0  0.51509  0.36744999999999994  0.63219  1.0000
  H   H94       1.0  0.40277  0.36209  0.76224  1.0000
  H   H95       1.0  0.53241  0.49781999999999993  0.64908  1.0000
  H   H96       1.0  0.4217  0.49287999999999993  0.77933  1.0000
  C   C1        1.0  0.4748799999999999  0.23693999999999998  0.38991999999999993  1.0000
  C   C2        1.0  0.4274299999999999  0.23378  0.42728  1.0000
  C   C3        1.0  0.13173000000000004  0.24675000000000005  0.67935  1.0000
  C   C4        1.0  0.37665  0.26317  0.41709999999999997  1.0000
  C   C5        1.0  0.43462999999999985  0.20265999999999995  0.47384  1.0000
  C   C6        1.0  0.3346  0.2629  0.45394000000000007  1.0000
  C   C7        1.0  0.39178  0.20092999999999991  0.51002  1.0000
  C   C8        1.0  0.34175999999999995  0.23194  0.5011  1.0000
  C   C9        1.0  0.29868999999999996  0.23210999999999993  0.5383399999999999  1.0000
  C   C10       1.0  0.26057  0.23312  0.56963  1.0000
  C   C11       1.0  0.15373  0.24833999999999998  0.58219  1.0000
  C   C12       1.0  0.23596999999999999  0.2284  0.66659  1.0000
  C   C13       1.0  0.2169  0.23626  0.60593  1.0000
  C   C14       1.0  0.11170999999999995  0.25328999999999996  0.61851  1.0000
  C   C15       1.0  0.19383  0.23377  0.70269  1.0000
  C   C16       1.0  0.08732999999999999  0.25343  0.71804  1.0000
  C   C17       1.0  0.66813  0.27007  0.26613  1.0000
  C   C18       1.0  0.7101599999999999  0.2632399999999999  0.22453999999999996  1.0000
  C   C19       1.0  0.6848899999999999  0.26541999999999993  0.16217  1.0000
  C   C20       1.0  0.7740499999999999  0.25265999999999994  0.24671999999999997  1.0000
  C   C21       1.0  0.72243  0.25689  0.12219  1.0000
  C   C22       1.0  0.81294  0.24565  0.20774  1.0000
  C   C23       1.0  0.7876299999999998  0.24764999999999998  0.14478  1.0000
  C   C24       1.0  0.8282299999999999  0.2421  0.10578  1.0000
  C   C25       1.0  0.86525  0.24042  0.07346  1.0000
  C   C26       1.0  0.91121  0.24254999999999996  0.0388  1.0000
  C   C27       1.0  0.88596  0.23906999999999987  0.9735899999999998  1.0000
  C   C28       1.0  0.9846399999999998  0.25027  0.07021  1.0000
  C   C29       1.0  0.9333199999999999  0.24377000000000004  0.94148  1.0000
  C   C30       1.0  0.031230000000000004  0.25446  0.03748  1.0000
  C   C31       1.0  0.006099999999999987  0.25138999999999995  0.9728299999999999  1.0000
  C   C32       1.0  0.05648999999999998  0.2558  0.93875  1.0000
  C   C33       1.0  0.6290699999999999  0.09033999999999998  0.38488  1.0000
  C   C34       1.0  0.61605  0.011889999999999961  0.37245  1.0000
  C   C35       1.0  0.65838  0.98423  0.3462  1.0000
  C   C36       1.0  0.5591  0.96412  0.38486  1.0000
  C   C37       1.0  0.64378  0.90966  0.33208  1.0000
  C   C38       1.0  0.54334  0.8891  0.36982  1.0000
  C   C39       1.0  0.5852099999999999  0.8605099999999999  0.34275999999999995  1.0000
  C   C40       1.0  0.56899  0.78413  0.327  1.0000
  C   C41       1.0  0.5552099999999999  0.7184299999999999  0.3152  1.0000
  C   C42       1.0  0.5422400000000002  0.6436500000000002  0.30381  1.0000
  C   C43       1.0  0.50479  0.60471  0.33546  1.0000
  C   C44       1.0  0.5686  0.60784  0.26204  1.0000
  C   C45       1.0  0.49520999999999993  0.53247  0.32616  1.0000
  C   C46       1.0  0.5581699999999999  0.53534  0.2525  1.0000
  C   C47       1.0  0.52179  0.49734999999999996  0.2847  1.0000
  C   C48       1.0  0.5128299999999999  0.42091999999999996  0.2762  1.0000
  C   C49       1.0  0.15164  0.41499  0.88927  1.0000
  C   C50       1.0  0.19277  0.49977  0.92676  1.0000
  C   C51       1.0  0.43332  0.04722  0.17957  1.0000
  C   C52       1.0  0.15346999999999997  0.5406  0.91675  1.0000
  C   C53       1.0  0.2704899999999999  0.53893  0.97308  1.0000
  C   C54       1.0  0.19073999999999988  0.6194199999999999  0.9534499999999999  1.0000
  C   C55       1.0  0.30855  0.61793  0.00925  1.0000
  C   C56       1.0  0.26882  0.65924  0.0005  1.0000
  C   C57       1.0  0.30598  0.73946  0.03795  1.0000
  C   C58       1.0  0.33639  0.8088  0.06942  1.0000
  C   C59       1.0  0.3342099999999999  0.9283899999999999  0.08245  1.0000
  C   C60       1.0  0.43824  0.92993  0.16662  1.0000
  C   C61       1.0  0.36976  0.88869  0.10602  1.0000
  C   C62       1.0  0.36589999999999995  0.00667999999999999  0.11883999999999999  1.0000
  C   C63       1.0  0.46933  0.008169999999999981  0.20276999999999998  1.0000
  C   C64       1.0  0.4653999999999999  0.13029999999999997  0.21808999999999998  1.0000
  C   C65       1.0  0.9960099999999997  0.09802999999999988  0.7649799999999999  1.0000
  C   C66       1.0  0.9608999999999998  0.014269999999999968  0.72371  1.0000
  C   C67       1.0  0.89621  0.9768299999999999  0.66148  1.0000
  C   C68       1.0  0.99371  0.97277  0.7462299999999998  1.0000
  C   C69       1.0  0.86478  0.8992499999999999  0.62196  1.0000
  C   C70       1.0  0.96179  0.89489  0.70768  1.0000
  C   C71       1.0  0.8967699999999998  0.8568599999999998  0.64478  1.0000
  C   C72       1.0  0.86353  0.77726  0.60596  1.0000
  C   C73       1.0  0.8331899999999999  0.7080099999999999  0.5735  1.0000
  C   C74       1.0  0.79653  0.6274399999999999  0.53855  1.0000
  C   C75       1.0  0.7350699999999999  0.5876  0.47322999999999993  1.0000
  C   C76       1.0  0.8201699999999998  0.58528  0.56977  1.0000
  C   C77       1.0  0.6981699999999998  0.5081999999999999  0.44103  1.0000
  C   C78       1.0  0.7831699999999999  0.50607  0.53701  1.0000
  C   C79       1.0  0.7216699999999999  0.46667999999999993  0.47246  1.0000
  C   C80       1.0  0.6830499999999999  0.38226  0.43873  1.0000
  C   C81       1.0  0.2941699999999999  0.2565099999999999  0.8845699999999999  1.0000
  C   C82       1.0  0.36021  0.25674  0.8722399999999999  1.0000
  C   C83       1.0  0.36177999999999993  0.1881699999999999  0.84663  1.0000
  C   C84       1.0  0.4205  0.32578999999999997  0.88436  1.0000
  C   C85       1.0  0.4221899999999999  0.18826999999999994  0.8325799999999999  1.0000
  C   C86       1.0  0.48063999999999996  0.32630999999999993  0.86967  1.0000
  C   C87       1.0  0.48202  0.25727000000000005  0.84295  1.0000
  C   C88       1.0  0.54255  0.25748  0.82718  1.0000
  C   C89       1.0  0.5961  0.25888  0.81502  1.0000
  C   C90       1.0  0.6593999999999999  0.26063  0.80344  1.0000
  C   C91       1.0  0.7299499999999998  0.32966999999999985  0.8357099999999998  1.0000
  C   C92       1.0  0.6534999999999999  0.19295  0.76107  1.0000
  C   C93       1.0  0.7930499999999998  0.3303599999999998  0.8265699999999999  1.0000
  C   C94       1.0  0.71669  0.19432  0.75169  1.0000
  C   C95       1.0  0.7869  0.26283  0.78461  1.0000
  C   C96       1.0  0.8551499999999997  0.26378  0.77646  1.0000
  C   C97       1.0  0.8483599999999998  0.58501  0.11073  1.0000
  C   C98       1.0  0.8072399999999998  0.5002299999999998  0.07324  1.0000
  C   C99       1.0  0.5666899999999999  0.95277  0.8204299999999999  1.0000
  C   C100      1.0  0.8465299999999999  0.4593999999999999  0.08325  1.0000
  C   C101      1.0  0.7295199999999998  0.46105999999999997  0.02692  1.0000
  C   C102      1.0  0.8092599999999999  0.38058  0.04655  1.0000
  C   C103      1.0  0.6914499999999998  0.38207  0.99075  1.0000
  C   C104      1.0  0.73119  0.34075999999999995  0.9995  1.0000
  C   C105      1.0  0.69403  0.2605399999999999  0.96205  1.0000
  C   C106      1.0  0.66362  0.19120000000000004  0.93058  1.0000
  C   C107      1.0  0.6657900000000001  0.07161000000000006  0.91755  1.0000
  C   C108      1.0  0.56177  0.07006999999999991  0.83338  1.0000
  C   C109      1.0  0.6302499999999998  0.11130999999999985  0.8939799999999999  1.0000
  C   C110      1.0  0.6340999999999999  0.99332  0.88116  1.0000
  C   C111      1.0  0.5306799999999999  0.9918299999999999  0.79723  1.0000
  C   C112      1.0  0.5345999999999999  0.8696899999999999  0.7819099999999999  1.0000
  C   C113      1.0  0.003999999999999987  0.9019699999999999  0.23501999999999998  1.0000
  C   C114      1.0  0.039109999999999985  0.9857199999999999  0.27629  1.0000
  C   C115      1.0  0.1038  0.023170000000000014  0.33852  1.0000
  C   C116      1.0  0.006289999999999998  0.027229999999999997  0.25377  1.0000
  C   C117      1.0  0.13522999999999996  0.10074999999999998  0.37804  1.0000
  C   C118      1.0  0.038209999999999994  0.10511  0.29232  1.0000
  C   C119      1.0  0.10324  0.14313999999999996  0.35522  1.0000
  C   C120      1.0  0.13647999999999988  0.22273999999999994  0.39403999999999995  1.0000
  C   C121      1.0  0.16681  0.29199  0.4265  1.0000
  C   C122      1.0  0.20347999999999997  0.37255  0.46144999999999997  1.0000
  C   C123      1.0  0.26493999999999995  0.41239  0.52677  1.0000
  C   C124      1.0  0.17984  0.41471  0.43023  1.0000
  C   C125      1.0  0.30183999999999994  0.4918  0.5589699999999999  1.0000
  C   C126      1.0  0.21684  0.49393  0.46299  1.0000
  C   C127      1.0  0.27834  0.53332  0.52754  1.0000
  C   C128      1.0  0.31695999999999996  0.6177399999999998  0.56127  1.0000
  C   C129      1.0  0.7058299999999997  0.74349  0.11543  1.0000
  C   C130      1.0  0.6397899999999999  0.74326  0.12776  1.0000
  C   C131      1.0  0.6382199999999999  0.8118299999999998  0.15336999999999998  1.0000
  C   C132      1.0  0.57951  0.6742  0.11563999999999999  1.0000
  C   C133      1.0  0.5778099999999999  0.8117299999999998  0.16742  1.0000
  C   C134      1.0  0.51937  0.67369  0.13033  1.0000
  C   C135      1.0  0.51799  0.74272  0.15705  1.0000
  C   C136      1.0  0.45745999999999987  0.7425199999999998  0.17282  1.0000
  C   C137      1.0  0.4039  0.74112  0.18498  1.0000
  C   C138      1.0  0.34059999999999996  0.73937  0.19656  1.0000
  C   C139      1.0  0.27006  0.67033  0.16429  1.0000
  C   C140      1.0  0.3464999999999999  0.8070399999999999  0.23893  1.0000
  C   C141      1.0  0.20696  0.66964  0.17343  1.0000
  C   C142      1.0  0.28331  0.80568  0.24830999999999998  1.0000
  C   C143      1.0  0.21311  0.73717  0.21539000000000003  1.0000
  C   C144      1.0  0.14485999999999993  0.7362199999999999  0.22353999999999996  1.0000
  C   C145      1.0  0.52512  0.76306  0.61008  1.0000
  C   C146      1.0  0.5725799999999999  0.7662199999999998  0.57272  1.0000
  C   C147      1.0  0.8682799999999998  0.75324  0.32064999999999994  1.0000
  C   C148      1.0  0.6233500000000001  0.7368300000000001  0.5829  1.0000
  C   C149      1.0  0.56537  0.79733  0.52616  1.0000
  C   C150      1.0  0.6654  0.7370999999999999  0.5460599999999999  1.0000
  C   C151      1.0  0.60823  0.79906  0.48997999999999997  1.0000
  C   C152      1.0  0.65825  0.76806  0.4989  1.0000
  C   C153      1.0  0.7013199999999998  0.76789  0.46165999999999996  1.0000
  C   C154      1.0  0.73944  0.7668799999999999  0.43037  1.0000
  C   C155      1.0  0.8462799999999998  0.75165  0.41781  1.0000
  C   C156      1.0  0.7640299999999997  0.7715999999999998  0.33340999999999993  1.0000
  C   C157      1.0  0.78311  0.76373  0.39407  1.0000
  C   C158      1.0  0.88829  0.7467099999999999  0.38149  1.0000
  C   C159      1.0  0.8061799999999999  0.7662300000000001  0.29731  1.0000
  C   C160      1.0  0.91268  0.74656  0.28196  1.0000
  C   C161      1.0  0.3318799999999999  0.72993  0.73387  1.0000
  C   C162      1.0  0.28984  0.73675  0.77546  1.0000
  C   C163      1.0  0.3151199999999999  0.7345799999999998  0.8378299999999999  1.0000
  C   C164      1.0  0.22595999999999994  0.7473399999999999  0.75328  1.0000
  C   C165      1.0  0.2775799999999998  0.7431099999999999  0.8778099999999999  1.0000
  C   C166      1.0  0.18706999999999993  0.75435  0.79226  1.0000
  C   C167      1.0  0.21237999999999999  0.75235  0.85522  1.0000
  C   C168      1.0  0.17176999999999998  0.7578999999999999  0.89422  1.0000
  C   C169      1.0  0.13476  0.75957  0.92654  1.0000
  C   C170      1.0  0.08879999999999981  0.7574499999999997  0.9611999999999999  1.0000
  C   C171      1.0  0.11403999999999997  0.76092  0.026409999999999996  1.0000
  C   C172      1.0  0.015370000000000017  0.74973  0.92979  1.0000
  C   C173      1.0  0.06669000000000003  0.75623  0.05852  1.0000
  C   C174      1.0  0.9687799999999999  0.74553  0.96252  1.0000
  C   C175      1.0  0.99391  0.74861  0.02717  1.0000
  C   C176      1.0  0.9435199999999999  0.74419  0.06125  1.0000
  C   C177      1.0  0.37094  0.90965  0.61512  1.0000
  C   C178      1.0  0.38395999999999997  0.98811  0.62755  1.0000
  C   C179      1.0  0.34162999999999993  0.015759999999999993  0.6538  1.0000
  C   C180      1.0  0.44090999999999997  0.03588  0.61514  1.0000
  C   C181      1.0  0.35622999999999994  0.09032999999999992  0.6679199999999998  1.0000
  C   C182      1.0  0.4566699999999999  0.1109  0.63018  1.0000
  C   C183      1.0  0.41479999999999995  0.13948999999999995  0.65724  1.0000
  C   C184      1.0  0.43101999999999996  0.21587  0.673  1.0000
  C   C185      1.0  0.44478999999999985  0.28156999999999993  0.6847999999999999  1.0000
  C   C186      1.0  0.4577699999999999  0.35635  0.69619  1.0000
  C   C187      1.0  0.49522  0.39528999999999986  0.66454  1.0000
  C   C188      1.0  0.43139999999999995  0.39214999999999994  0.73796  1.0000
  C   C189      1.0  0.5047999999999999  0.46752999999999995  0.67384  1.0000
  C   C190      1.0  0.44184  0.46466  0.7475  1.0000
  C   C191      1.0  0.4782199999999999  0.50264  0.7153  1.0000
  C   C192      1.0  0.48718  0.57908  0.7238  1.0000
  O   O1        1.0  0.5304200000000001  0.22364  0.41054000000000007  1.0000
  O   O2        1.0  0.4581000000000001  0.25335  0.34028  1.0000
  O   O3        1.0  0.11013000000000003  0.25328999999999996  0.77646  1.0000
  O   O4        1.0  0.027239999999999983  0.25899  0.69452  1.0000
  O   O5        1.0  0.68743  0.25845  0.31845  1.0000
  O   O6        1.0  0.6146199999999999  0.28632  0.24663  1.0000
  O   O7        1.0  0.12046999999999998  0.25799999999999995  0.9656999999999999  1.0000
  O   O8        1.0  0.03500000000000002  0.25682  0.88067  1.0000
  O   O9        1.0  0.59362  0.11659999999999998  0.41314  1.0000
  O   O10       1.0  0.67262  0.13025999999999996  0.36435999999999996  1.0000
  O   O11       1.0  0.5361399999999998  0.38787  0.23756999999999998  1.0000
  O   O12       1.0  0.48407999999999984  0.38885999999999993  0.30937  1.0000
  O   O13       1.0  0.18542000000000003  0.3795999999999999  0.90898  1.0000
  O   O14       1.0  0.08520000000000003  0.38269000000000003  0.8403600000000001  1.0000
  O   O15       1.0  0.52398  0.16621  0.27652  1.0000
  O   O16       1.0  0.43618  0.16662  0.19429  1.0000
  O   O17       1.0  0.06000999999999998  0.13076  0.81711  1.0000
  O   O18       1.0  0.96076  0.13248999999999994  0.7456499999999999  1.0000
  O   O19       1.0  0.70813  0.34525  0.46552  1.0000
  O   O20       1.0  0.6233599999999999  0.34589999999999993  0.38117  1.0000
  O   O21       1.0  0.29524  0.32018  0.91069  1.0000
  O   O22       1.0  0.2345499999999999  0.19262  0.86605  1.0000
  O   O23       1.0  0.8496299999999999  0.20229999999999992  0.7371599999999999  1.0000
  O   O24       1.0  0.9205499999999999  0.32532999999999995  0.8104399999999999  1.0000
  O   O25       1.0  0.8145799999999999  0.6204  0.09102  1.0000
  O   O26       1.0  0.91481  0.6173  0.15964  1.0000
  O   O27       1.0  0.47601999999999994  0.83379  0.72347  1.0000
  O   O28       1.0  0.5638199999999999  0.83338  0.8057099999999999  1.0000
  O   O29       1.0  0.94  0.86924  0.18289  1.0000
  O   O30       1.0  0.039250000000000014  0.86751  0.25434999999999997  1.0000
  O   O31       1.0  0.29188000000000003  0.65475  0.53448  1.0000
  O   O32       1.0  0.37665  0.6541  0.61883  1.0000
  O   O33       1.0  0.7047699999999999  0.67981  0.08931  1.0000
  O   O34       1.0  0.76546  0.80738  0.13394  1.0000
  O   O35       1.0  0.15037999999999999  0.7977  0.26283999999999996  1.0000
  O   O36       1.0  0.07945999999999995  0.6746699999999999  0.18956  1.0000
  O   O37       1.0  0.46959  0.77636  0.5894599999999999  1.0000
  O   O38       1.0  0.54191  0.74665  0.65972  1.0000
  O   O39       1.0  0.88988  0.7467099999999999  0.22353999999999996  1.0000
  O   O40       1.0  0.9727699999999998  0.74101  0.30548  1.0000
  O   O41       1.0  0.31258  0.74154  0.68155  1.0000
  O   O42       1.0  0.38539  0.71367  0.75336  1.0000
  O   O43       1.0  0.8795399999999999  0.742  0.0343  1.0000
  O   O44       1.0  0.96501  0.74318  0.11932999999999999  1.0000
  O   O45       1.0  0.4063899999999999  0.8833999999999999  0.58686  1.0000
  O   O46       1.0  0.32737999999999995  0.86973  0.63564  1.0000
  O   O47       1.0  0.46387  0.6121299999999998  0.7624299999999999  1.0000
  O   O48       1.0  0.5159299999999999  0.61114  0.69063  1.0000
