data_image0
_chemical_formula_structural       Zn8H104C192O40
_chemical_formula_sum              "Zn8 H104 C192 O40"
_cell_length_a       12.61433
_cell_length_b       26.86097
_cell_length_c       26.853780000000004
_cell_angle_alpha    109.31887
_cell_angle_beta     103.54076
_cell_angle_gamma    103.59315999999998

_space_group_name_H-M_alt    "P 1"
_space_group_IT_number       1

loop_
  _space_group_symop_operation_xyz
  'x, y, z'

loop_
  _atom_site_type_symbol
  _atom_site_label
  _atom_site_symmetry_multiplicity
  _atom_site_fract_x
  _atom_site_fract_y
  _atom_site_fract_z
  _atom_site_occupancy
  Zn  Zn1       1.0  0.13622999999999996  0.46913  0.62117  1.0000
  Zn  Zn2       1.0  0.058269999999999995  0.55003  0.69681  1.0000
  Zn  Zn3       1.0  0.36561  0.88112  0.03273000000000001  1.0000
  Zn  Zn4       1.0  0.43906  0.80308  0.95008  1.0000
  Zn  Zn5       1.0  0.4536600000000001  0.6208900000000002  0.46916000000000013  1.0000
  Zn  Zn6       1.0  0.68765  0.69686  0.55011  1.0000
  Zn  Zn7       1.0  0.04373000000000005  0.03162000000000003  0.8796300000000001  1.0000
  Zn  Zn8       1.0  0.8104999999999999  0.94972  0.80299  1.0000
  H   H1        1.0  0.18255  0.028770000000000004  0.6351  1.0000
  H   H2        1.0  0.37587999999999994  0.004730000000000001  0.51617  1.0000
  H   H3        1.0  0.7788699999999997  0.44181  0.72537  1.0000
  H   H4        1.0  0.6437199999999997  0.35724999999999996  0.72388  1.0000
  H   H5        1.0  0.7798999999999998  0.25215  0.616  1.0000
  H   H6        1.0  0.9141199999999998  0.33704  0.6167  1.0000
  H   H7        1.0  0.47705  0.28251000000000004  0.6540900000000001  1.0000
  H   H8        1.0  0.11864  0.14587999999999995  0.62458  1.0000
  H   H9        1.0  0.58183  0.11911  0.66701  1.0000
  H   H10       1.0  0.73168  0.20281  0.67689  1.0000
  H   H11       1.0  0.15220999999999993  0.19376  0.54676  1.0000
  H   H12       1.0  0.10299999999999997  0.27373  0.53092  1.0000
  H   H13       1.0  0.3059799999999999  0.38342999999999994  0.70227  1.0000
  H   H14       1.0  0.35417  0.30369  0.71893  1.0000
  H   H15       1.0  0.42755999999999994  0.9440900000000001  0.5487400000000001  1.0000
  H   H16       1.0  0.429  0.92323  0.71976  1.0000
  H   H17       1.0  0.35651  0.06671999999999996  0.81582  1.0000
  H   H18       1.0  0.3474499999999999  0.09963999999999998  0.74002  1.0000
  H   H19       1.0  0.6108  0.93591  0.69462  1.0000
  H   H20       1.0  0.67148  0.85184  0.67194  1.0000
  H   H21       1.0  0.3729899999999998  0.7634199999999999  0.52101  1.0000
  H   H22       1.0  0.30928  0.84678  0.54534  1.0000
  H   H23       1.0  0.54537  0.94377  0.80635  1.0000
  H   H24       1.0  0.5539799999999998  0.90442  0.87821  1.0000
  H   H25       1.0  0.2849499999999999  0.96466  0.9193  1.0000
  H   H26       1.0  0.27181000000000016  0.0018200000000000575  0.8457000000000002  1.0000
  H   H27       1.0  0.3159899999999999  0.86243  0.47029  1.0000
  H   H28       1.0  0.12455999999999995  0.9833  0.49494000000000005  1.0000
  H   H29       1.0  0.7199699999999998  0.77433  0.05774  1.0000
  H   H30       1.0  0.8564399999999999  0.77636  0.14216  1.0000
  H   H31       1.0  0.7200299999999998  0.8835599999999999  0.2477  1.0000
  H   H32       1.0  0.58442  0.8823799999999998  0.16301  1.0000
  H   H33       1.0  0.02348000000000006  0.84611  0.21728000000000003  1.0000
  H   H34       1.0  0.3805899999999998  0.8737699999999999  0.35353000000000007  1.0000
  H   H35       1.0  0.9173499999999999  0.83266  0.38035  1.0000
  H   H36       1.0  0.7679599999999999  0.8227700000000001  0.29653  1.0000
  H   H37       1.0  0.34715999999999997  0.95308  0.30579  1.0000
  H   H38       1.0  0.39461999999999997  0.9688699999999999  0.22537  1.0000
  H   H39       1.0  0.19301000000000004  0.79714  0.11631  1.0000
  H   H40       1.0  0.14679999999999999  0.78053  0.19652000000000006  1.0000
  H   H41       1.0  0.07095000000000004  0.95057  0.55545  1.0000
  H   H42       1.0  0.06974  0.77947  0.57618  1.0000
  H   H43       1.0  0.14225000000000002  0.6837  0.43254  1.0000
  H   H44       1.0  0.15117  0.7595499999999998  0.39972000000000013  1.0000
  H   H45       1.0  0.8876799999999999  0.8051299999999998  0.5636100000000002  1.0000
  H   H46       1.0  0.8267499999999999  0.8276  0.64762  1.0000
  H   H47       1.0  0.12574999999999997  0.97814  0.73651  1.0000
  H   H48       1.0  0.18987  0.9541799999999999  0.65324  1.0000
  H   H49       1.0  0.95279  0.6927999999999999  0.5551700000000002  1.0000
  H   H50       1.0  0.9447899999999998  0.62137  0.59507  1.0000
  H   H51       1.0  0.21527999999999997  0.58095  0.53565  1.0000
  H   H52       1.0  0.22738  0.65404  0.49776  1.0000
  H   H53       1.0  0.9851999999999997  0.63779  0.029900000000000003  1.0000
  H   H54       1.0  0.6477399999999999  0.51618  0.0051  1.0000
  H   H55       1.0  0.8859399999999998  0.7249  0.44194  1.0000
  H   H56       1.0  0.93674  0.7233  0.35777  1.0000
  H   H57       1.0  0.5877  0.61637  0.25181  1.0000
  H   H58       1.0  0.5375  0.6168099999999999  0.33626000000000006  1.0000
  H   H59       1.0  0.9597799999999999  0.65417  0.28278  1.0000
  H   H60       1.0  0.15354  0.62628  0.14666  1.0000
  H   H61       1.0  0.7047800000000001  0.6674300000000001  0.11954  1.0000
  H   H62       1.0  0.6482999999999999  0.67705  0.20316  1.0000
  H   H63       1.0  0.08685  0.54668  0.19378000000000004  1.0000
  H   H64       1.0  0.19942  0.53033  0.27352  1.0000
  H   H65       1.0  0.28043  0.702  0.38346  1.0000
  H   H66       1.0  0.16980999999999996  0.71908  0.30391  1.0000
  H   H67       1.0  0.56637  0.54849  0.9441500000000002  1.0000
  H   H68       1.0  0.71336  0.71997  0.9236  1.0000
  H   H69       1.0  0.025200000000000042  0.81605  0.06703  1.0000
  H   H70       1.0  0.9916999999999999  0.74023  0.09991  1.0000
  H   H71       1.0  0.51938  0.6946099999999998  0.93635  1.0000
  H   H72       1.0  0.3517899999999999  0.67215  0.85253  1.0000
  H   H73       1.0  0.41099000000000013  0.5214100000000002  0.7634100000000001  1.0000
  H   H74       1.0  0.5821599999999998  0.5452899999999998  0.84659  1.0000
  H   H75       1.0  0.7038700000000001  0.8070100000000001  0.9448600000000003  1.0000
  H   H76       1.0  0.7277699999999999  0.8786899999999999  0.90534  1.0000
  H   H77       1.0  0.09785999999999985  0.9192199999999998  0.9647  1.0000
  H   H78       1.0  0.07455999999999995  0.8456099999999998  0.00193  1.0000
  H   H79       1.0  0.5133099999999999  0.46942999999999996  0.8616  1.0000
  H   H80       1.0  0.8513400000000001  0.4945200000000001  0.98373  1.0000
  H   H81       1.0  0.60975  0.05764999999999999  0.77338  1.0000
  H   H82       1.0  0.5615899999999999  0.1425299999999999  0.77554  1.0000
  H   H83       1.0  0.9112099999999997  0.24681000000000003  0.8829900000000002  1.0000
  H   H84       1.0  0.9587899999999998  0.16167  0.88199  1.0000
  H   H85       1.0  0.53974  0.21690000000000004  0.84564  1.0000
  H   H86       1.0  0.34514000000000006  0.35257  0.8732600000000001  1.0000
  H   H87       1.0  0.7956399999999997  0.38076  0.83358  1.0000
  H   H88       1.0  0.8519500000000001  0.29709  0.8235400000000002  1.0000
  H   H89       1.0  0.41105  0.30584  0.95309  1.0000
  H   H90       1.0  0.29748  0.2261499999999999  0.9692300000000001  1.0000
  H   H91       1.0  0.21967  0.11596000000000004  0.7979400000000001  1.0000
  H   H92       1.0  0.3309499999999999  0.19554000000000002  0.78104  1.0000
  H   H93       1.0  0.93301  0.5553899999999999  0.9513000000000001  1.0000
  H   H94       1.0  0.7857  0.5760300000000003  0.77982  1.0000
  H   H95       1.0  0.4739200000000001  0.43248000000000003  0.6838300000000003  1.0000
  H   H96       1.0  0.50749  0.39963999999999994  0.75967  1.0000
  H   H97       1.0  0.9799799999999999  0.56356  0.8051000000000001  1.0000
  H   H98       1.0  0.1466599999999999  0.6478699999999997  0.82748  1.0000
  H   H99       1.0  0.08671000000000004  0.7364699999999997  0.9781100000000003  1.0000
  H   H100      1.0  0.9165399999999999  0.65281  0.95438  1.0000
  H   H101      1.0  0.7946499999999999  0.55506  0.6927700000000001  1.0000
  H   H102      1.0  0.7703100000000003  0.59491  0.6213300000000002  1.0000
  H   H103      1.0  0.40026  0.53521  0.5812  1.0000
  H   H104      1.0  0.42404000000000003  0.49732999999999994  0.6543200000000001  1.0000
  C   C1        1.0  0.93439  0.44459  0.67042  1.0000
  C   C2        1.0  0.8549000000000001  0.39471000000000006  0.6710300000000001  1.0000
  C   C3        1.0  0.7786499999999997  0.40028  0.70149  1.0000
  C   C4        1.0  0.70262  0.35277  0.70031  1.0000
  C   C5        1.0  0.70103  0.29867  0.66948  1.0000
  C   C6        1.0  0.7803399999999998  0.29363  0.64044  1.0000
  C   C7        1.0  0.8553999999999998  0.34092000000000006  0.6405700000000001  1.0000
  C   C8        1.0  0.61405  0.24888  0.6661900000000001  1.0000
  C   C9        1.0  0.50017  0.24722000000000002  0.6582300000000001  1.0000
  C   C10       1.0  0.4117499999999999  0.19981  0.65237  1.0000
  C   C11       1.0  0.29276  0.19679999999999995  0.64075  1.0000
  C   C12       1.0  0.209  0.14868999999999993  0.63324  1.0000
  C   C13       1.0  0.23879  0.10193  0.63602  1.0000
  C   C14       1.0  0.35232  0.10241  0.64586  1.0000
  C   C15       1.0  0.4410399999999999  0.15186  0.65467  1.0000
  C   C16       1.0  0.55853  0.15477999999999997  0.66406  1.0000
  C   C17       1.0  0.6423099999999997  0.20158  0.66938  1.0000
  C   C18       1.0  0.25835  0.24377999999999994  0.63346  1.0000
  C   C19       1.0  0.18526  0.23532  0.58083  1.0000
  C   C20       1.0  0.15837  0.27977  0.57169  1.0000
  C   C21       1.0  0.2051  0.3336299999999999  0.61518  1.0000
  C   C22       1.0  0.27426999999999996  0.34182  0.66847  1.0000
  C   C23       1.0  0.3006400000000001  0.29738000000000003  0.6776000000000001  1.0000
  C   C24       1.0  0.37692  0.05006000000000001  0.64176  1.0000
  C   C25       1.0  0.38809  0.016779999999999996  0.59233  1.0000
  C   C26       1.0  0.41347999999999996  0.96719  0.58697  1.0000
  C   C27       1.0  0.4260399999999998  0.9488999999999997  0.62988  1.0000
  C   C28       1.0  0.41081  0.98061  0.68077  1.0000
  C   C29       1.0  0.41444000000000003  0.9626699999999999  0.7249200000000002  1.0000
  C   C30       1.0  0.39644000000000007  0.9928900000000002  0.77353  1.0000
  C   C31       1.0  0.37093  0.04266000000000007  0.7781  1.0000
  C   C32       1.0  0.18067999999999998  0.38213  0.60624  1.0000
  C   C33       1.0  0.3659800000000001  0.06116000000000004  0.7357700000000001  1.0000
  C   C34       1.0  0.38573  0.031379999999999984  0.68608  1.0000
  C   C35       1.0  0.4566799999999999  0.89735  0.62083  1.0000
  C   C36       1.0  0.5571999999999999  0.8977199999999999  0.65744  1.0000
  C   C37       1.0  0.5916399999999998  0.8507399999999999  0.64457  1.0000
  C   C38       1.0  0.5263899999999998  0.8025  0.59504  1.0000
  C   C39       1.0  0.4237  0.80095  0.5592200000000002  1.0000
  C   C40       1.0  0.38967000000000007  0.84801  0.57239  1.0000
  C   C41       1.0  0.57174  0.75587  0.57806  1.0000
  C   C42       1.0  0.48608999999999986  0.9468699999999999  0.82995  1.0000
  C   C43       1.0  0.40510000000000007  0.97361  0.8193200000000002  1.0000
  C   C44       1.0  0.49233  0.92558  0.87061  1.0000
  C   C45       1.0  0.4190499999999999  0.9312999999999999  0.90284  1.0000
  C   C46       1.0  0.34135999999999994  0.9599999999999997  0.8942800000000002  1.0000
  C   C47       1.0  0.3343000000000001  0.9807999999999999  0.8528500000000002  1.0000
  C   C48       1.0  0.42195  0.90374  0.9424  1.0000
  C   C49       1.0  0.56354  0.82897  0.05532  1.0000
  C   C50       1.0  0.64364  0.82839  0.10505  1.0000
  C   C51       1.0  0.7203699999999998  0.79823  0.09932  1.0000
  C   C52       1.0  0.7972199999999999  0.7997  0.14676  1.0000
  C   C53       1.0  0.79903  0.83043  0.20095000000000002  1.0000
  C   C54       1.0  0.7193399999999998  0.8591799999999999  0.20614000000000002  1.0000
  C   C55       1.0  0.64354  0.85878  0.15895000000000004  1.0000
  C   C56       1.0  0.8861099999999998  0.83383  0.25073  1.0000
  C   C57       1.0  9.999999999998508e-05  0.84191  0.25251  1.0000
  C   C58       1.0  0.08817000000000004  0.84758  0.29993000000000003  1.0000
  C   C59       1.0  0.20713999999999996  0.8588499999999999  0.30298  1.0000
  C   C60       1.0  0.29038999999999987  0.8657  0.35088  1.0000
  C   C61       1.0  0.26019000000000003  0.86281  0.3975600000000001  1.0000
  C   C62       1.0  0.1467899999999999  0.8535999999999998  0.39716  1.0000
  C   C63       1.0  0.05849000000000006  0.84513  0.3477700000000001  1.0000
  C   C64       1.0  0.9409600000000001  0.83576  0.34478000000000003  1.0000
  C   C65       1.0  0.8574799999999999  0.83051  0.29794  1.0000
  C   C66       1.0  0.24167999999999998  0.8662099999999999  0.25604000000000005  1.0000
  C   C67       1.0  0.31397999999999976  0.9189399999999998  0.26428  1.0000
  C   C68       1.0  0.33987999999999985  0.9280599999999999  0.21962  1.0000
  C   C69       1.0  0.29282  0.88436  0.16588  1.0000
  C   C70       1.0  0.2246799999999999  0.8309699999999998  0.1579  1.0000
  C   C71       1.0  0.19948999999999997  0.8219099999999999  0.20258  1.0000
  C   C72       1.0  0.12165999999999985  0.8576199999999999  0.44939  1.0000
  C   C73       1.0  0.10991999999999996  0.90692  0.48253  1.0000
  C   C74       1.0  0.08513999999999988  0.9123899999999998  0.53233  1.0000
  C   C75       1.0  0.07309000000000007  0.8695800000000001  0.55078  1.0000
  C   C76       1.0  0.08809000000000002  0.81869  0.51894  1.0000
  C   C77       1.0  0.08432000000000005  0.77446  0.53676  1.0000
  C   C78       1.0  0.10224000000000001  0.72589  0.50643  1.0000
  C   C79       1.0  0.12778000000000014  0.72136  0.45665000000000006  1.0000
  C   C80       1.0  0.3163500000000001  0.89294  0.11718000000000002  1.0000
  C   C81       1.0  0.13272999999999996  0.76371  0.4382300000000001  1.0000
  C   C82       1.0  0.11306999999999995  0.8133699999999998  0.46812  1.0000
  C   C83       1.0  0.04243999999999985  0.8786599999999998  0.6024  1.0000
  C   C84       1.0  0.9415500000000001  0.8421400000000001  0.6019300000000001  1.0000
  C   C85       1.0  0.90687  0.85491  0.64887  1.0000
  C   C86       1.0  0.9722699999999997  0.90424  0.69728  1.0000
  C   C87       1.0  0.07514000000000018  0.94001  0.6988900000000001  1.0000
  C   C88       1.0  0.1094300000000002  0.9269900000000001  0.6518600000000001  1.0000
  C   C89       1.0  0.9272100000000001  0.92141  0.7441200000000001  1.0000
  C   C90       1.0  0.01243999999999989  0.6694199999999998  0.55237  1.0000
  C   C91       1.0  0.09363000000000009  0.68014  0.52573  1.0000
  C   C92       1.0  0.006539999999999996  0.62898  0.57393  1.0000
  C   C93       1.0  0.08046000000000002  0.59712  0.5686  1.0000
  C   C94       1.0  0.1583799999999999  0.6057199999999999  0.53996  1.0000
  C   C95       1.0  0.16493999999999998  0.64688  0.51883  1.0000
  C   C96       1.0  0.07795999999999996  0.55788  0.59647  1.0000
  C   C97       1.0  0.6777199999999999  0.66993  0.44415  1.0000
  C   C98       1.0  0.7084199999999999  0.67076  0.3944200000000001  1.0000
  C   C99       1.0  0.82108  0.70111  0.4003200000000001  1.0000
  C   C100      1.0  0.84947  0.6999  0.35303  1.0000
  C   C101      1.0  0.7666399999999999  0.66933  0.29879  1.0000
  C   C102      1.0  0.65286  0.64052  0.2934  1.0000
  C   C103      1.0  0.6243  0.64055  0.34048000000000006  1.0000
  C   C104      1.0  0.80107  0.66617  0.24915  1.0000
  C   C105      1.0  0.9054  0.65828  0.24750000000000005  1.0000
  C   C106      1.0  0.9406299999999997  0.65258  0.2001  1.0000
  C   C107      1.0  0.04523000000000002  0.64121  0.19712000000000005  1.0000
  C   C108      1.0  0.07404999999999987  0.63438  0.14925  1.0000
  C   C109      1.0  0.0004500000000000033  0.63728  0.10253  1.0000
  C   C110      1.0  0.8964700000000001  0.64636  0.10277000000000001  1.0000
  C   C111      1.0  0.8658  0.65494  0.15218  1.0000
  C   C112      1.0  0.76062  0.66431  0.15513  1.0000
  C   C113      1.0  0.72884  0.66946  0.20189  1.0000
  C   C114      1.0  0.119  0.63355  0.24392000000000003  1.0000
  C   C115      1.0  0.12993999999999983  0.5806999999999998  0.23536  1.0000
  C   C116      1.0  0.19162999999999997  0.57127  0.27973000000000003  1.0000
  C   C117      1.0  0.24285000000000004  0.61476  0.33364000000000005  1.0000
  C   C118      1.0  0.23620999999999995  0.6682199999999999  0.34186000000000005  1.0000
  C   C119      1.0  0.17500999999999997  0.67762  0.29751  1.0000
  C   C120      1.0  0.81507  0.64208  0.05043  1.0000
  C   C121      1.0  0.7214099999999999  0.59259  0.01724  1.0000
  C   C122      1.0  0.6412100000000002  0.5869400000000001  0.9674300000000002  1.0000
  C   C123      1.0  0.6526900000000001  0.6298300000000001  0.9490800000000003  1.0000
  C   C124      1.0  0.7501699999999999  0.68084  0.9808600000000002  1.0000
  C   C125      1.0  0.7725  0.72506  0.9630000000000001  1.0000
  C   C126      1.0  0.8691499999999998  0.7737  0.99322  1.0000
  C   C127      1.0  0.94913  0.77832  0.04296  1.0000
  C   C128      1.0  0.30649999999999994  0.60561  0.38209000000000004  1.0000
  C   C129      1.0  0.9305299999999999  0.73599  0.06142  1.0000
  C   C130      1.0  0.83152  0.68627  0.03162  1.0000
  C   C131      1.0  0.56113  0.62077  0.89758  1.0000
  C   C132      1.0  0.49753  0.65743  0.89811  1.0000
  C   C133      1.0  0.40315  0.64474  0.85123  1.0000
  C   C134      1.0  0.37051999999999996  0.59534  0.80281  1.0000
  C   C135      1.0  0.43595999999999996  0.55951  0.80108  1.0000
  C   C136      1.0  0.5302  0.57245  0.84806  1.0000
  C   C137      1.0  0.26152  0.57829  0.75607  1.0000
  C   C138      1.0  0.78974  0.8303499999999999  0.9476600000000001  1.0000
  C   C139      1.0  0.8868299999999999  0.8195400000000002  0.9740400000000001  1.0000
  C   C140      1.0  0.80289  0.87094  0.9263  1.0000
  C   C141      1.0  0.9139499999999998  0.9028699999999998  0.93162  1.0000
  C   C142      1.0  0.011849999999999992  0.8943099999999999  0.96023  1.0000
  C   C143      1.0  0.9983000000000001  0.8529199999999998  0.98106  1.0000
  C   C144      1.0  0.9221900000000002  0.9419100000000001  0.9035100000000003  1.0000
  C   C145      1.0  0.81627  0.05407999999999999  0.82814  1.0000
  C   C146      1.0  0.7873300000000001  0.10425000000000005  0.8276800000000002  1.0000
  C   C147      1.0  0.6752799999999998  0.09904999999999997  0.79739  1.0000
  C   C148      1.0  0.6483600000000002  0.14674000000000012  0.7989900000000001  1.0000
  C   C149      1.0  0.7320500000000001  0.20073000000000002  0.8300000000000001  1.0000
  C   C150      1.0  0.84533  0.20541999999999994  0.85866  1.0000
  C   C151      1.0  0.8724200000000002  0.15794000000000002  0.8582500000000001  1.0000
  C   C152      1.0  0.6985800000000001  0.25072000000000005  0.8338100000000002  1.0000
  C   C153      1.0  0.5942299999999999  0.2523100000000001  0.8417400000000003  1.0000
  C   C154      1.0  0.5590299999999998  0.2996999999999999  0.84761  1.0000
  C   C155      1.0  0.45423000000000013  0.3024800000000001  0.8588500000000001  1.0000
  C   C156      1.0  0.4248300000000001  0.35011000000000003  0.8653200000000001  1.0000
  C   C157      1.0  0.49791  0.39676  0.86204  1.0000
  C   C158      1.0  0.6026499999999999  0.3969399999999999  0.85365  1.0000
  C   C159      1.0  0.6339799999999998  0.34776  0.84548  1.0000
  C   C160      1.0  0.73953  0.34503  0.83641  1.0000
  C   C161      1.0  0.77119  0.29821  0.8309800000000003  1.0000
  C   C162      1.0  0.38039  0.25561  0.86642  1.0000
  C   C163      1.0  0.36845999999999995  0.26423  0.91912  1.0000
  C   C164      1.0  0.30604000000000003  0.21992000000000006  0.9283900000000002  1.0000
  C   C165      1.0  0.2552000000000001  0.16607000000000008  0.8848900000000002  1.0000
  C   C166      1.0  0.2633099999999999  0.15763999999999995  0.83162  1.0000
  C   C167      1.0  0.32504  0.20197999999999994  0.82239  1.0000
  C   C168      1.0  0.68382  0.44932  0.85788  1.0000
  C   C169      1.0  0.7772999999999998  0.48259999999999986  0.90742  1.0000
  C   C170      1.0  0.8580199999999999  0.5322  0.91291  1.0000
  C   C171      1.0  0.84664  0.5504600000000001  0.86993  1.0000
  C   C172      1.0  0.7489799999999998  0.5187400000000001  0.8189700000000001  1.0000
  C   C173      1.0  0.72659  0.53661  0.77475  1.0000
  C   C174      1.0  0.6298399999999997  0.50637  0.72616  1.0000
  C   C175      1.0  0.54997  0.45659  0.7215500000000001  1.0000
  C   C176      1.0  0.18964000000000003  0.11771000000000005  0.8934100000000001  1.0000
  C   C177      1.0  0.56863  0.43813  0.76387  1.0000
  C   C178      1.0  0.66759  0.46799  0.81358  1.0000
  C   C179      1.0  0.93802  0.60204  0.8789400000000002  1.0000
  C   C180      1.0  0.0015200000000002239  0.6017700000000002  0.8422400000000001  1.0000
  C   C181      1.0  0.0952700000000001  0.6489100000000002  0.8548800000000001  1.0000
  C   C182      1.0  0.12736000000000003  0.69732  0.90421  1.0000
  C   C183      1.0  0.062069999999999924  0.6987799999999998  0.94008  1.0000
  C   C184      1.0  0.9684799999999996  0.65152  0.92722  1.0000
  C   C185      1.0  0.23615999999999993  0.7441599999999999  0.92118  1.0000
  C   C186      1.0  0.70871  0.5522900000000001  0.6696000000000001  1.0000
  C   C187      1.0  0.61178  0.52566  0.68042  1.0000
  C   C188      1.0  0.69536  0.57381  0.62915  1.0000
  C   C189      1.0  0.58421  0.56848  0.5974  1.0000
  C   C190      1.0  0.4863799999999999  0.53968  0.60596  1.0000
  C   C191      1.0  0.5002  0.51858  0.64715  1.0000
  C   C192      1.0  0.57555  0.5965700000000002  0.55834  1.0000
  O   O1        1.0  0.14875  0.05553  0.62659  1.0000
  O   O2        1.0  0.3747899999999999  0.033839999999999974  0.54917  1.0000
  O   O3        1.0  0.9432099999999998  0.49405000000000004  0.7046500000000001  1.0000
  O   O4        1.0  0.9901999999999999  0.43704  0.6364  1.0000
  O   O5        1.0  0.09968999999999997  0.37639999999999996  0.5646400000000001  1.0000
  O   O6        1.0  0.24414999999999998  0.4319099999999999  0.64521  1.0000
  O   O7        1.0  0.5169099999999999  0.71316  0.53142  1.0000
  O   O8        1.0  0.67224  0.7602  0.60881  1.0000
  O   O9        1.0  0.48291999999999985  0.8712499999999997  0.9395600000000001  1.0000
  O   O10       1.0  0.3639699999999999  0.9122099999999997  0.97598  1.0000
  O   O11       1.0  0.34969999999999996  0.8712499999999997  0.44364000000000003  1.0000
  O   O12       1.0  0.12208999999999987  0.94982  0.46510000000000007  1.0000
  O   O13       1.0  0.55393  0.79468  0.0058  1.0000
  O   O14       1.0  0.50806  0.86314  0.0631  1.0000
  O   O15       1.0  0.3975599999999999  0.9346399999999999  0.12274  1.0000
  O   O16       1.0  0.2534899999999999  0.8540499999999998  0.06751  1.0000
  O   O17       1.0  0.98325  0.9677400000000002  0.78697  1.0000
  O   O18       1.0  0.8260799999999998  0.89109  0.7397  1.0000
  O   O19       1.0  0.015740000000000032  0.56035  0.6284800000000001  1.0000
  O   O20       1.0  0.13757000000000003  0.52504  0.58879  1.0000
  O   O21       1.0  0.036289999999999996  0.62892  0.056630000000000014  1.0000
  O   O22       1.0  0.70895  0.54968  0.03467  1.0000
  O   O23       1.0  0.7511499999999999  0.70537  0.49348000000000003  1.0000
  O   O24       1.0  0.5821499999999998  0.6346399999999999  0.43678  1.0000
  O   O25       1.0  0.33851999999999993  0.56357  0.37628000000000006  1.0000
  O   O26       1.0  0.33313999999999994  0.6449599999999999  0.43191  1.0000
  O   O27       1.0  0.22769000000000003  0.53169  0.71339  1.0000
  O   O28       1.0  0.19550999999999996  0.60878  0.76019  1.0000
  O   O29       1.0  0.8253500000000001  0.93821  0.8706700000000002  1.0000
  O   O30       1.0  0.021710000000000014  0.97571  0.91181  1.0000
  O   O31       1.0  0.46051  0.44201999999999997  0.86908  1.0000
  O   O32       1.0  0.78881  0.46538  0.95049  1.0000
  O   O33       1.0  0.74281  0.00481000000000004  0.7926200000000001  1.0000
  O   O34       1.0  0.91113  0.060869999999999994  0.86355  1.0000
  O   O35       1.0  0.15388000000000016  0.12364000000000012  0.9345200000000002  1.0000
  O   O36       1.0  0.16472000000000003  0.06787999999999997  0.8547100000000001  1.0000
  O   O37       1.0  0.2699099999999999  0.78717  0.96745  1.0000
  O   O38       1.0  0.3023700000000002  0.73963  0.8907500000000002  1.0000
  O   O39       1.0  0.67221  0.6291  0.56141  1.0000
  O   O40       1.0  0.47576  0.58837  0.52492  1.0000
