data_image0
_chemical_formula_structural       Y8H88C168N16O60
_chemical_formula_sum              "Y8 H88 C168 N16 O60"
_cell_length_a       10.51056
_cell_length_b       21.23551
_cell_length_c       21.23697
_cell_angle_alpha    86.43629999999999
_cell_angle_beta     75.66216999999999
_cell_angle_gamma    75.68113

_space_group_name_H-M_alt    "P 1"
_space_group_IT_number       1

loop_
  _space_group_symop_operation_xyz
  'x, y, z'

loop_
  _atom_site_type_symbol
  _atom_site_label
  _atom_site_symmetry_multiplicity
  _atom_site_fract_x
  _atom_site_fract_y
  _atom_site_fract_z
  _atom_site_occupancy
  Y   Y1        1.0  0.35389000000000004  0.79278  0.42608  1.0000
  Y   Y2        1.0  0.5722200000000001  0.20722  0.57412  1.0000
  Y   Y3        1.0  0.8528100000000001  0.57384  0.7928200000000001  1.0000
  Y   Y4        1.0  0.21886000000000005  0.42615  0.20716  1.0000
  Y   Y5        1.0  0.39652000000000004  0.0731  0.70806  1.0000
  Y   Y6        1.0  0.17687999999999987  0.9269500000000002  0.29208  1.0000
  Y   Y7        1.0  0.8964500000000002  0.70795  0.9269300000000001  1.0000
  Y   Y8        1.0  0.5311500000000001  0.29225  0.07313  1.0000
  H   H1        1.0  0.6756100000000003  0.7078200000000001  0.28217  1.0000
  H   H2        1.0  0.85  0.65974  0.16668  1.0000
  H   H3        1.0  0.3506000000000001  0.08165  0.33761  1.0000
  H   H4        1.0  0.38539000000000007  0.63757  0.3857  1.0000
  H   H5        1.0  0.55289  0.53104  0.35485  1.0000
  H   H6        1.0  0.79643  0.52172  0.35266  1.0000
  H   H7        1.0  0.97481  0.57509  0.37002  1.0000
  H   H8        1.0  0.03303000000000003  0.67124  0.40491  1.0000
  H   H9        1.0  0.9588600000000003  0.78563  0.44859  1.0000
  H   H10       1.0  0.7674900000000001  0.88325  0.48519  1.0000
  H   H11       1.0  0.5356599999999999  0.8826700000000001  0.47514  1.0000
  H   H12       1.0  0.6662699999999999  0.29268  0.71784  1.0000
  H   H13       1.0  0.6760699999999998  0.34089  0.83347  1.0000
  H   H14       1.0  0.7707000000000005  0.91788  0.66258  1.0000
  H   H15       1.0  0.40831999999999996  0.36277000000000004  0.61399  1.0000
  H   H16       1.0  0.43881  0.46915  0.64512  1.0000
  H   H17       1.0  0.67105  0.47816  0.64743  1.0000
  H   H18       1.0  0.9197800000000002  0.42466  0.63012  1.0000
  H   H19       1.0  0.10889  0.32846  0.59511  1.0000
  H   H20       1.0  0.19243000000000005  0.21422  0.55142  1.0000
  H   H21       1.0  0.13534  0.11646000000000001  0.51495  1.0000
  H   H22       1.0  0.89279  0.11722999999999999  0.52466  1.0000
  H   H23       1.0  0.61636  0.71792  0.70734  1.0000
  H   H24       1.0  0.4892500000000002  0.8336100000000001  0.65975  1.0000
  H   H25       1.0  0.5680400000000001  0.66255  0.08217  1.0000
  H   H26       1.0  0.9770599999999998  0.61417  0.63766  1.0000
  H   H27       1.0  0.9161900000000001  0.64523  0.53098  1.0000
  H   H28       1.0  0.6819800000000003  0.64744  0.52165  1.0000
  H   H29       1.0  0.4502800000000002  0.62997  0.57489  1.0000
  H   H30       1.0  0.2959100000000001  0.59486  0.67099  1.0000
  H   H31       1.0  0.25512  0.55148  0.78544  1.0000
  H   H32       1.0  0.34834  0.51486  0.88332  1.0000
  H   H33       1.0  0.58113  0.52446  0.88271  1.0000
  H   H34       1.0  0.04103999999999998  0.28201  0.29284  1.0000
  H   H35       1.0  0.98207  0.1663  0.34071  1.0000
  H   H36       1.0  0.31198000000000004  0.33783  0.91805  1.0000
  H   H37       1.0  0.22827000000000006  0.38604  0.36232  1.0000
  H   H38       1.0  0.09210000000000006  0.3548  0.46894  1.0000
  H   H39       1.0  0.85075  0.35249  0.47839  1.0000
  H   H40       1.0  0.6548700000000001  0.36969  0.42512  1.0000
  H   H41       1.0  0.5614499999999999  0.40457  0.329  1.0000
  H   H42       1.0  0.5916400000000003  0.44830000000000003  0.21451000000000003  1.0000
  H   H43       1.0  0.7460700000000001  0.48519000000000007  0.11677000000000001  1.0000
  H   H44       1.0  0.98779  0.47557  0.11737999999999998  1.0000
  H   H45       1.0  0.06974  0.21861999999999998  0.79392  1.0000
  H   H46       1.0  0.89552  0.33437  0.84085  1.0000
  H   H47       1.0  0.39957999999999994  0.16322  0.42041000000000006  1.0000
  H   H48       1.0  0.36463000000000007  0.11408  0.8629799999999999  1.0000
  H   H49       1.0  0.19652  0.14535  0.96933  1.0000
  H   H50       1.0  0.95301  0.14772  0.9782999999999998  1.0000
  H   H51       1.0  0.7748500000000001  0.13062  0.92468  1.0000
  H   H52       1.0  0.71723  0.0954  0.8285  1.0000
  H   H53       1.0  0.7915000000000001  0.05188000000000001  0.71421  1.0000
  H   H54       1.0  0.9830700000000002  0.014730000000000002  0.61675  1.0000
  H   H55       1.0  0.21560000000000015  0.02333  0.61801  1.0000
  H   H56       1.0  0.08259  0.78126  0.20610999999999996  1.0000
  H   H57       1.0  0.07087000000000003  0.66539  0.15935  1.0000
  H   H58       1.0  0.98404  0.83685  0.57939  1.0000
  H   H59       1.0  0.3412  0.88617  0.13703  1.0000
  H   H60       1.0  0.3108000000000001  0.85487  0.03066  1.0000
  H   H61       1.0  0.07865000000000004  0.8523199999999999  0.02177  1.0000
  H   H62       1.0  0.82975  0.86937  0.07548  1.0000
  H   H63       1.0  0.64086  0.90452  0.17164  1.0000
  H   H64       1.0  0.55734  0.94797  0.286  1.0000
  H   H65       1.0  0.61434  0.98496  0.38353  1.0000
  H   H66       1.0  0.8566500000000001  0.9766900000000001  0.38212  1.0000
  H   H67       1.0  0.13452999999999998  0.79394  0.78102  1.0000
  H   H68       1.0  0.26306999999999997  0.8404600000000001  0.66507  1.0000
  H   H69       1.0  0.17859999999999993  0.42060000000000003  0.83694  1.0000
  H   H70       1.0  0.7728600000000002  0.8631700000000001  0.88655  1.0000
  H   H71       1.0  0.8345700000000003  0.9695000000000001  0.8549500000000001  1.0000
  H   H72       1.0  0.06936000000000002  0.97846  0.8521400000000001  1.0000
  H   H73       1.0  0.3014299999999999  0.92475  0.86903  1.0000
  H   H74       1.0  0.45528000000000024  0.8285699999999999  0.9041399999999999  1.0000
  H   H75       1.0  0.4953500000000002  0.71414  0.94787  1.0000
  H   H76       1.0  0.40121999999999997  0.61666  0.9851500000000001  1.0000
  H   H77       1.0  0.16742000000000012  0.61787  0.97657  1.0000
  H   H78       1.0  0.7109  0.20728000000000002  0.21889  1.0000
  H   H79       1.0  0.7687400000000001  0.16025  0.33494  1.0000
  H   H80       1.0  0.43645  0.57969  0.16324  1.0000
  H   H81       1.0  0.52214  0.13686  0.11348  1.0000
  H   H82       1.0  0.65853  0.03055  0.14511  1.0000
  H   H83       1.0  0.8994700000000001  0.0216  0.1479  1.0000
  H   H84       1.0  0.09478000000000002  0.07525  0.13092  1.0000
  H   H85       1.0  0.18765  0.17143  0.09578  1.0000
  H   H86       1.0  0.15698000000000004  0.28591  0.05224  1.0000
  H   H87       1.0  0.0027899999999999978  0.38335  0.0148  1.0000
  H   H88       1.0  0.76192  0.38196  0.02298  1.0000
  C   C1        1.0  0.46765000000000023  0.82419  0.26049  1.0000
  C   C2        1.0  0.5841400000000001  0.7804600000000002  0.21846000000000002  1.0000
  C   C3        1.0  0.6756200000000002  0.72657  0.23368999999999998  1.0000
  C   C4        1.0  0.76567  0.7020800000000001  0.1744  1.0000
  C   C5        1.0  0.72522  0.74277  0.12608  1.0000
  C   C6        1.0  0.78747  0.74078  0.05582  1.0000
  C   C7        1.0  0.34045000000000003  0.9533000000000001  0.39814  1.0000
  C   C8        1.0  0.35582  0.014730000000000002  0.42015  1.0000
  C   C9        1.0  0.36213  0.07225  0.38686  1.0000
  C   C10       1.0  0.49162  0.63146  0.38515  1.0000
  C   C11       1.0  0.58642  0.57206  0.36742  1.0000
  C   C12       1.0  0.7206699999999998  0.56702  0.36625  1.0000
  C   C13       1.0  0.7603200000000001  0.6214  0.38317  1.0000
  C   C14       1.0  0.89701  0.61971  0.38428  1.0000
  C   C15       1.0  0.92936  0.67291  0.40344  1.0000
  C   C16       1.0  0.8280100000000001  0.73184  0.42247999999999997  1.0000
  C   C17       1.0  0.85605  0.78671  0.44579  1.0000
  C   C18       1.0  0.7511000000000002  0.84076  0.46542  1.0000
  C   C19       1.0  0.6203400000000001  0.8408399999999999  0.46017  1.0000
  C   C20       1.0  0.69228  0.73585  0.41978  1.0000
  C   C21       1.0  0.6574699999999999  0.67953  0.40059999999999996  1.0000
  C   C22       1.0  0.55456  0.17577  0.73933  1.0000
  C   C23       1.0  0.58429  0.21974  0.78147  1.0000
  C   C24       1.0  0.6364200000000001  0.27387  0.76631  1.0000
  C   C25       1.0  0.6420800000000001  0.29848  0.8256600000000001  1.0000
  C   C26       1.0  0.5940999999999999  0.25767  0.8739200000000001  1.0000
  C   C27       1.0  0.5834599999999999  0.25968  0.94422  1.0000
  C   C28       1.0  0.69159  0.04655  0.60212  1.0000
  C   C29       1.0  0.79034  0.9851  0.58004  1.0000
  C   C30       1.0  0.8215400000000002  0.92759  0.6133  1.0000
  C   C31       1.0  0.50793  0.3688  0.61454  1.0000
  C   C32       1.0  0.5258200000000001  0.4281  0.63246  1.0000
  C   C33       1.0  0.65393  0.43296999999999997  0.63369  1.0000
  C   C34       1.0  0.7646900000000001  0.37854  0.61668  1.0000
  C   C35       1.0  0.9008  0.38011  0.61571  1.0000
  C   C36       1.0  0.005390000000000006  0.32688  0.59653  1.0000
  C   C37       1.0  0.9818200000000002  0.26803  0.57738  1.0000
  C   C38       1.0  0.08793999999999996  0.21311  0.55416  1.0000
  C   C39       1.0  0.056699999999999987  0.15902  0.53456  1.0000
  C   C40       1.0  0.9207599999999999  0.15905  0.53961  1.0000
  C   C41       1.0  0.8474200000000001  0.26413  0.5799  1.0000
  C   C42       1.0  0.7372299999999999  0.32051  0.59909  1.0000
  C   C43       1.0  0.71014  0.73942  0.82321  1.0000
  C   C44       1.0  0.6366100000000005  0.78145  0.77973  1.0000
  C   C45       1.0  0.5980800000000002  0.76634  0.72609  1.0000
  C   C46       1.0  0.5318799999999999  0.82569  0.7019  1.0000
  C   C47       1.0  0.5321300000000001  0.87387  0.74256  1.0000
  C   C48       1.0  0.47192000000000006  0.94412  0.74061  1.0000
  C   C49       1.0  0.7055799999999999  0.60238  0.95335  1.0000
  C   C50       1.0  0.6295700000000002  0.58031  0.01502  1.0000
  C   C51       1.0  0.5656800000000002  0.61341  0.07257  1.0000
  C   C52       1.0  0.8770000000000001  0.61475  0.63145  1.0000
  C   C53       1.0  0.84165  0.6326  0.57202  1.0000
  C   C54       1.0  0.7124600000000001  0.63376  0.56695  1.0000
  C   C55       1.0  0.61841  0.61671  0.6213  1.0000
  C   C56       1.0  0.48344999999999994  0.6156  0.61953  1.0000
  C   C57       1.0  0.39787999999999996  0.59633  0.6727  1.0000
  C   C58       1.0  0.44013  0.57729  0.73169  1.0000
  C   C59       1.0  0.35690000000000005  0.55412  0.7866100000000001  1.0000
  C   C60       1.0  0.40753  0.53448  0.84077  1.0000
  C   C61       1.0  0.53838  0.5395  0.84084  1.0000
  C   C62       1.0  0.5718600000000001  0.57989  0.73576  1.0000
  C   C63       1.0  0.6630600000000002  0.59916  0.67946  1.0000
  C   C64       1.0  0.2712200000000001  0.26061  0.17676  1.0000
  C   C65       1.0  0.1963699999999999  0.21844000000000002  0.22022000000000003  1.0000
  C   C66       1.0  0.08963999999999998  0.23357  0.27409  1.0000
  C   C67       1.0  0.05853000000000002  0.17425  0.29839  1.0000
  C   C68       1.0  0.1469200000000001  0.12607  0.25751  1.0000
  C   C69       1.0  0.15472000000000002  0.05586  0.2595  1.0000
  C   C70       1.0  0.2607900000000001  0.39823  0.04676  1.0000
  C   C71       1.0  0.22400000000000006  0.42019  0.98517  1.0000
  C   C72       1.0  0.25077000000000027  0.38695000000000007  0.92768  1.0000
  C   C73       1.0  0.12262999999999996  0.38539  0.36853  1.0000
  C   C74       1.0  0.04581000000000001  0.36747  0.42797  1.0000
  C   C75       1.0  0.9127400000000002  0.36622  0.43306999999999995  1.0000
  C   C76       1.0  0.8559600000000002  0.38319  0.37873  1.0000
  C   C77       1.0  0.71822  0.3841  0.38047  1.0000
  C   C78       1.0  0.66657  0.40322  0.32728  1.0000
  C   C79       1.0  0.7486500000000001  0.42241  0.26829  1.0000
  C   C80       1.0  0.6972  0.44566  0.21339  1.0000
  C   C81       1.0  0.7823  0.46545  0.15928  1.0000
  C   C82       1.0  0.91822  0.46045  0.15921  1.0000
  C   C83       1.0  0.8869900000000002  0.41993  0.26425  1.0000
  C   C84       1.0  0.9411500000000002  0.40077  0.32056  1.0000
  C   C85       1.0  0.28161  0.2397  0.67785  1.0000
  C   C86       1.0  0.16438  0.28183  0.72158  1.0000
  C   C87       1.0  0.07114000000000001  0.26696  0.775  1.0000
  C   C88       1.0  0.9808200000000002  0.32644  0.7989200000000001  1.0000
  C   C89       1.0  0.022740000000000017  0.37461  0.75848  1.0000
  C   C90       1.0  0.9608800000000001  0.44502  0.76019  1.0000
  C   C91       1.0  0.40874000000000005  0.10115  0.54816  1.0000
  C   C92       1.0  0.39358  0.07996  0.4864  1.0000
  C   C93       1.0  0.38757  0.11399  0.42923  1.0000
  C   C94       1.0  0.25838999999999995  0.11470000000000001  0.86898  1.0000
  C   C95       1.0  0.16326999999999994  0.13269  0.9282600000000001  1.0000
  C   C96       1.0  0.029049999999999975  0.13395  0.93312  1.0000
  C   C97       1.0  0.9897000000000004  0.11689  0.8787  1.0000
  C   C98       1.0  0.85296  0.11601999999999998  0.88021  1.0000
  C   C99       1.0  0.8208900000000001  0.09675  0.82699  1.0000
  C   C100      1.0  0.9225400000000002  0.07738  0.76822  1.0000
  C   C101      1.0  0.8945000000000001  0.05425000000000001  0.71327  1.0000
  C   C102      1.0  0.9996  0.03424  0.65936  1.0000
  C   C103      1.0  0.13067000000000006  0.03874  0.65963  1.0000
  C   C104      1.0  0.0584  0.07964  0.76446  1.0000
  C   C105      1.0  0.09288999999999999  0.09908  0.82075  1.0000
  C   C106      1.0  0.19713999999999995  0.7609400000000001  0.32232  1.0000
  C   C107      1.0  0.16699  0.71823  0.27872  1.0000
  C   C108      1.0  0.11303000000000005  0.73293  0.2251  1.0000
  C   C109      1.0  0.10591999999999994  0.6734100000000001  0.20136000000000004  1.0000
  C   C110      1.0  0.15495999999999996  0.62535  0.24207000000000004  1.0000
  C   C111      1.0  0.16570000000000001  0.55489  0.24053  1.0000
  C   C112      1.0  0.05834000000000003  0.8988500000000001  0.45198  1.0000
  C   C113      1.0  0.9598599999999999  0.92013  0.51364  1.0000
  C   C114      1.0  0.9312500000000001  0.88607  0.57081  1.0000
  C   C115      1.0  0.24165999999999999  0.8854800000000002  0.13101  1.0000
  C   C116      1.0  0.22382000000000002  0.86747  0.07174  1.0000
  C   C117      1.0  0.09572000000000001  0.8661300000000001  0.06693  1.0000
  C   C118      1.0  0.98493  0.88317  0.12137000000000002  1.0000
  C   C119      1.0  0.84884  0.8840000000000001  0.11991  1.0000
  C   C120      1.0  0.7443000000000002  0.90327  0.17314  1.0000
  C   C121      1.0  0.76781  0.92265  0.2319  1.0000
  C   C122      1.0  0.6617500000000001  0.9456700000000001  0.28691  1.0000
  C   C123      1.0  0.69293  0.96562  0.34085  1.0000
  C   C124      1.0  0.82876  0.9612399999999999  0.34051  1.0000
  C   C125      1.0  0.90215  0.92045  0.23562  1.0000
  C   C126      1.0  0.012360000000000027  0.90099  0.1793  1.0000
  C   C127      1.0  0.04294000000000009  0.67703  0.76118  1.0000
  C   C128      1.0  0.11680999999999996  0.7202  0.71827  1.0000
  C   C129      1.0  0.15424  0.77439  0.73282  1.0000
  C   C130      1.0  0.22078999999999996  0.79819  0.67329  1.0000
  C   C131      1.0  0.22135  0.75706  0.62536  1.0000
  C   C132      1.0  0.28049999999999997  0.7594  0.55491  1.0000
  C   C133      1.0  0.0413700000000001  0.54799  0.89907  1.0000
  C   C134      1.0  0.11891000000000007  0.48633  0.92018  1.0000
  C   C135      1.0  0.18217000000000003  0.42927  0.8861200000000001  1.0000
  C   C136      1.0  0.8731400000000001  0.86918  0.8857700000000001  1.0000
  C   C137      1.0  0.9090100000000004  0.9284400000000002  0.86757  1.0000
  C   C138      1.0  0.03850999999999989  0.9332700000000002  0.8660699999999999  1.0000
  C   C139      1.0  0.13237999999999991  0.8788200000000002  0.8830400000000002  1.0000
  C   C140      1.0  0.26773000000000013  0.88028  0.88372  1.0000
  C   C141      1.0  0.35308  0.82702  0.90296  1.0000
  C   C142      1.0  0.31021999999999994  0.76823  0.9224300000000001  1.0000
  C   C143      1.0  0.39325  0.71323  0.9455499999999999  1.0000
  C   C144      1.0  0.34207000000000004  0.65927  0.96561  1.0000
  C   C145      1.0  0.21069999999999994  0.65953  0.96114  1.0000
  C   C146      1.0  0.17802000000000032  0.76449  0.92033  1.0000
  C   C147      1.0  0.08713000000000003  0.82086  0.90101  1.0000
  C   C148      1.0  0.47900000000000004  0.32247  0.23899  1.0000
  C   C149      1.0  0.5518100000000002  0.27881  0.28197  1.0000
  C   C150      1.0  0.66046  0.22573000000000001  0.26729  1.0000
  C   C151      1.0  0.69075  0.20181  0.32688  1.0000
  C   C152      1.0  0.59962  0.24190000000000003  0.37494  1.0000
  C   C153      1.0  0.5910000000000001  0.24028  0.44532999999999995  1.0000
  C   C154      1.0  0.4896000000000001  0.45208  0.101  1.0000
  C   C155      1.0  0.5259  0.51396  0.07994  1.0000
  C   C156      1.0  0.4979399999999999  0.57099  0.11406  1.0000
  C   C157      1.0  0.62766  0.13086  0.11422  1.0000
  C   C158      1.0  0.7045599999999997  0.0716  0.13244  1.0000
  C   C159      1.0  0.8373799999999999  0.06676  0.13394  1.0000
  C   C160      1.0  0.89385  0.12119  0.11688  1.0000
  C   C161      1.0  0.031360000000000006  0.11971  0.11619  1.0000
  C   C162      1.0  0.08272999999999998  0.17296000000000003  0.09693  1.0000
  C   C163      1.0  0.0006200000000000159  0.23174  0.07742  1.0000
  C   C164      1.0  0.05175000000000001  0.28677  0.0544  1.0000
  C   C165      1.0  0.9668100000000001  0.34068  0.03422  1.0000
  C   C166      1.0  0.83136  0.34034  0.03848  1.0000
  C   C167      1.0  0.86263  0.23545  0.07945  1.0000
  C   C168      1.0  0.8086600000000002  0.17913  0.09887  1.0000
  N   N1        1.0  0.5254400000000001  0.6839200000000001  0.40125  1.0000
  N   N2        1.0  0.5912899999999999  0.79035  0.43707  1.0000
  N   N3        1.0  0.61017  0.31629  0.59836  1.0000
  N   N4        1.0  0.8182300000000001  0.20967  0.56249  1.0000
  N   N5        1.0  0.79068  0.59853  0.68388  1.0000
  N   N6        1.0  0.6181799999999997  0.56252  0.79031  1.0000
  N   N7        1.0  0.07246999999999998  0.40156000000000003  0.31613  1.0000
  N   N8        1.0  0.97046  0.4374  0.20972  1.0000
  N   N9        1.0  0.22488999999999998  0.09833  0.81654  1.0000
  N   N10       1.0  0.15974000000000005  0.06172  0.7102  1.0000
  N   N11       1.0  0.13938000000000011  0.90174  0.18348  1.0000
  N   N12       1.0  0.9312800000000003  0.9383900000000001  0.28987  1.0000
  N   N13       1.0  0.9592100000000001  0.8167000000000001  0.90202  1.0000
  N   N14       1.0  0.1309899999999999  0.71018  0.93826  1.0000
  N   N15       1.0  0.67754  0.18334  0.0979  1.0000
  N   N16       1.0  0.77935  0.28971  0.0614  1.0000
  O   O1        1.0  0.39295999999999986  0.8695000000000002  0.23457999999999998  1.0000
  O   O2        1.0  0.45056000000000007  0.8126099999999999  0.32134  1.0000
  O   O3        1.0  0.6125900000000001  0.79056  0.15223  1.0000
  O   O4        1.0  0.73794  0.7807699999999999  0.01582  1.0000
  O   O5        1.0  0.8946099999999999  0.69512  0.03786  1.0000
  O   O6        1.0  0.3496899999999999  0.9040400000000001  0.43516  1.0000
  O   O7        1.0  0.3218099999999999  0.9557600000000002  0.34085  1.0000
  O   O8        1.0  0.49912  0.13047  0.76518  1.0000
  O   O9        1.0  0.58774  0.18735  0.67849  1.0000
  O   O10       1.0  0.5561999999999999  0.20966000000000004  0.8477  1.0000
  O   O11       1.0  0.5337100000000002  0.21969000000000002  0.98419  1.0000
  O   O12       1.0  0.6268  0.30535  0.96228  1.0000
  O   O13       1.0  0.68753  0.09568  0.56491  1.0000
  O   O14       1.0  0.61911  0.04425  0.6597  1.0000
  O   O15       1.0  0.7418400000000002  0.76547  0.8676  1.0000
  O   O16       1.0  0.7371699999999998  0.67853  0.81237  1.0000
  O   O17       1.0  0.59792  0.84763  0.79006  1.0000
  O   O18       1.0  0.4808200000000001  0.9840799999999998  0.7807800000000001  1.0000
  O   O19       1.0  0.4111400000000001  0.96222  0.69472  1.0000
  O   O20       1.0  0.7446  0.56525  0.9042699999999999  1.0000
  O   O21       1.0  0.7218699999999998  0.65971  0.95554  1.0000
  O   O22       1.0  0.37418000000000007  0.23472  0.13269  1.0000
  O   O23       1.0  0.22523  0.32149  0.18751  1.0000
  O   O24       1.0  0.23355999999999996  0.15229  0.2098  1.0000
  O   O25       1.0  0.24332000000000004  0.01591  0.21914  1.0000
  O   O26       1.0  0.06656999999999999  0.03772  0.30558  1.0000
  O   O27       1.0  0.21312000000000003  0.43516  0.096  1.0000
  O   O28       1.0  0.3374000000000001  0.34115  0.04449  1.0000
  O   O29       1.0  0.35611  0.26603  0.63272  1.0000
  O   O30       1.0  0.2993900000000003  0.1787  0.68914  1.0000
  O   O31       1.0  0.13657000000000014  0.34817  0.7113  1.0000
  O   O32       1.0  0.012159999999999923  0.48500000000000004  0.72079  1.0000
  O   O33       1.0  0.85221  0.46335000000000004  0.80506  1.0000
  O   O34       1.0  0.4004599999999999  0.06356  0.59699  1.0000
  O   O35       1.0  0.4261100000000001  0.15867  0.54632  1.0000
  O   O36       1.0  0.25348  0.73541  0.36746  1.0000
  O   O37       1.0  0.16313000000000005  0.8218  0.31082  1.0000
  O   O38       1.0  0.19487  0.65195  0.28917  1.0000
  O   O39       1.0  0.21849000000000002  0.51485  0.27954  1.0000
  O   O40       1.0  0.11938000000000004  0.53659  0.196  1.0000
  O   O41       1.0  0.062059999999999914  0.9364000000000001  0.40312  1.0000
  O   O42       1.0  0.13140000000000004  0.84135  0.45396  1.0000
  O   O43       1.0  0.01204000000000002  0.63189  0.73582  1.0000
  O   O44       1.0  0.015060000000000002  0.68909  0.8219000000000001  1.0000
  O   O45       1.0  0.15623  0.70935  0.65204  1.0000
  O   O46       1.0  0.26853000000000005  0.72035  0.5147  1.0000
  O   O47       1.0  0.3432699999999999  0.80465  0.53663  1.0000
  O   O48       1.0  0.000490000000000062  0.5968  0.9365699999999999  1.0000
  O   O49       1.0  0.025340000000000005  0.54609  0.8416800000000001  1.0000
  O   O50       1.0  0.37737000000000004  0.36762  0.26426  1.0000
  O   O51       1.0  0.52545  0.31107  0.1782  1.0000
  O   O52       1.0  0.5122000000000002  0.28888  0.34831  1.0000
  O   O53       1.0  0.49982000000000004  0.27941  0.48538  1.0000
  O   O54       1.0  0.6819800000000003  0.19571000000000002  0.46353000000000005  1.0000
  O   O55       1.0  0.5369700000000002  0.40323000000000003  0.0636  1.0000
  O   O56       1.0  0.41309  0.45388000000000006  0.15817  1.0000
  O   O57       1.0  0.37454000000000004  0.01882  0.48154  1.0000
  O   O58       1.0  0.8743500000000007  0.9811399999999999  0.51855  1.0000
  O   O59       1.0  0.6065300000000001  0.51899  0.01894  1.0000
  O   O60       1.0  0.14344  0.48149  0.98117  1.0000
