data_image0
_chemical_formula_structural       Cu8H112C84I4N36
_chemical_formula_sum              "Cu8 H112 C84 I4 N36"
_cell_length_a       11.35205
_cell_length_b       14.635720000000001
_cell_length_c       16.74629
_cell_angle_alpha    90.0
_cell_angle_beta     90.0
_cell_angle_gamma    90.00268999999999

_symmetry_space_group_name_H-M    'P 1'
_symmetry_Int_Tables_number       1

loop_
  _symmetry_equiv_pos_as_xyz
  'x,y,z'

loop_
  _atom_site_type_symbol
  _atom_site_label
  _atom_site_symmetry_multiplicity
  _atom_site_fract_x
  _atom_site_fract_y
  _atom_site_fract_z
  _atom_site_occupancy
  Cu  Cu1       1.0  0.312  0.51896  0.75  1.0000
  Cu  Cu2       1.0  0.43156  0.8162099999999999  0.75  1.0000
  Cu  Cu3       1.0  0.18802  0.01894  0.25  1.0000
  Cu  Cu4       1.0  0.06845  0.31625  0.25  1.0000
  Cu  Cu5       1.0  0.68799  0.48104  0.25  1.0000
  Cu  Cu6       1.0  0.56844  0.18378999999999995  0.25  1.0000
  Cu  Cu7       1.0  0.81198  0.9810499999999998  0.75  1.0000
  Cu  Cu8       1.0  0.93155  0.6837499999999999  0.75  1.0000
  H   H1        1.0  0.51612  0.4730799999999999  0.64543  1.0000
  H   H2        1.0  0.23786  0.1741  0.32769  1.0000
  H   H3        1.0  0.11972  0.39267  0.67374  1.0000
  H   H4        1.0  0.10100000000000002  0.34375999999999995  0.57649  1.0000
  H   H5        1.0  0.09087  0.46367  0.59109  1.0000
  H   H6        1.0  0.62231  0.43148  0.5030300000000002  1.0000
  H   H7        1.0  0.53835  0.36172  0.43718  1.0000
  H   H8        1.0  0.60536  0.31299  0.5228300000000001  1.0000
  H   H9        1.0  0.34637  0.10080999999999997  0.4522500000000001  1.0000
  H   H10       1.0  0.3976  0.17809  0.52692  1.0000
  H   H11       1.0  0.47144  0.17034  0.43317  1.0000
  H   H12       1.0  0.22742  0.51119  0.38022  1.0000
  H   H13       1.0  0.12279  0.48564999999999997  0.45549  1.0000
  H   H14       1.0  0.08703  0.46705  0.35285  1.0000
  H   H15       1.0  0.98391  0.97308  0.35458  1.0000
  H   H16       1.0  0.26203  0.67409  0.67234  1.0000
  H   H17       1.0  0.38032  0.89258  0.32631  1.0000
  H   H18       1.0  0.39897  0.8436999999999998  0.4235700000000001  1.0000
  H   H19       1.0  0.4092  0.9636  0.40895  1.0000
  H   H20       1.0  0.87772  0.93153  0.49696000000000007  1.0000
  H   H21       1.0  0.96162  0.8617699999999998  0.56283  1.0000
  H   H22       1.0  0.89462  0.81302  0.47719  1.0000
  H   H23       1.0  0.15357  0.60081  0.54774  1.0000
  H   H24       1.0  0.10236000000000002  0.6781099999999998  0.4730800000000001  1.0000
  H   H25       1.0  0.028500000000000004  0.67034  0.56683  1.0000
  H   H26       1.0  0.27259  0.01116  0.61982  1.0000
  H   H27       1.0  0.37722  0.9856399999999997  0.54454  1.0000
  H   H28       1.0  0.41297  0.9670099999999998  0.6471900000000003  1.0000
  H   H29       1.0  0.48387  0.52691  0.14543  1.0000
  H   H30       1.0  0.76214  0.8259  0.82769  1.0000
  H   H31       1.0  0.88028  0.60733  0.17373  1.0000
  H   H32       1.0  0.899  0.65623  0.07649  1.0000
  H   H33       1.0  0.90913  0.53632  0.09109  1.0000
  H   H34       1.0  0.37769  0.56851  0.00302  1.0000
  H   H35       1.0  0.46164  0.6382799999999998  0.9371900000000002  1.0000
  H   H36       1.0  0.39464000000000005  0.68701  0.02283  1.0000
  H   H37       1.0  0.65363  0.89919  0.95225  1.0000
  H   H38       1.0  0.60239  0.8219  0.02692  1.0000
  H   H39       1.0  0.52855  0.8296599999999998  0.9331700000000002  1.0000
  H   H40       1.0  0.77258  0.4888099999999999  0.88022  1.0000
  H   H41       1.0  0.87721  0.51435  0.9555  1.0000
  H   H42       1.0  0.91297  0.53295  0.85285  1.0000
  H   H43       1.0  0.01608  0.02691  0.85458  1.0000
  H   H44       1.0  0.73796  0.3259  0.17234  1.0000
  H   H45       1.0  0.61968  0.10742  0.8263100000000002  1.0000
  H   H46       1.0  0.60103  0.1563  0.92357  1.0000
  H   H47       1.0  0.5908  0.036399999999999995  0.90895  1.0000
  H   H48       1.0  0.12227  0.06847  0.9969600000000001  1.0000
  H   H49       1.0  0.03838  0.13822  0.06283  1.0000
  H   H50       1.0  0.10538  0.18698  0.97719  1.0000
  H   H51       1.0  0.8464200000000001  0.3991899999999999  0.04774  1.0000
  H   H52       1.0  0.89763  0.3218899999999999  0.97308  1.0000
  H   H53       1.0  0.9715000000000001  0.32966  0.06682000000000002  1.0000
  H   H54       1.0  0.72741  0.98884  0.11981000000000001  1.0000
  H   H55       1.0  0.62278  0.01435  0.04454  1.0000
  H   H56       1.0  0.58703  0.03298  0.14719  1.0000
  H   H57       1.0  0.48387  0.52691  0.3545700000000001  1.0000
  H   H58       1.0  0.76214  0.8259  0.67231  1.0000
  H   H59       1.0  0.88028  0.60733  0.32627  1.0000
  H   H60       1.0  0.899  0.65623  0.42351  1.0000
  H   H61       1.0  0.90913  0.53632  0.40892  1.0000
  H   H62       1.0  0.37769  0.56851  0.49698000000000003  1.0000
  H   H63       1.0  0.46164  0.6382799999999998  0.56282  1.0000
  H   H64       1.0  0.39464000000000005  0.68701  0.47717  1.0000
  H   H65       1.0  0.65363  0.89919  0.5477600000000001  1.0000
  H   H66       1.0  0.60239  0.8219  0.47309  1.0000
  H   H67       1.0  0.52855  0.8296599999999998  0.56684  1.0000
  H   H68       1.0  0.77258  0.4888099999999999  0.61978  1.0000
  H   H69       1.0  0.87721  0.51435  0.5445100000000003  1.0000
  H   H70       1.0  0.91297  0.53295  0.64716  1.0000
  H   H71       1.0  0.01608  0.02691  0.64542  1.0000
  H   H72       1.0  0.73796  0.3259  0.32766  1.0000
  H   H73       1.0  0.61968  0.10742  0.67369  1.0000
  H   H74       1.0  0.60103  0.1563  0.57643  1.0000
  H   H75       1.0  0.5908  0.036399999999999995  0.59105  1.0000
  H   H76       1.0  0.12227  0.06847  0.50305  1.0000
  H   H77       1.0  0.03838  0.13822  0.4371700000000001  1.0000
  H   H78       1.0  0.10538  0.18698  0.52282  1.0000
  H   H79       1.0  0.8464200000000001  0.3991899999999999  0.45226  1.0000
  H   H80       1.0  0.89763  0.3218899999999999  0.52692  1.0000
  H   H81       1.0  0.9715000000000001  0.32966  0.43318  1.0000
  H   H82       1.0  0.72741  0.98884  0.38019  1.0000
  H   H83       1.0  0.62278  0.01435  0.4554600000000001  1.0000
  H   H84       1.0  0.58703  0.03298  0.35282  1.0000
  H   H85       1.0  0.51612  0.4730799999999999  0.85457  1.0000
  H   H86       1.0  0.23786  0.1741  0.17231000000000005  1.0000
  H   H87       1.0  0.11972  0.39267  0.82627  1.0000
  H   H88       1.0  0.10100000000000002  0.34375999999999995  0.92352  1.0000
  H   H89       1.0  0.09087  0.46367  0.90892  1.0000
  H   H90       1.0  0.62231  0.43148  0.9969799999999999  1.0000
  H   H91       1.0  0.53835  0.36172  0.06282  1.0000
  H   H92       1.0  0.60536  0.31299  0.97717  1.0000
  H   H93       1.0  0.34637  0.10080999999999997  0.04776  1.0000
  H   H94       1.0  0.3976  0.17809  0.9730900000000001  1.0000
  H   H95       1.0  0.47144  0.17034  0.06683  1.0000
  H   H96       1.0  0.22742  0.51119  0.11978  1.0000
  H   H97       1.0  0.12279  0.48564999999999997  0.04451  1.0000
  H   H98       1.0  0.08703  0.46705  0.14715  1.0000
  H   H99       1.0  0.98391  0.97308  0.14542  1.0000
  H   H100      1.0  0.26203  0.67409  0.82766  1.0000
  H   H101      1.0  0.38032  0.89258  0.17369  1.0000
  H   H102      1.0  0.39897  0.8436999999999998  0.07643  1.0000
  H   H103      1.0  0.4092  0.9636  0.09105000000000002  1.0000
  H   H104      1.0  0.87772  0.93153  0.00304  1.0000
  H   H105      1.0  0.96162  0.8617699999999998  0.93717  1.0000
  H   H106      1.0  0.89462  0.81302  0.02282  1.0000
  H   H107      1.0  0.15357  0.60081  0.95226  1.0000
  H   H108      1.0  0.10236000000000002  0.6781099999999998  0.02692  1.0000
  H   H109      1.0  0.028500000000000004  0.67034  0.93318  1.0000
  H   H110      1.0  0.27259  0.01116  0.8801900000000002  1.0000
  H   H111      1.0  0.37722  0.9856399999999997  0.9554700000000002  1.0000
  H   H112      1.0  0.41297  0.9670099999999998  0.85282  1.0000
  C   C1        1.0  0.13786  0.4016299999999999  0.60986  1.0000
  C   C2        1.0  0.26715  0.4083699999999999  0.59513  1.0000
  C   C3        1.0  0.33252  0.37441  0.52893  1.0000
  C   C4        1.0  0.45061  0.39389  0.54602  1.0000
  C   C5        1.0  0.55999  0.3741599999999999  0.5002  1.0000
  C   C6        1.0  0.38479  0.16855  0.46254  1.0000
  C   C7        1.0  0.30669  0.24139  0.43065  1.0000
  C   C8        1.0  0.28468  0.33017  0.45775  1.0000
  C   C9        1.0  0.20439  0.36817  0.40181  1.0000
  C   C10       1.0  0.15747  0.4631  0.39763  1.0000
  C   C11       1.0  0.36216000000000004  0.90156  0.39019  1.0000
  C   C12       1.0  0.23287  0.90834  0.40489  1.0000
  C   C13       1.0  0.16749  0.87439  0.47108  1.0000
  C   C14       1.0  0.04941000000000001  0.89389  0.4539900000000001  1.0000
  C   C15       1.0  0.94001  0.87419  0.49981000000000003  1.0000
  C   C16       1.0  0.11516  0.6685499999999998  0.53746  1.0000
  C   C17       1.0  0.19326  0.74138  0.56938  1.0000
  C   C18       1.0  0.21531  0.83015  0.54227  1.0000
  C   C19       1.0  0.2956  0.8681499999999998  0.5982100000000002  1.0000
  C   C20       1.0  0.34254  0.96307  0.6024  1.0000
  C   C21       1.0  0.8621300000000001  0.5983699999999997  0.10985000000000003  1.0000
  C   C22       1.0  0.73284  0.59163  0.09513  1.0000
  C   C23       1.0  0.66748  0.62558  0.02893  1.0000
  C   C24       1.0  0.54939  0.6061  0.04602  1.0000
  C   C25       1.0  0.44  0.6258299999999998  0.0002  1.0000
  C   C26       1.0  0.61521  0.8314499999999998  0.9625399999999998  1.0000
  C   C27       1.0  0.69331  0.7586  0.93065  1.0000
  C   C28       1.0  0.71532  0.6698299999999999  0.9577500000000001  1.0000
  C   C29       1.0  0.7956000000000001  0.63183  0.90181  1.0000
  C   C30       1.0  0.84253  0.5369  0.89763  1.0000
  C   C31       1.0  0.63784  0.09842999999999998  0.89019  1.0000
  C   C32       1.0  0.76713  0.09166  0.9048900000000002  1.0000
  C   C33       1.0  0.83251  0.1256  0.9710800000000002  1.0000
  C   C34       1.0  0.9505900000000002  0.10610999999999997  0.95399  1.0000
  C   C35       1.0  0.05999  0.12581  0.99981  1.0000
  C   C36       1.0  0.88484  0.33144999999999997  0.03746  1.0000
  C   C37       1.0  0.80674  0.25861  0.06937  1.0000
  C   C38       1.0  0.7846900000000001  0.16985  0.04227  1.0000
  C   C39       1.0  0.7044  0.13185  0.09821000000000003  1.0000
  C   C40       1.0  0.65746  0.03692  0.10239000000000002  1.0000
  C   C41       1.0  0.8621300000000001  0.5983699999999997  0.39015  1.0000
  C   C42       1.0  0.73284  0.59163  0.40487  1.0000
  C   C43       1.0  0.66748  0.62558  0.4710700000000001  1.0000
  C   C44       1.0  0.54939  0.6061  0.4539900000000001  1.0000
  C   C45       1.0  0.44  0.6258299999999998  0.49981000000000003  1.0000
  C   C46       1.0  0.61521  0.8314499999999998  0.53746  1.0000
  C   C47       1.0  0.69331  0.7586  0.56936  1.0000
  C   C48       1.0  0.71532  0.6698299999999999  0.54226  1.0000
  C   C49       1.0  0.7956000000000001  0.63183  0.5982  1.0000
  C   C50       1.0  0.84253  0.5369  0.60237  1.0000
  C   C51       1.0  0.63784  0.09842999999999998  0.60982  1.0000
  C   C52       1.0  0.76713  0.09166  0.59512  1.0000
  C   C53       1.0  0.83251  0.1256  0.52892  1.0000
  C   C54       1.0  0.9505900000000002  0.10610999999999997  0.54601  1.0000
  C   C55       1.0  0.05999  0.12581  0.50019  1.0000
  C   C56       1.0  0.88484  0.33144999999999997  0.4625500000000001  1.0000
  C   C57       1.0  0.80674  0.25861  0.43063  1.0000
  C   C58       1.0  0.7846900000000001  0.16985  0.45774  1.0000
  C   C59       1.0  0.7044  0.13185  0.40179  1.0000
  C   C60       1.0  0.65746  0.03692  0.39761000000000013  1.0000
  C   C61       1.0  0.13786  0.4016299999999999  0.89015  1.0000
  C   C62       1.0  0.26715  0.4083699999999999  0.90487  1.0000
  C   C63       1.0  0.33252  0.37441  0.9710800000000002  1.0000
  C   C64       1.0  0.45061  0.39389  0.95399  1.0000
  C   C65       1.0  0.55999  0.3741599999999999  0.99981  1.0000
  C   C66       1.0  0.38479  0.16855  0.03746  1.0000
  C   C67       1.0  0.30669  0.24139  0.06936  1.0000
  C   C68       1.0  0.28468  0.33017  0.04226  1.0000
  C   C69       1.0  0.20439  0.36817  0.0982  1.0000
  C   C70       1.0  0.15747  0.4631  0.10237  1.0000
  C   C71       1.0  0.36216000000000004  0.90156  0.10982  1.0000
  C   C72       1.0  0.23287  0.90834  0.09512000000000002  1.0000
  C   C73       1.0  0.16749  0.87439  0.02892  1.0000
  C   C74       1.0  0.04941000000000001  0.89389  0.04601000000000001  1.0000
  C   C75       1.0  0.94001  0.87419  0.00019  1.0000
  C   C76       1.0  0.11516  0.6685499999999998  0.96255  1.0000
  C   C77       1.0  0.19326  0.74138  0.93063  1.0000
  C   C78       1.0  0.21531  0.83015  0.95774  1.0000
  C   C79       1.0  0.2956  0.8681499999999998  0.90179  1.0000
  C   C80       1.0  0.34254  0.96307  0.89761  1.0000
  C   C81       1.0  0.0722  0.6199  0.75  1.0000
  C   C82       1.0  0.42778000000000005  0.11996  0.25  1.0000
  C   C83       1.0  0.9278  0.3801  0.25  1.0000
  C   C84       1.0  0.57222  0.8800399999999999  0.75  1.0000
  I   I1        1.0  0.51511  0.62131  0.75  1.0000
  I   I2        1.0  0.98489  0.12126999999999999  0.25  1.0000
  I   I3        1.0  0.48489000000000004  0.3786899999999999  0.25  1.0000
  I   I4        1.0  0.01511  0.87872  0.75  1.0000
  N   N1        1.0  0.34002  0.4476099999999999  0.64845  1.0000
  N   N2        1.0  0.45045  0.43655  0.61825  1.0000
  N   N3        1.0  0.17726000000000003  0.30595  0.34537  1.0000
  N   N4        1.0  0.24025  0.23014999999999997  0.36427  1.0000
  N   N5        1.0  0.16002  0.9475899999999998  0.35156  1.0000
  N   N6        1.0  0.04958  0.93656  0.38176  1.0000
  N   N7        1.0  0.3227  0.80593  0.65466  1.0000
  N   N8        1.0  0.25967  0.73015  0.63577  1.0000
  N   N9        1.0  0.65998  0.55239  0.14845  1.0000
  N   N10       1.0  0.54954  0.56344  0.11825  1.0000
  N   N11       1.0  0.82274  0.6940499999999997  0.84537  1.0000
  N   N12       1.0  0.75975  0.7698399999999997  0.86427  1.0000
  N   N13       1.0  0.83997  0.0524  0.85156  1.0000
  N   N14       1.0  0.95042  0.06344  0.88176  1.0000
  N   N15       1.0  0.6773  0.19407  0.15466  1.0000
  N   N16       1.0  0.74033  0.26985  0.13577  1.0000
  N   N17       1.0  0.65998  0.55239  0.35155  1.0000
  N   N18       1.0  0.54954  0.56344  0.38175  1.0000
  N   N19       1.0  0.82274  0.6940499999999997  0.65464  1.0000
  N   N20       1.0  0.75975  0.7698399999999997  0.63574  1.0000
  N   N21       1.0  0.83997  0.0524  0.64844  1.0000
  N   N22       1.0  0.95042  0.06344  0.6182400000000002  1.0000
  N   N23       1.0  0.6773  0.19407  0.34534  1.0000
  N   N24       1.0  0.74033  0.26985  0.36424  1.0000
  N   N25       1.0  0.34002  0.4476099999999999  0.8515500000000003  1.0000
  N   N26       1.0  0.45045  0.43655  0.88175  1.0000
  N   N27       1.0  0.17726000000000003  0.30595  0.15463  1.0000
  N   N28       1.0  0.24025  0.23014999999999997  0.13573  1.0000
  N   N29       1.0  0.16002  0.9475899999999998  0.14844  1.0000
  N   N30       1.0  0.04958  0.93656  0.11824  1.0000
  N   N31       1.0  0.3227  0.80593  0.84534  1.0000
  N   N32       1.0  0.25967  0.73015  0.86424  1.0000
  N   N33       1.0  0.16587  0.58377  0.75  1.0000
  N   N34       1.0  0.33409  0.08384  0.25  1.0000
  N   N35       1.0  0.83412  0.41623  0.25  1.0000
  N   N36       1.0  0.6659  0.91615  0.75  1.0000
