data_image0
_chemical_formula_structural       Na4H116C192N16O32
_chemical_formula_sum              "Na4 H116 C192 N16 O32"
_cell_length_a       16.38571
_cell_length_b       16.38546
_cell_length_c       23.728569999999998
_cell_angle_alpha    91.41678
_cell_angle_beta     91.41649
_cell_angle_gamma    107.38677

_space_group_name_H-M_alt    "P 1"
_space_group_IT_number       1

loop_
  _space_group_symop_operation_xyz
  'x, y, z'

loop_
  _atom_site_type_symbol
  _atom_site_label
  _atom_site_symmetry_multiplicity
  _atom_site_fract_x
  _atom_site_fract_y
  _atom_site_fract_z
  _atom_site_occupancy
  Na  Na1       1.0  0.92853  0.06743  0.99141  1.0000
  Na  Na2       1.0  0.93256  0.07148  0.5086  1.0000
  Na  Na3       1.0  0.07147  0.93256  0.008589999999999999  1.0000
  Na  Na4       1.0  0.06744  0.92854  0.49142  1.0000
  H   H1        1.0  0.62959  0.5287199999999997  0.15718999999999997  1.0000
  H   H2        1.0  0.51561  0.53543  0.10919999999999999  1.0000
  H   H3        1.0  0.43813  0.21516  0.05899  1.0000
  H   H4        1.0  0.5930900000000002  0.22005  0.10338999999999998  1.0000
  H   H5        1.0  0.86718  0.47843  0.18179  1.0000
  H   H6        1.0  0.8826200000000001  0.63574  0.22537  1.0000
  H   H7        1.0  0.67198  0.82996  0.24429999999999993  1.0000
  H   H8        1.0  0.53115  0.83324  0.18536999999999998  1.0000
  H   H9        1.0  0.31374  0.61605  0.03711  1.0000
  H   H10       1.0  0.28941  0.45163  0.00489  1.0000
  H   H11       1.0  0.38755  0.34077  0.94202  1.0000
  H   H12       1.0  0.26651  0.22849  0.8968399999999999  1.0000
  H   H13       1.0  0.15747  0.16403  0.05888999999999999  1.0000
  H   H14       1.0  0.28048  0.27714  0.10492999999999997  1.0000
  H   H15       1.0  0.07742  0.06152999999999999  0.8790099999999998  1.0000
  H   H16       1.0  0.7764900000000002  0.33731  0.22472  1.0000
  H   H17       1.0  0.8641100000000003  0.23712  0.21842  1.0000
  H   H18       1.0  0.81878  0.21196  0.03864  1.0000
  H   H19       1.0  0.7312099999999999  0.31272  0.044849999999999994  1.0000
  H   H20       1.0  0.95166  0.08683  0.16483  1.0000
  H   H21       1.0  0.8073700000000001  0.84872  0.19181  1.0000
  H   H22       1.0  0.91401  0.95571  0.25191  1.0000
  H   H23       1.0  0.90339  0.76496  0.37542  1.0000
  H   H24       1.0  0.79426  0.65833  0.3159  1.0000
  H   H25       1.0  0.43524  0.7589899999999999  0.01765  1.0000
  H   H26       1.0  0.3380300000000001  0.84934  0.00376  1.0000
  H   H27       1.0  0.2833799999999999  0.8355199999999998  0.17991  1.0000
  H   H28       1.0  0.37672  0.74152  0.19354  1.0000
  H   H29       1.0  0.17145000000000005  0.95382  0.11955  1.0000
  H   H30       1.0  0.47129  0.37040000000000006  0.34281  1.0000
  H   H31       1.0  0.46459000000000006  0.4843899999999999  0.3908  1.0000
  H   H32       1.0  0.7848400000000002  0.56187  0.44099999999999995  1.0000
  H   H33       1.0  0.77995  0.4069099999999999  0.3966  1.0000
  H   H34       1.0  0.5215800000000003  0.13281  0.31821  1.0000
  H   H35       1.0  0.36427  0.11735999999999998  0.27463  1.0000
  H   H36       1.0  0.17006  0.32802  0.2557  1.0000
  H   H37       1.0  0.16676999999999997  0.46884  0.31462999999999997  1.0000
  H   H38       1.0  0.38395000000000007  0.6862499999999998  0.46289  1.0000
  H   H39       1.0  0.54837  0.71059  0.49510999999999994  1.0000
  H   H40       1.0  0.65922  0.61246  0.55798  1.0000
  H   H41       1.0  0.7714999999999999  0.7334899999999998  0.60316  1.0000
  H   H42       1.0  0.8359900000000005  0.84252  0.44110999999999995  1.0000
  H   H43       1.0  0.7228799999999999  0.71951  0.3950599999999999  1.0000
  H   H44       1.0  0.9384700000000002  0.92257  0.6209999999999999  1.0000
  H   H45       1.0  0.6627000000000002  0.2235  0.27528  1.0000
  H   H46       1.0  0.76288  0.13588  0.28158  1.0000
  H   H47       1.0  0.78805  0.18122  0.4613499999999999  1.0000
  H   H48       1.0  0.68729  0.26879  0.45514  1.0000
  H   H49       1.0  0.91318  0.04835  0.33517  1.0000
  H   H50       1.0  0.1513  0.19263  0.30819  1.0000
  H   H51       1.0  0.04429999999999999  0.086  0.24809999999999996  1.0000
  H   H52       1.0  0.23503  0.09662  0.12458  1.0000
  H   H53       1.0  0.34167  0.20573  0.1841  1.0000
  H   H54       1.0  0.2410100000000001  0.56475  0.48235  1.0000
  H   H55       1.0  0.15067000000000003  0.66197  0.49624  1.0000
  H   H56       1.0  0.16449  0.71663  0.32009  1.0000
  H   H57       1.0  0.2584900000000001  0.62327  0.30645999999999995  1.0000
  H   H58       1.0  0.04617999999999994  0.8285399999999998  0.38045  1.0000
  H   H59       1.0  0.37041  0.47128  0.84281  1.0000
  H   H60       1.0  0.48439  0.46457  0.8907999999999999  1.0000
  H   H61       1.0  0.5618699999999999  0.7848399999999998  0.9410199999999997  1.0000
  H   H62       1.0  0.40691  0.77995  0.8966199999999999  1.0000
  H   H63       1.0  0.13282000000000002  0.52158  0.81821  1.0000
  H   H64       1.0  0.11738  0.36426  0.7746299999999998  1.0000
  H   H65       1.0  0.32802  0.17004999999999995  0.7556999999999998  1.0000
  H   H66       1.0  0.46885  0.16676  0.8146299999999999  1.0000
  H   H67       1.0  0.68626  0.38396  0.9628899999999999  1.0000
  H   H68       1.0  0.71059  0.5483699999999998  0.99511  1.0000
  H   H69       1.0  0.61245  0.65923  0.05797999999999998  1.0000
  H   H70       1.0  0.73349  0.77151  0.10316  1.0000
  H   H71       1.0  0.84253  0.83597  0.94112  1.0000
  H   H72       1.0  0.7195199999999999  0.72286  0.89507  1.0000
  H   H73       1.0  0.9225799999999997  0.9384699999999998  0.121  1.0000
  H   H74       1.0  0.22351  0.6627  0.7752799999999999  1.0000
  H   H75       1.0  0.13589  0.76288  0.78158  1.0000
  H   H76       1.0  0.18122  0.78804  0.96136  1.0000
  H   H77       1.0  0.26879  0.68729  0.9551499999999999  1.0000
  H   H78       1.0  0.04834000000000002  0.91317  0.83517  1.0000
  H   H79       1.0  0.19263  0.15128  0.8081899999999999  1.0000
  H   H80       1.0  0.08599  0.04429  0.7481  1.0000
  H   H81       1.0  0.09660999999999999  0.23503999999999994  0.62458  1.0000
  H   H82       1.0  0.20574  0.34168  0.6841  1.0000
  H   H83       1.0  0.5647600000000003  0.24101  0.9823499999999997  1.0000
  H   H84       1.0  0.66196  0.15065999999999993  0.9962499999999999  1.0000
  H   H85       1.0  0.71662  0.16448  0.8201  1.0000
  H   H86       1.0  0.62328  0.25848  0.8064599999999998  1.0000
  H   H87       1.0  0.8285500000000002  0.046179999999999985  0.88045  1.0000
  H   H88       1.0  0.52871  0.6296  0.65719  1.0000
  H   H89       1.0  0.53541  0.51561  0.6092  1.0000
  H   H90       1.0  0.21516  0.43813  0.5589999999999999  1.0000
  H   H91       1.0  0.22005000000000005  0.59309  0.6034  1.0000
  H   H92       1.0  0.47841  0.86719  0.68179  1.0000
  H   H93       1.0  0.63573  0.88264  0.72538  1.0000
  H   H94       1.0  0.8299399999999999  0.6719899999999998  0.7443099999999998  1.0000
  H   H95       1.0  0.83322  0.53116  0.68537  1.0000
  H   H96       1.0  0.61604  0.31375  0.53711  1.0000
  H   H97       1.0  0.45163  0.28941  0.5049  1.0000
  H   H98       1.0  0.34078  0.38754  0.44202  1.0000
  H   H99       1.0  0.22849999999999998  0.26651  0.39684  1.0000
  H   H100      1.0  0.16401  0.15748  0.55889  1.0000
  H   H101      1.0  0.27712  0.28049  0.60494  1.0000
  H   H102      1.0  0.06153  0.07743  0.379  1.0000
  H   H103      1.0  0.3373  0.7765  0.7247299999999998  1.0000
  H   H104      1.0  0.23711999999999994  0.86413  0.7184299999999999  1.0000
  H   H105      1.0  0.21195  0.81878  0.53865  1.0000
  H   H106      1.0  0.3127  0.73121  0.54486  1.0000
  H   H107      1.0  0.08680999999999998  0.95164  0.66483  1.0000
  H   H108      1.0  0.8487000000000002  0.80737  0.69181  1.0000
  H   H109      1.0  0.9557  0.9139999999999998  0.7519  1.0000
  H   H110      1.0  0.7649699999999999  0.90339  0.87543  1.0000
  H   H111      1.0  0.65833  0.79427  0.8159  1.0000
  H   H112      1.0  0.75899  0.43526  0.51766  1.0000
  H   H113      1.0  0.8493200000000002  0.33804  0.50376  1.0000
  H   H114      1.0  0.83551  0.28338  0.6799099999999999  1.0000
  H   H115      1.0  0.7415100000000002  0.37673  0.69354  1.0000
  H   H116      1.0  0.95381  0.17147  0.61955  1.0000
  C   C1        1.0  0.4092800000000001  0.46566  0.05598  1.0000
  C   C2        1.0  0.41642  0.3825699999999999  0.05469  1.0000
  C   C3        1.0  0.48471  0.35792  0.07848  1.0000
  C   C4        1.0  0.48854000000000003  0.27022  0.07575  1.0000
  C   C5        1.0  0.56701  0.27287  0.09779  1.0000
  C   C6        1.0  0.61005  0.36217  0.11414999999999999  1.0000
  C   C7        1.0  0.69451  0.39158  0.13764  1.0000
  C   C8        1.0  0.7318499999999999  0.47371999999999986  0.16237999999999997  1.0000
  C   C9        1.0  0.8179499999999998  0.50997  0.18404  1.0000
  C   C10       1.0  0.82583  0.5904  0.20633  1.0000
  C   C11       1.0  0.74509  0.6068  0.19855999999999996  1.0000
  C   C12       1.0  0.72575  0.68231  0.21429  1.0000
  C   C13       1.0  0.6508199999999997  0.7025099999999997  0.19738  1.0000
  C   C14       1.0  0.63383  0.78194  0.21436  1.0000
  C   C15       1.0  0.56191  0.78326  0.18488  1.0000
  C   C16       1.0  0.53351  0.7033299999999998  0.15161  1.0000
  C   C17       1.0  0.4620700000000001  0.6821999999999999  0.11355  1.0000
  C   C18       1.0  0.43048  0.60419  0.08262  1.0000
  C   C19       1.0  0.3540700000000001  0.57657  0.047349999999999996  1.0000
  C   C20       1.0  0.34125999999999995  0.4924699999999999  0.031179999999999996  1.0000
  C   C21       1.0  0.34315  0.31521  0.026699999999999998  1.0000
  C   C22       1.0  0.33811  0.3017799999999999  0.96799  1.0000
  C   C23       1.0  0.26953  0.23869000000000004  0.94236  1.0000
  C   C24       1.0  0.20473  0.18835  0.97532  1.0000
  C   C25       1.0  0.20880000000000004  0.20278  0.03402  1.0000
  C   C26       1.0  0.27745  0.26576  0.05948  1.0000
  C   C27       1.0  0.13145000000000007  0.11929  0.95014  1.0000
  C   C28       1.0  0.74789  0.3324799999999999  0.13512999999999997  1.0000
  C   C29       1.0  0.78647  0.31079  0.18387999999999993  1.0000
  C   C30       1.0  0.8354900000000002  0.25447  0.18047999999999995  1.0000
  C   C31       1.0  0.84799  0.2192  0.12798  1.0000
  C   C32       1.0  0.8100900000000002  0.24066  0.07907999999999998  1.0000
  C   C33       1.0  0.76054  0.29627  0.08282  1.0000
  C   C34       1.0  0.8995000000000002  0.15853  0.12266  1.0000
  C   C35       1.0  0.7916600000000003  0.74629  0.24996  1.0000
  C   C36       1.0  0.82659  0.83083  0.23268  1.0000
  C   C37       1.0  0.8871  0.89109  0.2665  1.0000
  C   C38       1.0  0.91541  0.8682  0.31839999999999996  1.0000
  C   C39       1.0  0.8821600000000003  0.78341  0.33528  1.0000
  C   C40       1.0  0.82086  0.72338  0.30176  1.0000
  C   C41       1.0  0.97988  0.93274  0.35506  1.0000
  C   C42       1.0  0.41185  0.74358  0.10647999999999999  1.0000
  C   C43       1.0  0.40164  0.77552  0.05310999999999999  1.0000
  C   C44       1.0  0.3475999999999999  0.8259799999999998  0.04519  1.0000
  C   C45       1.0  0.30413  0.8470599999999998  0.09082999999999998  1.0000
  C   C46       1.0  0.3170100000000001  0.81857  0.14471  1.0000
  C   C47       1.0  0.3696299999999999  0.7666299999999998  0.1523  1.0000
  C   C48       1.0  0.24123000000000006  0.8949  0.08146  1.0000
  C   C49       1.0  0.5343500000000002  0.59072  0.4440199999999999  1.0000
  C   C50       1.0  0.6174400000000002  0.58358  0.44530999999999993  1.0000
  C   C51       1.0  0.64208  0.51529  0.42151999999999995  1.0000
  C   C52       1.0  0.7297900000000003  0.51146  0.42424  1.0000
  C   C53       1.0  0.72713  0.43299  0.40221  1.0000
  C   C54       1.0  0.6378300000000001  0.38995  0.38584  1.0000
  C   C55       1.0  0.60842  0.30549  0.3623599999999999  1.0000
  C   C56       1.0  0.52628  0.26814  0.3376199999999999  1.0000
  C   C57       1.0  0.49004000000000003  0.18203999999999998  0.31595  1.0000
  C   C58       1.0  0.40961  0.17416  0.29366999999999993  1.0000
  C   C59       1.0  0.3932100000000001  0.2549  0.30144  1.0000
  C   C60       1.0  0.31769  0.27424  0.28571  1.0000
  C   C61       1.0  0.2975  0.34918  0.30262  1.0000
  C   C62       1.0  0.21807  0.36616  0.28563999999999995  1.0000
  C   C63       1.0  0.21675  0.43808  0.31511999999999996  1.0000
  C   C64       1.0  0.29668  0.46648  0.34838999999999987  1.0000
  C   C65       1.0  0.31781  0.53792  0.38644999999999996  1.0000
  C   C66       1.0  0.39581  0.56952  0.41738  1.0000
  C   C67       1.0  0.42343  0.64592  0.4526499999999999  1.0000
  C   C68       1.0  0.50754  0.65874  0.46882  1.0000
  C   C69       1.0  0.6848  0.65685  0.4732999999999999  1.0000
  C   C70       1.0  0.69822  0.66189  0.53201  1.0000
  C   C71       1.0  0.7613100000000003  0.73047  0.55764  1.0000
  C   C72       1.0  0.81165  0.79527  0.5246799999999999  1.0000
  C   C73       1.0  0.7972300000000002  0.7911999999999998  0.4659799999999999  1.0000
  C   C74       1.0  0.73426  0.72255  0.44052  1.0000
  C   C75       1.0  0.88071  0.86854  0.54987  1.0000
  C   C76       1.0  0.66753  0.25211  0.36487  1.0000
  C   C77       1.0  0.68922  0.21352  0.31611  1.0000
  C   C78       1.0  0.74554  0.1645  0.31952  1.0000
  C   C79       1.0  0.7808  0.15200999999999998  0.37201999999999996  1.0000
  C   C80       1.0  0.7593500000000002  0.18992  0.42092  1.0000
  C   C81       1.0  0.70374  0.23946  0.41718  1.0000
  C   C82       1.0  0.8414700000000003  0.1005  0.37734  1.0000
  C   C83       1.0  0.25372  0.20833999999999994  0.25004  1.0000
  C   C84       1.0  0.16918  0.17341  0.26732  1.0000
  C   C85       1.0  0.10891  0.1129  0.2335  1.0000
  C   C86       1.0  0.1318  0.08459  0.18159999999999998  1.0000
  C   C87       1.0  0.21659  0.11784  0.16472  1.0000
  C   C88       1.0  0.27662  0.17914  0.19823999999999994  1.0000
  C   C89       1.0  0.06725  0.020129999999999995  0.14493999999999999  1.0000
  C   C90       1.0  0.25643  0.58814  0.39352  1.0000
  C   C91       1.0  0.22449  0.59835  0.44689999999999996  1.0000
  C   C92       1.0  0.17403  0.6524  0.45481  1.0000
  C   C93       1.0  0.15296000000000007  0.69587  0.4091699999999999  1.0000
  C   C94       1.0  0.18143999999999996  0.68299  0.35529  1.0000
  C   C95       1.0  0.23338000000000006  0.63037  0.34770999999999996  1.0000
  C   C96       1.0  0.10510000000000001  0.75875  0.41854  1.0000
  C   C97       1.0  0.5907200000000002  0.53435  0.9440199999999997  1.0000
  C   C98       1.0  0.58358  0.61743  0.9453099999999998  1.0000
  C   C99       1.0  0.51529  0.64208  0.92153  1.0000
  C   C100      1.0  0.51146  0.72978  0.92425  1.0000
  C   C101      1.0  0.43298999999999993  0.7271299999999998  0.9022199999999999  1.0000
  C   C102      1.0  0.38994999999999996  0.6378299999999999  0.8858499999999999  1.0000
  C   C103      1.0  0.30549  0.60842  0.86236  1.0000
  C   C104      1.0  0.26815  0.52628  0.83762  1.0000
  C   C105      1.0  0.18205  0.49003  0.8159599999999998  1.0000
  C   C106      1.0  0.17417  0.40959999999999996  0.79368  1.0000
  C   C107      1.0  0.25491  0.39321  0.80145  1.0000
  C   C108      1.0  0.27425  0.31769  0.78571  1.0000
  C   C109      1.0  0.34918  0.29749  0.8026299999999998  1.0000
  C   C110      1.0  0.36617000000000005  0.21805999999999998  0.7856499999999997  1.0000
  C   C111      1.0  0.4380900000000001  0.21673999999999993  0.8151199999999997  1.0000
  C   C112      1.0  0.46649  0.29667  0.8483999999999999  1.0000
  C   C113      1.0  0.53793  0.3178  0.88645  1.0000
  C   C114      1.0  0.56952  0.39581  0.91738  1.0000
  C   C115      1.0  0.64593  0.42343  0.95265  1.0000
  C   C116      1.0  0.65874  0.50753  0.96882  1.0000
  C   C117      1.0  0.65685  0.68479  0.9733  1.0000
  C   C118      1.0  0.66189  0.69822  0.03201  1.0000
  C   C119      1.0  0.7304700000000001  0.76131  0.05763999999999999  1.0000
  C   C120      1.0  0.7952700000000003  0.81165  0.02468  1.0000
  C   C121      1.0  0.7912  0.79722  0.9659799999999997  1.0000
  C   C122      1.0  0.7225500000000002  0.73424  0.9405199999999999  1.0000
  C   C123      1.0  0.8685499999999999  0.8807099999999998  0.049869999999999984  1.0000
  C   C124      1.0  0.25211  0.66753  0.86488  1.0000
  C   C125      1.0  0.21353000000000005  0.68922  0.81612  1.0000
  C   C126      1.0  0.16451000000000002  0.74554  0.81952  1.0000
  C   C127      1.0  0.15200999999999995  0.7807999999999999  0.87202  1.0000
  C   C128      1.0  0.18991000000000005  0.75934  0.9209299999999999  1.0000
  C   C129      1.0  0.23946  0.70373  0.91719  1.0000
  C   C130      1.0  0.10049999999999994  0.8414699999999998  0.87734  1.0000
  C   C131      1.0  0.20834  0.25372  0.75005  1.0000
  C   C132      1.0  0.17341000000000004  0.16917  0.7673199999999999  1.0000
  C   C133      1.0  0.11289  0.10891  0.7334999999999999  1.0000
  C   C134      1.0  0.08458  0.13181  0.6816  1.0000
  C   C135      1.0  0.11784000000000001  0.21659  0.66472  1.0000
  C   C136      1.0  0.17914  0.27663  0.6982499999999998  1.0000
  C   C137      1.0  0.020120000000000006  0.06726  0.64494  1.0000
  C   C138      1.0  0.58815  0.25642  0.89352  1.0000
  C   C139      1.0  0.59836  0.22449  0.9469  1.0000
  C   C140      1.0  0.6524  0.17402  0.95481  1.0000
  C   C141      1.0  0.69587  0.15294  0.90918  1.0000
  C   C142      1.0  0.68299  0.18143  0.8552899999999999  1.0000
  C   C143      1.0  0.63037  0.23336999999999997  0.84771  1.0000
  C   C144      1.0  0.7587600000000002  0.10509999999999997  0.9185399999999999  1.0000
  C   C145      1.0  0.46565  0.40928  0.55598  1.0000
  C   C146      1.0  0.3825600000000001  0.41642  0.55469  1.0000
  C   C147      1.0  0.35791  0.48471  0.57848  1.0000
  C   C148      1.0  0.27021  0.48854  0.57576  1.0000
  C   C149      1.0  0.2728600000000001  0.5670200000000001  0.5978  1.0000
  C   C150      1.0  0.36216  0.61006  0.61416  1.0000
  C   C151      1.0  0.39157000000000003  0.6945099999999998  0.6376499999999999  1.0000
  C   C152      1.0  0.47371  0.73186  0.66238  1.0000
  C   C153      1.0  0.50996  0.81796  0.68405  1.0000
  C   C154      1.0  0.59039  0.82585  0.70633  1.0000
  C   C155      1.0  0.60679  0.7451  0.69856  1.0000
  C   C156      1.0  0.6823000000000002  0.72576  0.71429  1.0000
  C   C157      1.0  0.7025  0.65083  0.6973799999999999  1.0000
  C   C158      1.0  0.78193  0.6338399999999998  0.7143599999999999  1.0000
  C   C159      1.0  0.78324  0.56192  0.6848899999999999  1.0000
  C   C160      1.0  0.70332  0.53352  0.65161  1.0000
  C   C161      1.0  0.68219  0.46208  0.6135499999999999  1.0000
  C   C162      1.0  0.60418  0.43049  0.58262  1.0000
  C   C163      1.0  0.5765700000000002  0.35408  0.54735  1.0000
  C   C164      1.0  0.49246000000000006  0.34126  0.53119  1.0000
  C   C165      1.0  0.3151999999999999  0.3431499999999999  0.5267  1.0000
  C   C166      1.0  0.30178  0.33812  0.46798999999999996  1.0000
  C   C167      1.0  0.23869000000000007  0.26953  0.44236  1.0000
  C   C168      1.0  0.18835000000000005  0.20473  0.47531999999999996  1.0000
  C   C169      1.0  0.20277  0.2088  0.53402  1.0000
  C   C170      1.0  0.26574000000000003  0.27745  0.55948  1.0000
  C   C171      1.0  0.11929000000000002  0.13146  0.45013  1.0000
  C   C172      1.0  0.33247  0.7479  0.63513  1.0000
  C   C173      1.0  0.31077999999999995  0.7864799999999997  0.68389  1.0000
  C   C174      1.0  0.25446  0.8355  0.68048  1.0000
  C   C175      1.0  0.21919000000000002  0.84799  0.62798  1.0000
  C   C176      1.0  0.24065  0.81009  0.57908  1.0000
  C   C177      1.0  0.29626  0.76054  0.58282  1.0000
  C   C178      1.0  0.15853  0.89951  0.62267  1.0000
  C   C179      1.0  0.7462800000000004  0.7916699999999999  0.74996  1.0000
  C   C180      1.0  0.83082  0.8265899999999998  0.7326799999999998  1.0000
  C   C181      1.0  0.8910899999999998  0.8871  0.7664999999999997  1.0000
  C   C182      1.0  0.8682000000000004  0.91541  0.81841  1.0000
  C   C183      1.0  0.7834099999999999  0.88216  0.8352899999999999  1.0000
  C   C184      1.0  0.7233700000000002  0.82086  0.8017599999999998  1.0000
  C   C185      1.0  0.93275  0.97987  0.8550599999999999  1.0000
  C   C186      1.0  0.7435699999999998  0.4118599999999999  0.60648  1.0000
  C   C187      1.0  0.7755  0.40165  0.5531099999999999  1.0000
  C   C188      1.0  0.8259700000000002  0.3476  0.54519  1.0000
  C   C189      1.0  0.84704  0.3041399999999999  0.59083  1.0000
  C   C190      1.0  0.8185600000000002  0.31702  0.64471  1.0000
  C   C191      1.0  0.76661  0.36963  0.6522899999999999  1.0000
  C   C192      1.0  0.8949000000000003  0.24125  0.58146  1.0000
  N   N1        1.0  0.55812  0.41237  0.10349999999999998  1.0000
  N   N2        1.0  0.69063  0.535  0.17132999999999995  1.0000
  N   N3        1.0  0.58768  0.65449  0.16035999999999997  1.0000
  N   N4        1.0  0.46301000000000014  0.53582  0.08527  1.0000
  N   N5        1.0  0.58763  0.44187  0.3965  1.0000
  N   N6        1.0  0.46501  0.3093600000000001  0.32867  1.0000
  N   N7        1.0  0.34551999999999994  0.41231999999999985  0.33963  1.0000
  N   N8        1.0  0.46419  0.53699  0.41473  1.0000
  N   N9        1.0  0.44187000000000004  0.5876300000000001  0.89651  1.0000
  N   N10       1.0  0.3093699999999999  0.4649999999999999  0.8286699999999998  1.0000
  N   N11       1.0  0.41231999999999996  0.3455099999999999  0.83964  1.0000
  N   N12       1.0  0.5369900000000002  0.4641799999999998  0.9147299999999998  1.0000
  N   N13       1.0  0.41236  0.55813  0.6035  1.0000
  N   N14       1.0  0.5349899999999999  0.6906399999999999  0.67133  1.0000
  N   N15       1.0  0.65448  0.58769  0.6603699999999999  1.0000
  N   N16       1.0  0.53581  0.46302  0.58527  1.0000
  O   O1        1.0  0.07549  0.07267  0.97983  1.0000
  O   O2        1.0  0.13065999999999994  0.11106  0.89454  1.0000
  O   O3        1.0  0.9203900000000003  0.13137  0.17202999999999996  1.0000
  O   O4        1.0  0.92059  0.13506  0.07675  1.0000
  O   O5        1.0  0.99145  0.012379999999999995  0.34575999999999996  1.0000
  O   O6        1.0  0.02101999999999993  0.9077899999999998  0.39382  1.0000
  O   O7        1.0  0.2094000000000001  0.90079  0.03425  1.0000
  O   O8        1.0  0.22118000000000002  0.9287  0.1288  1.0000
  O   O9        1.0  0.92734  0.92452  0.5201699999999999  1.0000
  O   O10       1.0  0.8889300000000001  0.86934  0.60547  1.0000
  O   O11       1.0  0.86864  0.07961  0.32797  1.0000
  O   O12       1.0  0.86494  0.07941999999999999  0.42324999999999996  1.0000
  O   O13       1.0  0.9876100000000001  0.00854  0.15425  1.0000
  O   O14       1.0  0.09221000000000004  0.97901  0.10617  1.0000
  O   O15       1.0  0.09920000000000001  0.79059  0.4657599999999999  1.0000
  O   O16       1.0  0.0713  0.7788  0.37119999999999986  1.0000
  O   O17       1.0  0.9245200000000001  0.9273399999999999  0.02017  1.0000
  O   O18       1.0  0.86934  0.88894  0.10546999999999997  1.0000
  O   O19       1.0  0.07960999999999997  0.86864  0.8279699999999999  1.0000
  O   O20       1.0  0.07940999999999998  0.86494  0.92325  1.0000
  O   O21       1.0  0.00855000000000002  0.98762  0.65424  1.0000
  O   O22       1.0  0.97897  0.09221  0.60618  1.0000
  O   O23       1.0  0.7906  0.09921  0.9657599999999997  1.0000
  O   O24       1.0  0.77882  0.0713  0.8712099999999999  1.0000
  O   O25       1.0  0.07265999999999999  0.07548999999999997  0.47983  1.0000
  O   O26       1.0  0.11107  0.13066  0.3945399999999999  1.0000
  O   O27       1.0  0.13136  0.92039  0.67203  1.0000
  O   O28       1.0  0.13506  0.92059  0.57676  1.0000
  O   O29       1.0  0.01239000000000002  0.99146  0.84575  1.0000
  O   O30       1.0  0.9077900000000002  0.020989999999999995  0.8938299999999999  1.0000
  O   O31       1.0  0.9008  0.20942  0.53425  1.0000
  O   O32       1.0  0.9287  0.22121000000000002  0.6288  1.0000
