data_image0
_chemical_formula_structural       Gd16H120C96N24O96
_chemical_formula_sum              "Gd16 H120 C96 N24 O96"
_cell_length_a       11.74393
_cell_length_b       19.14691
_cell_length_c       19.151969999999995
_cell_angle_alpha    84.50453999999999
_cell_angle_beta     72.08729
_cell_angle_gamma    72.05554

_space_group_name_H-M_alt    "P 1"
_space_group_IT_number       1

loop_
  _space_group_symop_operation_xyz
  'x, y, z'

loop_
  _atom_site_type_symbol
  _atom_site_label
  _atom_site_symmetry_multiplicity
  _atom_site_fract_x
  _atom_site_fract_y
  _atom_site_fract_z
  _atom_site_occupancy
  Gd  Gd1       1.0  0.5370699999999999  0.89411  0.52065  1.0000
  Gd  Gd2       1.0  0.010249999999999976  0.29814999999999997  0.36368  1.0000
  Gd  Gd3       1.0  0.46292000000000005  0.10589  0.47936  1.0000
  Gd  Gd4       1.0  0.04907999999999997  0.39377  0.02054  1.0000
  Gd  Gd5       1.0  0.19168  0.6367  0.79777  1.0000
  Gd  Gd6       1.0  0.06935000000000005  0.47949  0.3939  1.0000
  Gd  Gd7       1.0  0.9306499999999999  0.52051  0.6061000000000001  1.0000
  Gd  Gd8       1.0  0.6711499999999999  0.20218999999999998  0.13653  1.0000
  Gd  Gd9       1.0  0.6269099999999997  0.86365  0.7018400000000002  1.0000
  Gd  Gd10      1.0  0.37308  0.13635  0.29816000000000004  1.0000
  Gd  Gd11      1.0  0.9897499999999999  0.70185  0.63632  1.0000
  Gd  Gd12      1.0  0.95092  0.60623  0.97946  1.0000
  Gd  Gd13      1.0  0.32884999999999986  0.7978  0.8634800000000002  1.0000
  Gd  Gd14      1.0  0.94222  0.02063  0.10571000000000003  1.0000
  Gd  Gd15      1.0  0.8083200000000001  0.3633  0.20223  1.0000
  Gd  Gd16      1.0  0.05776999999999992  0.97937  0.8943  1.0000
  H   H1        1.0  0.92028  0.7807099999999999  0.4076200000000001  1.0000
  H   H2        1.0  0.37191  0.179  0.65962  1.0000
  H   H3        1.0  0.54699  0.46930000000000005  0.24469000000000002  1.0000
  H   H4        1.0  0.10706999999999996  0.71913  0.09247  1.0000
  H   H5        1.0  0.34668  0.44945  0.07693000000000001  1.0000
  H   H6        1.0  0.043049999999999984  0.09042999999999998  0.23183  1.0000
  H   H7        1.0  0.7163199999999995  0.3478  0.57718  1.0000
  H   H8        1.0  0.38977  0.54727  0.91555  1.0000
  H   H9        1.0  0.36165  0.44032000000000004  0.77679  1.0000
  H   H10       1.0  0.7237799999999998  0.73204  0.9102300000000001  1.0000
  H   H11       1.0  0.68713  0.63864  0.9837700000000001  1.0000
  H   H12       1.0  0.5324700000000001  0.64882  0.68321  1.0000
  H   H13       1.0  0.15997  0.14795  0.04548  1.0000
  H   H14       1.0  0.67294  0.9073699999999999  0.21895  1.0000
  H   H15       1.0  0.9947499999999999  0.33759  0.7592500000000002  1.0000
  H   H16       1.0  0.51605  0.24499  0.03113  1.0000
  H   H17       1.0  0.13499999999999998  0.14877  0.18279  1.0000
  H   H18       1.0  0.70578  0.07746  0.65299  1.0000
  H   H19       1.0  0.21228999999999998  0.32111  0.8400400000000001  1.0000
  H   H20       1.0  0.56263  0.08452  0.04748000000000001  1.0000
  H   H21       1.0  0.5432099999999997  0.5254  0.8520700000000002  1.0000
  H   H22       1.0  0.96748  0.16024  0.8215000000000002  1.0000
  H   H23       1.0  0.56448  0.5773  0.15257  1.0000
  H   H24       1.0  0.86047  0.8819399999999998  0.13629  1.0000
  H   H25       1.0  0.57856  0.05928  0.72326  1.0000
  H   H26       1.0  0.4530100000000002  0.5307  0.75531  1.0000
  H   H27       1.0  0.36581  0.40935  0.26781  1.0000
  H   H28       1.0  0.62809  0.821  0.34038  1.0000
  H   H29       1.0  0.7389599999999998  0.9687  0.74438  1.0000
  H   H30       1.0  0.21631999999999996  0.81696  0.64882  1.0000
  H   H31       1.0  0.050739999999999966  0.6599  0.32125  1.0000
  H   H32       1.0  0.7836799999999999  0.18304  0.35118000000000005  1.0000
  H   H33       1.0  0.63835  0.55968  0.22321000000000002  1.0000
  H   H34       1.0  0.65332  0.55055  0.92307  1.0000
  H   H35       1.0  0.24661000000000005  0.26007  0.66137  1.0000
  H   H36       1.0  0.56873  0.85182  0.9746000000000001  1.0000
  H   H37       1.0  0.12668999999999997  0.94926  0.57783  1.0000
  H   H38       1.0  0.4240199999999999  0.42234  0.4489600000000001  1.0000
  H   H39       1.0  0.6938500000000002  0.41587999999999997  0.45228  1.0000
  H   H40       1.0  0.19205999999999998  0.95403  0.64801  1.0000
  H   H41       1.0  0.16942  0.24063  0.83764  1.0000
  H   H42       1.0  0.17296999999999998  0.01673  0.13881  1.0000
  H   H43       1.0  0.005250000000000033  0.6624099999999999  0.24075  1.0000
  H   H44       1.0  0.7877099999999999  0.67889  0.15996  1.0000
  H   H45       1.0  0.27622000000000013  0.26796  0.08977  1.0000
  H   H46       1.0  0.011540000000000014  0.21933  0.94132  1.0000
  H   H47       1.0  0.17064  0.28064  0.55794  1.0000
  H   H48       1.0  0.84003  0.85205  0.95452  1.0000
  H   H49       1.0  0.12169999999999993  0.38216  0.6360600000000001  1.0000
  H   H50       1.0  0.43127  0.14818  0.0254  1.0000
  H   H51       1.0  0.8270299999999996  0.98327  0.8611900000000002  1.0000
  H   H52       1.0  0.09060999999999998  0.16227  0.7406  1.0000
  H   H53       1.0  0.83058  0.75937  0.16236  1.0000
  H   H54       1.0  0.30194  0.77619  0.05927000000000001  1.0000
  H   H55       1.0  0.07921999999999998  0.02506  0.3524  1.0000
  H   H56       1.0  0.7993  0.59254  0.28103  1.0000
  H   H57       1.0  0.80794  0.04596999999999999  0.3520000000000001  1.0000
  H   H58       1.0  0.82936  0.71936  0.44206  1.0000
  H   H59       1.0  0.46753  0.35118  0.31679  1.0000
  H   H60       1.0  0.20068999999999998  0.40745  0.7189800000000002  1.0000
  H   H61       1.0  0.3533599999999999  0.35231  0.4542  1.0000
  H   H62       1.0  0.69806  0.22381  0.94074  1.0000
  H   H63       1.0  0.8929199999999999  0.28087  0.9075300000000001  1.0000
  H   H64       1.0  0.7044499999999999  0.92269  0.9497000000000001  1.0000
  H   H65       1.0  0.4567899999999999  0.4746  0.14794  1.0000
  H   H66       1.0  0.20664000000000002  0.45392999999999994  0.14761  1.0000
  H   H67       1.0  0.43552  0.4227  0.8474400000000001  1.0000
  H   H68       1.0  0.14610999999999996  0.04769  0.41593  1.0000
  H   H69       1.0  0.32028  0.31659999999999994  0.14777000000000004  1.0000
  H   H70       1.0  0.6466399999999998  0.64769  0.5458  1.0000
  H   H71       1.0  0.29554  0.0773  0.05030000000000001  1.0000
  H   H72       1.0  0.8782999999999999  0.61784  0.3639400000000001  1.0000
  H   H73       1.0  0.31286999999999987  0.36136  0.01624  1.0000
  H   H74       1.0  0.6897299999999998  0.13887  0.48322000000000004  1.0000
  H   H75       1.0  0.5759700000000001  0.5776599999999998  0.55104  1.0000
  H   H76       1.0  0.9569399999999999  0.90957  0.7681800000000001  1.0000
  H   H77       1.0  0.9517900000000001  0.5583  0.21963000000000002  1.0000
  H   H78       1.0  0.99749  0.36344  0.8817200000000001  1.0000
  H   H79       1.0  0.20723999999999995  0.74432  0.53089  1.0000
  H   H80       1.0  0.6049  0.35192  0.47468000000000005  1.0000
  H   H81       1.0  0.28368000000000004  0.6522  0.4228200000000001  1.0000
  H   H82       1.0  0.6411299999999999  0.15387  0.92259  1.0000
  H   H83       1.0  0.24133999999999997  0.13653999999999997  0.6182200000000002  1.0000
  H   H84       1.0  0.87331  0.05074  0.4221800000000001  1.0000
  H   H85       1.0  0.67065  0.5167  0.63936  1.0000
  H   H86       1.0  0.29422  0.9225399999999999  0.34701  1.0000
  H   H87       1.0  0.94926  0.3401  0.6787500000000001  1.0000
  H   H88       1.0  0.61022  0.45273  0.08445  1.0000
  H   H89       1.0  0.7927600000000001  0.25568  0.46911  1.0000
  H   H90       1.0  0.6797200000000001  0.6834  0.85223  1.0000
  H   H91       1.0  0.7933600000000002  0.54607  0.85239  1.0000
  H   H92       1.0  0.26104  0.0313  0.25562  1.0000
  H   H93       1.0  0.13904999999999995  0.72309  0.44002000000000013  1.0000
  H   H94       1.0  0.75339  0.73993  0.3386300000000001  1.0000
  H   H95       1.0  0.0025000000000000573  0.63656  0.11828  1.0000
  H   H96       1.0  0.7298  0.94083  0.28055  1.0000
  H   H97       1.0  0.3588600000000001  0.8461299999999999  0.07741000000000002  1.0000
  H   H98       1.0  0.3293499999999999  0.4833  0.36064  1.0000
  H   H99       1.0  0.43736999999999987  0.91548  0.9525200000000001  1.0000
  H   H100      1.0  0.75866  0.86346  0.38178000000000006  1.0000
  H   H101      1.0  0.32706  0.09262999999999999  0.78106  1.0000
  H   H102      1.0  0.8609499999999999  0.27691  0.5599800000000001  1.0000
  H   H103      1.0  0.04819999999999996  0.4417  0.78037  1.0000
  H   H104      1.0  0.48394999999999994  0.755  0.96887  1.0000
  H   H105      1.0  0.8538899999999998  0.95231  0.5840700000000001  1.0000
  H   H106      1.0  0.31027  0.86113  0.51678  1.0000
  H   H107      1.0  0.07970999999999998  0.21928  0.59239  1.0000
  H   H108      1.0  0.13953  0.11805999999999998  0.86371  1.0000
  H   H109      1.0  0.03252  0.83976  0.17850000000000005  1.0000
  H   H110      1.0  0.30615  0.58412  0.54772  1.0000
  H   H111      1.0  0.90938  0.8377299999999999  0.25941  1.0000
  H   H112      1.0  0.92078  0.9749400000000001  0.6476000000000001  1.0000
  H   H113      1.0  0.39509999999999995  0.64807  0.52532  1.0000
  H   H114      1.0  0.9884500000000002  0.78067  0.05868  1.0000
  H   H115      1.0  0.6341900000000001  0.59065  0.7321900000000001  1.0000
  H   H116      1.0  0.63299  0.23191  0.4092  1.0000
  H   H117      1.0  0.42144  0.94072  0.27674  1.0000
  H   H118      1.0  0.36700999999999995  0.76809  0.5908  1.0000
  H   H119      1.0  0.8649899999999998  0.85123  0.8172200000000002  1.0000
  H   H120      1.0  0.27019999999999994  0.05916  0.71945  1.0000
  C   C1        1.0  0.8285500000000001  0.7770299999999999  0.44232000000000005  1.0000
  C   C2        1.0  0.21385999999999997  0.94812  0.58827  1.0000
  C   C3        1.0  0.5660299999999999  0.85344  0.8614100000000002  1.0000
  C   C4        1.0  0.7861399999999998  0.05186999999999999  0.41173  1.0000
  C   C5        1.0  0.6715399999999998  0.17419  0.9634800000000002  1.0000
  C   C6        1.0  0.9539000000000001  0.27698  0.94209  1.0000
  C   C7        1.0  0.40748999999999996  0.97404  0.38214  1.0000
  C   C8        1.0  0.9479199999999999  0.87424  0.21704000000000007  1.0000
  C   C9        1.0  0.33791  0.412  0.44783000000000006  1.0000
  C   C10       1.0  0.4339700000000001  0.14656  0.13859  1.0000
  C   C11       1.0  0.0516199999999999  0.8263399999999999  0.8268300000000002  1.0000
  C   C12       1.0  0.010730000000000028  0.07181999999999998  0.74798  1.0000
  C   C13       1.0  0.11803000000000002  0.61789  0.47382  1.0000
  C   C14       1.0  0.30362999999999996  0.64075  0.55668  1.0000
  C   C15       1.0  0.17144999999999994  0.22296999999999997  0.5576800000000001  1.0000
  C   C16       1.0  0.25011999999999995  0.44813  0.08781  1.0000
  C   C17       1.0  0.5925099999999999  0.025959999999999997  0.6178600000000001  1.0000
  C   C18       1.0  0.19148000000000007  0.67334  0.46320000000000006  1.0000
  C   C19       1.0  0.75829  0.75299  0.07175  1.0000
  C   C20       1.0  0.6547000000000001  0.03669  0.67357  1.0000
  C   C21       1.0  0.32144  0.21737  0.62519  1.0000
  C   C22       1.0  0.8912  0.47875  0.29039  1.0000
  C   C23       1.0  0.5835099999999999  0.74746  0.42874  1.0000
  C   C24       1.0  0.17787999999999998  0.51487  0.05251  1.0000
  C   C25       1.0  0.9614  0.3743  0.71718  1.0000
  C   C26       1.0  0.6302000000000001  0.61961  0.68009  1.0000
  C   C27       1.0  0.57316  0.36154  0.14653  1.0000
  C   C28       1.0  0.7462400000000001  0.98508  0.44727  1.0000
  C   C29       1.0  0.49867  0.14103  0.05673000000000001  1.0000
  C   C30       1.0  0.31085  0.82021  0.61967  1.0000
  C   C31       1.0  0.4164899999999999  0.25254  0.5712600000000002  1.0000
  C   C32       1.0  0.80239  0.9118  0.9482300000000001  1.0000
  C   C33       1.0  0.36978999999999973  0.38039  0.31991  1.0000
  C   C34       1.0  0.7644900000000001  0.5253  0.11809  1.0000
  C   C35       1.0  0.046099999999999974  0.72302  0.057920000000000006  1.0000
  C   C36       1.0  0.74988  0.55187  0.9121900000000001  1.0000
  C   C37       1.0  0.7193700000000001  0.35359  0.36155  1.0000
  C   C38       1.0  0.05206999999999999  0.12576  0.78296  1.0000
  C   C39       1.0  0.6891500000000002  0.17979  0.38034  1.0000
  C   C40       1.0  0.72997  0.94192  0.2229  1.0000
  C   C41       1.0  0.94838  0.17366  0.17317000000000005  1.0000
  C   C42       1.0  0.25375  0.014919999999999998  0.55273  1.0000
  C   C43       1.0  0.3398499999999999  0.97887  0.78996  1.0000
  C   C44       1.0  0.8948100000000001  0.55781  0.27729  1.0000
  C   C45       1.0  0.07994  0.13853  0.35359  1.0000
  C   C46       1.0  0.88197  0.38211  0.52618  1.0000
  C   C47       1.0  0.98927  0.9281799999999999  0.25202  1.0000
  C   C48       1.0  0.6963700000000003  0.35925  0.44332  1.0000
  C   C49       1.0  0.8608300000000001  0.9433499999999999  0.64063  1.0000
  C   C50       1.0  0.12855000000000003  0.71006  0.97883  1.0000
  C   C51       1.0  0.8310099999999999  0.42811999999999995  0.75284  1.0000
  C   C52       1.0  0.29600999999999994  0.32624  0.32726000000000005  1.0000
  C   C53       1.0  0.3284600000000001  0.82581  0.03652  1.0000
  C   C54       1.0  0.10517999999999994  0.44218999999999997  0.7227200000000001  1.0000
  C   C55       1.0  0.50133  0.85897  0.94327  1.0000
  C   C56       1.0  0.12364000000000001  0.32661  0.17356  1.0000
  C   C57       1.0  0.81928  0.79034  0.52122  1.0000
  C   C58       1.0  0.66208  0.588  0.55217  1.0000
  C   C59       1.0  0.28063000000000005  0.64641  0.63845  1.0000
  C   C60       1.0  0.4268299999999999  0.63846  0.8534800000000002  1.0000
  C   C61       1.0  0.8085099999999998  0.32665999999999995  0.5368  1.0000
  C   C62       1.0  0.80806  0.94765  0.014260000000000004  1.0000
  C   C63       1.0  0.19194000000000003  0.05235  0.98574  1.0000
  C   C64       1.0  0.5556300000000001  0.44339999999999996  0.14091000000000006  1.0000
  C   C65       1.0  0.9303299999999997  0.88041  0.8202100000000001  1.0000
  C   C66       1.0  0.8343200000000001  0.71728  0.12568  1.0000
  C   C67       1.0  0.7693299999999998  0.55171  0.48594000000000004  1.0000
  C   C68       1.0  0.16898999999999997  0.57187  0.24717  1.0000
  C   C69       1.0  0.44437000000000015  0.5566  0.85909  1.0000
  C   C70       1.0  0.23066999999999993  0.44828999999999997  0.51406  1.0000
  C   C71       1.0  0.87145  0.28994  0.02118  1.0000
  C   C72       1.0  0.18071999999999983  0.20966  0.47878000000000004  1.0000
  C   C73       1.0  0.2107600000000001  0.8818499999999999  0.025530000000000008  1.0000
  C   C74       1.0  0.62263  0.17253  0.32621  1.0000
  C   C75       1.0  0.66014  0.02112  0.21004  1.0000
  C   C76       1.0  0.3773700000000001  0.82747  0.67379  1.0000
  C   C77       1.0  0.9200600000000001  0.86147  0.64641  1.0000
  C   C78       1.0  0.34529999999999994  0.9633100000000001  0.32643  1.0000
  C   C79       1.0  0.3646899999999999  0.46342  0.82637  1.0000
  C   C80       1.0  0.8763600000000001  0.67339  0.82645  1.0000
  C   C81       1.0  0.24170999999999992  0.24701  0.9282600000000001  1.0000
  C   C82       1.0  0.7039800000000002  0.67375  0.67274  1.0000
  C   C83       1.0  0.19761000000000004  0.0882  0.05177000000000001  1.0000
  C   C84       1.0  0.8221199999999997  0.48513  0.9474900000000003  1.0000
  C   C85       1.0  0.23551000000000002  0.4747  0.88192  1.0000
  C   C86       1.0  0.25126  0.31986  0.11898000000000002  1.0000
  C   C87       1.0  0.27003000000000005  0.05808  0.7771  1.0000
  C   C88       1.0  0.13915999999999998  0.056650000000000006  0.35937  1.0000
  C   C89       1.0  0.06966999999999997  0.11958999999999999  0.17979000000000006  1.0000
  C   C90       1.0  0.7487400000000002  0.68014  0.8810200000000001  1.0000
  C   C91       1.0  0.10879999999999991  0.52125  0.70961  1.0000
  C   C92       1.0  0.038599999999999954  0.6257  0.28282  1.0000
  C   C93       1.0  0.67856  0.78263  0.37481  1.0000
  C   C94       1.0  0.78924  0.11814999999999999  0.97447  1.0000
  C   C95       1.0  0.6353099999999998  0.53657  0.17363000000000003  1.0000
  C   C96       1.0  0.16567999999999994  0.28272  0.8743200000000002  1.0000
  N   N1        1.0  0.27364999999999995  0.17584  0.58545  1.0000
  N   N2        1.0  0.12150000000000002  0.06452  0.12109  1.0000
  N   N3        1.0  0.72634  0.8241599999999999  0.41455  1.0000
  N   N4        1.0  0.26663999999999993  0.03406  0.3074600000000001  1.0000
  N   N5        1.0  0.31405999999999995  0.87893  0.56441  1.0000
  N   N6        1.0  0.9634899999999998  0.67582  0.08559  1.0000
  N   N7        1.0  0.6923600000000002  0.5643299999999999  0.62154  1.0000
  N   N8        1.0  0.8784999999999998  0.93548  0.87891  1.0000
  N   N9        1.0  0.036510000000000035  0.32418  0.91442  1.0000
  N   N10       1.0  0.19878  0.69247  0.53391  1.0000
  N   N11       1.0  0.60794  0.46608000000000005  0.19299  1.0000
  N   N12       1.0  0.39206  0.53392  0.80701  1.0000
  N   N13       1.0  0.30764  0.43566  0.37846  1.0000
  N   N14       1.0  0.42624999999999996  0.80682  0.96591  1.0000
  N   N15       1.0  0.8599100000000005  0.91441  0.17573  1.0000
  N   N16       1.0  0.14008999999999985  0.08559  0.8242700000000002  1.0000
  N   N17       1.0  0.8012200000000002  0.30751999999999996  0.46609000000000006  1.0000
  N   N18       1.0  0.05014999999999994  0.41457  0.6756200000000001  1.0000
  N   N19       1.0  0.68594  0.12106999999999998  0.43559000000000003  1.0000
  N   N20       1.0  0.7333600000000002  0.96594  0.6925400000000002  1.0000
  N   N21       1.0  0.75637  0.62116  0.9360000000000002  1.0000
  N   N22       1.0  0.24363  0.37884  0.06401  1.0000
  N   N23       1.0  0.9498500000000002  0.58542  0.32438  1.0000
  N   N24       1.0  0.5737499999999999  0.19318  0.03409000000000001  1.0000
  O   O1        1.0  0.03435000000000001  0.5659  0.6774  1.0000
  O   O2        1.0  0.84029  0.46005999999999997  0.11111000000000001  1.0000
  O   O3        1.0  0.88539  0.15014  0.14108  1.0000
  O   O4        1.0  0.82207  0.9313199999999999  0.4654600000000001  1.0000
  O   O5        1.0  0.16716000000000006  0.68026  0.67679  1.0000
  O   O6        1.0  0.08628000000000006  0.7638099999999999  0.79904  1.0000
  O   O7        1.0  0.28644  0.03118  0.9329300000000001  1.0000
  O   O8        1.0  0.81789  0.4618900000000001  0.26338000000000006  1.0000
  O   O9        1.0  0.9523100000000001  0.3889099999999999  0.4614400000000001  1.0000
  O   O10       1.0  0.35181000000000007  0.26351  0.3  1.0000
  O   O11       1.0  0.78257  0.4312  0.96569  1.0000
  O   O12       1.0  0.62887  0.98927  0.45414000000000004  1.0000
  O   O13       1.0  0.04769000000000002  0.61109  0.53856  1.0000
  O   O14       1.0  0.90163  0.32172  0.06578  1.0000
  O   O15       1.0  0.9198399999999999  0.76353  0.5380800000000001  1.0000
  O   O16       1.0  0.4113599999999999  0.03908  0.3891400000000001  1.0000
  O   O17       1.0  0.1772700000000001  0.34979  0.35978  1.0000
  O   O18       1.0  0.53723  0.13943  0.3496200000000001  1.0000
  O   O19       1.0  0.5254299999999997  0.8195  0.8229900000000001  1.0000
  O   O20       1.0  0.5378400000000001  0.7754199999999999  0.49453  1.0000
  O   O21       1.0  0.1547499999999999  0.17689  0.3195300000000001  1.0000
  O   O22       1.0  0.46277  0.86057  0.6503800000000002  1.0000
  O   O23       1.0  0.65013  0.20049  0.26374  1.0000
  O   O24       1.0  0.6481899999999999  0.73649  0.7  1.0000
  O   O25       1.0  0.5193900000000001  0.33032  0.11767  1.0000
  O   O26       1.0  0.45211999999999997  0.91811  0.4167600000000001  1.0000
  O   O27       1.0  0.1821000000000001  0.5381099999999999  0.73662  1.0000
  O   O28       1.0  0.029919999999999867  0.00636  0.7768700000000002  1.0000
  O   O29       1.0  0.78825  0.58099  0.08339000000000002  1.0000
  O   O30       1.0  0.65204  0.32314999999999994  0.1807  1.0000
  O   O31       1.0  0.44363999999999987  0.30237  0.59327  1.0000
  O   O32       1.0  0.27826  0.93415  0.8220700000000002  1.0000
  O   O33       1.0  0.19343999999999983  0.2748  0.9941000000000002  1.0000
  O   O34       1.0  0.37113  0.01073  0.54586  1.0000
  O   O35       1.0  0.47457  0.1805  0.17701  1.0000
  O   O36       1.0  0.34794999999999976  0.67685  0.8193000000000003  1.0000
  O   O37       1.0  0.5563599999999999  0.69762  0.4067400000000001  1.0000
  O   O38       1.0  0.8452499999999997  0.82311  0.6804700000000001  1.0000
  O   O39       1.0  0.11755000000000002  0.29934  0.23625000000000002  1.0000
  O   O40       1.0  0.6514500000000001  0.8821099999999998  0.83024  1.0000
  O   O41       1.0  0.48061000000000004  0.66968  0.88233  1.0000
  O   O42       1.0  0.5886300000000001  0.96092  0.6108600000000001  1.0000
  O   O43       1.0  0.09837000000000003  0.6782699999999999  0.9342200000000002  1.0000
  O   O44       1.0  0.21173999999999993  0.41901  0.91661  1.0000
  O   O45       1.0  0.54276  0.03799  0.237  1.0000
  O   O46       1.0  0.63636  0.38216  0.3304  1.0000
  O   O47       1.0  0.15970999999999996  0.53994  0.8889000000000001  1.0000
  O   O48       1.0  0.82273  0.6502099999999998  0.64022  1.0000
  O   O49       1.0  0.6593700000000001  0.8031199999999998  0.09373  1.0000
  O   O50       1.0  0.2191699999999998  0.7368  0.9618100000000003  1.0000
  O   O51       1.0  0.34062999999999993  0.19688  0.9062800000000001  1.0000
  O   O52       1.0  0.5478799999999999  0.08189  0.5832400000000002  1.0000
  O   O53       1.0  0.7135500000000001  0.96882  0.06708  1.0000
  O   O54       1.0  0.71284  0.82254  0.56586  1.0000
  O   O55       1.0  0.21743000000000007  0.5688  0.03431000000000001  1.0000
  O   O56       1.0  0.91372  0.23618999999999998  0.20096  1.0000
  O   O57       1.0  0.46215999999999996  0.22457999999999997  0.50547  1.0000
  O   O58       1.0  0.08010000000000003  0.04811  0.98934  1.0000
  O   O59       1.0  0.13071000000000002  0.5832  0.41768  1.0000
  O   O60       1.0  0.79996  0.1111  0.03959  1.0000
  O   O61       1.0  0.72174  0.06585  0.17793  1.0000
  O   O62       1.0  0.027979999999999998  0.35843  0.15023  1.0000
  O   O63       1.0  0.9700800000000002  0.9936299999999999  0.22313000000000002  1.0000
  O   O64       1.0  0.2519199999999999  0.46853  0.56699  1.0000
  O   O65       1.0  0.2871600000000001  0.17746  0.4341400000000001  1.0000
  O   O66       1.0  0.83284  0.31974  0.3232100000000001  1.0000
  O   O67       1.0  0.7480700000000001  0.53147  0.43301  1.0000
  O   O68       1.0  0.4572400000000002  0.96201  0.763  1.0000
  O   O69       1.0  0.92836  0.48938  0.95423  1.0000
  O   O70       1.0  0.13160000000000002  0.91688  0.08110000000000003  1.0000
  O   O71       1.0  0.96233  0.09331999999999999  0.6976500000000001  1.0000
  O   O72       1.0  0.96564  0.43409999999999993  0.3226  1.0000
  O   O73       1.0  0.1176799999999999  0.45386  0.5105000000000001  1.0000
  O   O74       1.0  0.34986999999999996  0.79951  0.73626  1.0000
  O   O75       1.0  0.24602000000000002  0.59397  0.19732  1.0000
  O   O76       1.0  0.8684000000000001  0.08312  0.91891  1.0000
  O   O77       1.0  0.8823099999999999  0.54614  0.48950000000000005  1.0000
  O   O78       1.0  0.037670000000000044  0.9066799999999999  0.3023500000000001  1.0000
  O   O79       1.0  0.8130300000000003  0.49411999999999995  0.72515  1.0000
  O   O80       1.0  0.78082  0.2631899999999999  0.03819000000000001  1.0000
  O   O81       1.0  0.36362999999999995  0.61784  0.6696  1.0000
  O   O82       1.0  0.3485500000000001  0.11788999999999998  0.16976  1.0000
  O   O83       1.0  0.17792999999999998  0.06868  0.53454  1.0000
  O   O84       1.0  0.07164  0.51061  0.045770000000000005  1.0000
  O   O85       1.0  0.03413999999999989  0.8302599999999999  0.6176900000000002  1.0000
  O   O86       1.0  0.18696999999999997  0.50588  0.27486  1.0000
  O   O87       1.0  0.20003999999999997  0.88889  0.9604100000000001  1.0000
  O   O88       1.0  0.9658600000000002  0.16973999999999997  0.3823100000000001  1.0000
  O   O89       1.0  0.8065599999999999  0.72519  0.0059  1.0000
  O   O90       1.0  0.9720199999999999  0.64156  0.84977  1.0000
  O   O91       1.0  0.7539799999999999  0.40603  0.8026900000000002  1.0000
  O   O92       1.0  0.9198999999999999  0.9518899999999999  0.01066  1.0000
  O   O93       1.0  0.11460999999999998  0.84986  0.85892  1.0000
  O   O94       1.0  0.8824500000000002  0.70066  0.76375  1.0000
  O   O95       1.0  0.08015999999999997  0.23646000000000003  0.46193000000000006  1.0000
  O   O96       1.0  0.8692899999999996  0.41679999999999995  0.58232  1.0000
