data_image0
_chemical_formula_structural       Zn16H80C160N48O64
_chemical_formula_sum              "Zn16 H80 C160 N48 O64"
_cell_length_a       17.54779
_cell_length_b       17.91762
_cell_length_c       24.59857
_cell_angle_alpha    90.0
_cell_angle_beta     90.0
_cell_angle_gamma    90.09914

_symmetry_space_group_name_H-M    'P 1'
_symmetry_Int_Tables_number       1

loop_
  _symmetry_equiv_pos_as_xyz
  'x,y,z'

loop_
  _atom_site_type_symbol
  _atom_site_label
  _atom_site_symmetry_multiplicity
  _atom_site_fract_x
  _atom_site_fract_y
  _atom_site_fract_z
  _atom_site_occupancy
  Zn  Zn1       1.0  0.18829  0.019820000000000004  0.56934  1.0000
  Zn  Zn2       1.0  0.25235  0.93899  0.32172  1.0000
  Zn  Zn3       1.0  0.18824  0.48014000000000007  0.93092  1.0000
  Zn  Zn4       1.0  0.2522  0.56079  0.17843000000000003  1.0000
  Zn  Zn5       1.0  0.3117  0.98018  0.06934  1.0000
  Zn  Zn6       1.0  0.24764999999999998  0.06101  0.82172  1.0000
  Zn  Zn7       1.0  0.31176  0.51985  0.43092  1.0000
  Zn  Zn8       1.0  0.24779999999999996  0.43921  0.67843  1.0000
  Zn  Zn9       1.0  0.8116999999999998  0.98018  0.43066  1.0000
  Zn  Zn10      1.0  0.74764  0.06101  0.67828  1.0000
  Zn  Zn11      1.0  0.81176  0.51985  0.06909  1.0000
  Zn  Zn12      1.0  0.7478  0.43921  0.8215700000000001  1.0000
  Zn  Zn13      1.0  0.6882899999999997  0.019820000000000004  0.93067  1.0000
  Zn  Zn14      1.0  0.75235  0.93899  0.17828  1.0000
  Zn  Zn15      1.0  0.68823  0.48014000000000007  0.56909  1.0000
  Zn  Zn16      1.0  0.7522  0.56079  0.32157  1.0000
  H   H1        1.0  0.93356  0.0853  0.44375000000000003  1.0000
  H   H2        1.0  0.94306  0.85921  0.40953  1.0000
  H   H3        1.0  0.07623999999999997  0.09398  0.45  1.0000
  H   H4        1.0  0.08571999999999998  0.85905  0.41251  1.0000
  H   H5        1.0  0.36729  0.67788  0.16938000000000003  1.0000
  H   H6        1.0  0.14043  0.8363  0.18898  1.0000
  H   H7        1.0  0.13306  0.69695  0.18176  1.0000
  H   H8        1.0  0.38481  0.8169600000000001  0.17723  1.0000
  H   H9        1.0  0.42182  0.00058  0.4735500000000001  1.0000
  H   H10       1.0  0.27224  0.16324  0.21719  1.0000
  H   H11       1.0  0.93307  0.41455  0.05617  1.0000
  H   H12       1.0  0.9434  0.64061  0.09037000000000002  1.0000
  H   H13       1.0  0.07575  0.40578  0.05013  1.0000
  H   H14       1.0  0.08606  0.64073  0.0876  1.0000
  H   H15       1.0  0.3675799999999999  0.82211  0.3305800000000001  1.0000
  H   H16       1.0  0.14037999999999998  0.66327  0.31084  1.0000
  H   H17       1.0  0.1332  0.80265  0.31808  1.0000
  H   H18       1.0  0.38464  0.68295  0.32255  1.0000
  H   H19       1.0  0.4218299999999999  0.50217  0.026270000000000005  1.0000
  H   H20       1.0  0.27213  0.33660000000000007  0.28317  1.0000
  H   H21       1.0  0.56643  0.9147  0.9437500000000002  1.0000
  H   H22       1.0  0.55693  0.14079  0.90953  1.0000
  H   H23       1.0  0.4237599999999999  0.90601  0.9500000000000001  1.0000
  H   H24       1.0  0.41428  0.14095000000000002  0.91251  1.0000
  H   H25       1.0  0.13271  0.32212  0.6693800000000001  1.0000
  H   H26       1.0  0.35956  0.1637  0.68898  1.0000
  H   H27       1.0  0.36694  0.30304  0.68176  1.0000
  H   H28       1.0  0.11518999999999999  0.18304  0.6772300000000001  1.0000
  H   H29       1.0  0.07817000000000002  0.9994200000000001  0.97355  1.0000
  H   H30       1.0  0.22775  0.8367500000000001  0.7171900000000001  1.0000
  H   H31       1.0  0.56692  0.58545  0.55617  1.0000
  H   H32       1.0  0.55659  0.35939  0.59037  1.0000
  H   H33       1.0  0.42424  0.5942200000000002  0.55013  1.0000
  H   H34       1.0  0.41393  0.35927  0.5876  1.0000
  H   H35       1.0  0.13242  0.17789000000000005  0.83058  1.0000
  H   H36       1.0  0.35961  0.33672  0.81084  1.0000
  H   H37       1.0  0.36679  0.19735  0.81808  1.0000
  H   H38       1.0  0.11535999999999999  0.31705  0.8225500000000001  1.0000
  H   H39       1.0  0.07816  0.49783000000000005  0.52626  1.0000
  H   H40       1.0  0.22786999999999993  0.6634  0.7831700000000001  1.0000
  H   H41       1.0  0.06643  0.9147  0.55626  1.0000
  H   H42       1.0  0.05693  0.14079  0.59047  1.0000
  H   H43       1.0  0.92375  0.90601  0.55  1.0000
  H   H44       1.0  0.91428  0.14095000000000002  0.58749  1.0000
  H   H45       1.0  0.63271  0.32212  0.83063  1.0000
  H   H46       1.0  0.8595599999999999  0.1637  0.8110300000000003  1.0000
  H   H47       1.0  0.8669299999999999  0.30305  0.81824  1.0000
  H   H48       1.0  0.61519  0.18304  0.82278  1.0000
  H   H49       1.0  0.57817  0.9994200000000001  0.52646  1.0000
  H   H50       1.0  0.72775  0.8367500000000001  0.78281  1.0000
  H   H51       1.0  0.06692  0.58545  0.9438300000000002  1.0000
  H   H52       1.0  0.05658999999999999  0.35939  0.90963  1.0000
  H   H53       1.0  0.92424  0.5942200000000002  0.9498800000000001  1.0000
  H   H54       1.0  0.9139300000000001  0.35927  0.9124  1.0000
  H   H55       1.0  0.63242  0.17789000000000005  0.6694200000000001  1.0000
  H   H56       1.0  0.85961  0.33672  0.68916  1.0000
  H   H57       1.0  0.8667899999999997  0.19735  0.68192  1.0000
  H   H58       1.0  0.61535  0.31705  0.67746  1.0000
  H   H59       1.0  0.57816  0.49783000000000005  0.97374  1.0000
  H   H60       1.0  0.72787  0.6634  0.71683  1.0000
  H   H61       1.0  0.4335599999999999  0.0853  0.05626  1.0000
  H   H62       1.0  0.44307  0.85921  0.09047  1.0000
  H   H63       1.0  0.57624  0.09398  0.05  1.0000
  H   H64       1.0  0.58571  0.85905  0.08749  1.0000
  H   H65       1.0  0.8672899999999998  0.67788  0.33063  1.0000
  H   H66       1.0  0.64043  0.8363  0.31102  1.0000
  H   H67       1.0  0.63306  0.69695  0.31824  1.0000
  H   H68       1.0  0.88481  0.8169600000000001  0.32278  1.0000
  H   H69       1.0  0.92182  0.00058  0.02646  1.0000
  H   H70       1.0  0.77224  0.16324  0.28281  1.0000
  H   H71       1.0  0.43307  0.41455  0.44383  1.0000
  H   H72       1.0  0.44341  0.64061  0.40963  1.0000
  H   H73       1.0  0.5757499999999999  0.40578  0.4498700000000001  1.0000
  H   H74       1.0  0.58606  0.64073  0.41240000000000004  1.0000
  H   H75       1.0  0.86758  0.82211  0.16942000000000002  1.0000
  H   H76       1.0  0.6403799999999998  0.66327  0.18916  1.0000
  H   H77       1.0  0.6331999999999998  0.80265  0.18192  1.0000
  H   H78       1.0  0.88464  0.68295  0.17745  1.0000
  H   H79       1.0  0.9218299999999999  0.50217  0.47374  1.0000
  H   H80       1.0  0.77213  0.33660000000000007  0.21683  1.0000
  C   C1        1.0  0.33603  0.030210000000000004  0.5204  1.0000
  C   C2        1.0  0.26373  0.8375300000000002  0.18511  1.0000
  C   C3        1.0  0.17514  0.9800400000000001  0.4402  1.0000
  C   C4        1.0  0.96971  0.0366  0.43793  1.0000
  C   C5        1.0  0.9748399999999999  0.91029  0.4176200000000001  1.0000
  C   C6        1.0  0.29714  0.10315  0.1394  1.0000
  C   C7        1.0  0.36938  0.96129  0.39633000000000007  1.0000
  C   C8        1.0  0.2859599999999999  0.03623  0.17388000000000003  1.0000
  C   C9        1.0  0.2973  0.97273  0.42659  1.0000
  C   C10       1.0  0.26173  0.02973  0.22744000000000003  1.0000
  C   C11       1.0  0.28449  0.00468  0.47732  1.0000
  C   C12       1.0  0.2706  0.91863  0.19246  1.0000
  C   C13       1.0  0.09251  0.9767600000000001  0.43258  1.0000
  C   C14       1.0  0.04856  0.041100000000000005  0.44101  1.0000
  C   C15       1.0  0.05413  0.9104900000000001  0.41903000000000007  1.0000
  C   C16       1.0  0.31898  0.7155300000000002  0.17368  1.0000
  C   C17       1.0  0.25018  0.08471  0.27091  1.0000
  C   C18       1.0  0.19193  0.8028900000000001  0.18535000000000001  1.0000
  C   C19       1.0  0.18780999999999995  0.72564  0.18075000000000002  1.0000
  C   C20       1.0  0.32799  0.79244  0.17766  1.0000
  C   C21       1.0  0.33606  0.47092  0.97956  1.0000
  C   C22       1.0  0.26363  0.66232  0.31477  1.0000
  C   C23       1.0  0.17507  0.51989  0.05998  1.0000
  C   C24       1.0  0.96943  0.46322  0.06196000000000001  1.0000
  C   C25       1.0  0.975  0.58954  0.08228  1.0000
  C   C26       1.0  0.29699  0.3969  0.36097000000000007  1.0000
  C   C27       1.0  0.36932  0.54002  0.10356000000000001  1.0000
  C   C28       1.0  0.28566  0.46366  0.32629  1.0000
  C   C29       1.0  0.29727  0.52823  0.07332  1.0000
  C   C30       1.0  0.26154  0.47002  0.27272  1.0000
  C   C31       1.0  0.28442  0.49611  0.02262  1.0000
  C   C32       1.0  0.27044  0.58118  0.30764  1.0000
  C   C33       1.0  0.09245999999999997  0.52301  0.06759  1.0000
  C   C34       1.0  0.048279999999999997  0.45871  0.059010000000000014  1.0000
  C   C35       1.0  0.054289999999999984  0.58932  0.081  1.0000
  C   C36       1.0  0.31915  0.7844100000000002  0.32627  1.0000
  C   C37       1.0  0.25015  0.41482  0.22924000000000005  1.0000
  C   C38       1.0  0.1919  0.69684  0.31451  1.0000
  C   C39       1.0  0.18792999999999999  0.77408  0.31916  1.0000
  C   C40       1.0  0.32795  0.70752  0.3222  1.0000
  C   C41       1.0  0.16396  0.96979  0.020390000000000002  1.0000
  C   C42       1.0  0.23625999999999997  0.16247  0.68511  1.0000
  C   C43       1.0  0.32486  0.01996  0.9402  1.0000
  C   C44       1.0  0.53028  0.9634000000000001  0.9379400000000001  1.0000
  C   C45       1.0  0.52515  0.08971  0.91762  1.0000
  C   C46       1.0  0.20285  0.89685  0.6394000000000001  1.0000
  C   C47       1.0  0.13061  0.03871000000000001  0.89633  1.0000
  C   C48       1.0  0.21404  0.9637700000000001  0.6738800000000001  1.0000
  C   C49       1.0  0.20269  0.02727  0.92659  1.0000
  C   C50       1.0  0.23825999999999997  0.9702700000000001  0.72744  1.0000
  C   C51       1.0  0.2155  0.99532  0.9773200000000001  1.0000
  C   C52       1.0  0.2294  0.08137  0.69246  1.0000
  C   C53       1.0  0.40748  0.02324  0.9325800000000001  1.0000
  C   C54       1.0  0.45143  0.9589  0.9410100000000001  1.0000
  C   C55       1.0  0.44585999999999987  0.08951  0.91903  1.0000
  C   C56       1.0  0.18101  0.28446  0.67368  1.0000
  C   C57       1.0  0.24980999999999998  0.9152900000000002  0.77091  1.0000
  C   C58       1.0  0.3080599999999999  0.19711  0.68535  1.0000
  C   C59       1.0  0.31219  0.27435000000000004  0.6807500000000001  1.0000
  C   C60       1.0  0.172  0.20756  0.67767  1.0000
  C   C61       1.0  0.16393  0.52908  0.47956000000000004  1.0000
  C   C62       1.0  0.23637  0.33767  0.81477  1.0000
  C   C63       1.0  0.32492  0.48011  0.55999  1.0000
  C   C64       1.0  0.53056  0.53677  0.56196  1.0000
  C   C65       1.0  0.52499  0.41046  0.58228  1.0000
  C   C66       1.0  0.20299999999999999  0.6031000000000001  0.8609700000000002  1.0000
  C   C67       1.0  0.13068  0.45998000000000006  0.60356  1.0000
  C   C68       1.0  0.21434  0.53633  0.82629  1.0000
  C   C69       1.0  0.20272  0.47177  0.57332  1.0000
  C   C70       1.0  0.23845  0.52998  0.77272  1.0000
  C   C71       1.0  0.21557  0.50389  0.52262  1.0000
  C   C72       1.0  0.22956  0.41882  0.80764  1.0000
  C   C73       1.0  0.40754  0.47699  0.56759  1.0000
  C   C74       1.0  0.45170999999999994  0.54129  0.55901  1.0000
  C   C75       1.0  0.44571  0.41067000000000004  0.581  1.0000
  C   C76       1.0  0.18084  0.21559  0.8262700000000001  1.0000
  C   C77       1.0  0.24985  0.58518  0.72924  1.0000
  C   C78       1.0  0.30809  0.30315  0.81451  1.0000
  C   C79       1.0  0.31206  0.22592000000000004  0.8191600000000001  1.0000
  C   C80       1.0  0.17205  0.29247  0.8222  1.0000
  C   C81       1.0  0.66396  0.96979  0.47961  1.0000
  C   C82       1.0  0.73626  0.16247  0.81489  1.0000
  C   C83       1.0  0.82486  0.01996  0.55981  1.0000
  C   C84       1.0  0.030279999999999998  0.9634000000000001  0.56207  1.0000
  C   C85       1.0  0.02515  0.08971  0.58238  1.0000
  C   C86       1.0  0.7028499999999998  0.89685  0.8606000000000003  1.0000
  C   C87       1.0  0.63061  0.03871000000000001  0.60368  1.0000
  C   C88       1.0  0.71404  0.9637700000000001  0.82612  1.0000
  C   C89       1.0  0.7026899999999998  0.02727  0.57342  1.0000
  C   C90       1.0  0.73826  0.9702700000000001  0.77256  1.0000
  C   C91       1.0  0.7155  0.99532  0.52268  1.0000
  C   C92       1.0  0.7294  0.08137  0.80754  1.0000
  C   C93       1.0  0.9074799999999997  0.02324  0.56742  1.0000
  C   C94       1.0  0.95143  0.9589  0.55899  1.0000
  C   C95       1.0  0.94586  0.08951  0.58098  1.0000
  C   C96       1.0  0.68101  0.28446  0.8263200000000002  1.0000
  C   C97       1.0  0.74981  0.9152900000000002  0.72909  1.0000
  C   C98       1.0  0.80806  0.19711  0.8146600000000002  1.0000
  C   C99       1.0  0.8121799999999998  0.27435000000000004  0.8192500000000003  1.0000
  C   C100      1.0  0.672  0.20756  0.82234  1.0000
  C   C101      1.0  0.66393  0.52908  0.020440000000000003  1.0000
  C   C102      1.0  0.73637  0.33767  0.6852400000000001  1.0000
  C   C103      1.0  0.8249199999999998  0.48011  0.9400200000000001  1.0000
  C   C104      1.0  0.03056  0.53677  0.93804  1.0000
  C   C105      1.0  0.02499  0.41046  0.91773  1.0000
  C   C106      1.0  0.7029999999999998  0.6031000000000001  0.63904  1.0000
  C   C107      1.0  0.6306799999999998  0.45998000000000006  0.89644  1.0000
  C   C108      1.0  0.71434  0.53633  0.67372  1.0000
  C   C109      1.0  0.70272  0.47177  0.9266800000000001  1.0000
  C   C110      1.0  0.73845  0.52998  0.72728  1.0000
  C   C111      1.0  0.7155699999999998  0.50389  0.97738  1.0000
  C   C112      1.0  0.72956  0.41882  0.6923700000000002  1.0000
  C   C113      1.0  0.90753  0.47699  0.9324200000000001  1.0000
  C   C114      1.0  0.9517099999999998  0.54129  0.94099  1.0000
  C   C115      1.0  0.94571  0.41067000000000004  0.91901  1.0000
  C   C116      1.0  0.68084  0.21559  0.67373  1.0000
  C   C117      1.0  0.74985  0.58518  0.7707700000000001  1.0000
  C   C118      1.0  0.80809  0.30315  0.6855  1.0000
  C   C119      1.0  0.81206  0.22592000000000004  0.68085  1.0000
  C   C120      1.0  0.67205  0.29247  0.6778100000000001  1.0000
  C   C121      1.0  0.83603  0.030210000000000004  0.9796100000000001  1.0000
  C   C122      1.0  0.76373  0.8375300000000002  0.31489  1.0000
  C   C123      1.0  0.67513  0.9800400000000001  0.05980000000000001  1.0000
  C   C124      1.0  0.46971  0.0366  0.062070000000000014  1.0000
  C   C125      1.0  0.47483999999999993  0.91029  0.08238  1.0000
  C   C126      1.0  0.7971399999999997  0.10315  0.36060000000000003  1.0000
  C   C127      1.0  0.86938  0.96129  0.10367  1.0000
  C   C128      1.0  0.78595  0.03623  0.3261200000000001  1.0000
  C   C129      1.0  0.7972999999999998  0.97273  0.07341  1.0000
  C   C130      1.0  0.76173  0.02973  0.27256  1.0000
  C   C131      1.0  0.78449  0.00468  0.02268  1.0000
  C   C132      1.0  0.7706  0.91863  0.30754  1.0000
  C   C133      1.0  0.5925099999999998  0.9767600000000001  0.06742  1.0000
  C   C134      1.0  0.54856  0.041100000000000005  0.05899  1.0000
  C   C135      1.0  0.55413  0.9104900000000001  0.08097  1.0000
  C   C136      1.0  0.81898  0.7155300000000002  0.32632  1.0000
  C   C137      1.0  0.75018  0.08471  0.22909  1.0000
  C   C138      1.0  0.69193  0.8028900000000001  0.31466000000000005  1.0000
  C   C139      1.0  0.68781  0.72564  0.31925000000000003  1.0000
  C   C140      1.0  0.82799  0.79244  0.32234  1.0000
  C   C141      1.0  0.83606  0.47092  0.52044  1.0000
  C   C142      1.0  0.7636299999999998  0.66232  0.18523000000000003  1.0000
  C   C143      1.0  0.6750699999999997  0.51989  0.44002  1.0000
  C   C144      1.0  0.46942999999999996  0.46322  0.43804  1.0000
  C   C145      1.0  0.475  0.58954  0.4177200000000001  1.0000
  C   C146      1.0  0.79699  0.3969  0.13904  1.0000
  C   C147      1.0  0.86932  0.54002  0.39644  1.0000
  C   C148      1.0  0.78566  0.46366  0.17372  1.0000
  C   C149      1.0  0.7972699999999999  0.52823  0.4266800000000001  1.0000
  C   C150      1.0  0.76154  0.47002  0.22728  1.0000
  C   C151      1.0  0.78442  0.49611  0.47738000000000014  1.0000
  C   C152      1.0  0.77043  0.58118  0.19236  1.0000
  C   C153      1.0  0.59246  0.52301  0.43242  1.0000
  C   C154      1.0  0.54828  0.45871  0.44099000000000005  1.0000
  C   C155      1.0  0.55429  0.58932  0.4190100000000001  1.0000
  C   C156      1.0  0.81915  0.7844100000000002  0.17373  1.0000
  C   C157      1.0  0.75014  0.41482  0.27077  1.0000
  C   C158      1.0  0.6919  0.69684  0.1855  1.0000
  C   C159      1.0  0.6879299999999999  0.77408  0.18084  1.0000
  C   C160      1.0  0.8279499999999997  0.70752  0.17781  1.0000
  N   N1        1.0  0.22781  0.9561200000000001  0.40382  1.0000
  N   N2        1.0  0.20737  0.01004  0.48543000000000003  1.0000
  N   N3        1.0  0.29291  0.9656900000000002  0.1526  1.0000
  N   N4        1.0  0.25141  0.95512  0.23889000000000002  1.0000
  N   N5        1.0  0.25001  0.68201  0.17612  1.0000
  N   N6        1.0  0.93277  0.97174  0.42768000000000006  1.0000
  N   N7        1.0  0.22777999999999998  0.54418  0.09626000000000001  1.0000
  N   N8        1.0  0.20729  0.49005000000000004  0.014720000000000004  1.0000
  N   N9        1.0  0.29269  0.53424  0.34755  1.0000
  N   N10       1.0  0.25123  0.54456  0.26123  1.0000
  N   N11       1.0  0.25022  0.81782  0.32382  1.0000
  N   N12       1.0  0.93274  0.52807  0.07226  1.0000
  N   N13       1.0  0.27219  0.04388  0.9038300000000001  1.0000
  N   N14       1.0  0.29262  0.98996  0.9854300000000001  1.0000
  N   N15       1.0  0.20709  0.03431  0.6526100000000001  1.0000
  N   N16       1.0  0.24858000000000002  0.04488  0.73889  1.0000
  N   N17       1.0  0.24999  0.31799  0.67612  1.0000
  N   N18       1.0  0.56723  0.02826  0.92768  1.0000
  N   N19       1.0  0.27221999999999996  0.45582  0.59627  1.0000
  N   N20       1.0  0.29271  0.50995  0.51472  1.0000
  N   N21       1.0  0.2073  0.46576  0.8475500000000001  1.0000
  N   N22       1.0  0.24876999999999996  0.45542999999999995  0.76123  1.0000
  N   N23       1.0  0.24976999999999996  0.18217  0.8238200000000001  1.0000
  N   N24       1.0  0.56725  0.47193000000000007  0.57227  1.0000
  N   N25       1.0  0.77219  0.04388  0.59618  1.0000
  N   N26       1.0  0.79262  0.98996  0.51457  1.0000
  N   N27       1.0  0.70709  0.03431  0.8474  1.0000
  N   N28       1.0  0.74858  0.04488  0.76111  1.0000
  N   N29       1.0  0.74998  0.31799  0.82388  1.0000
  N   N30       1.0  0.06723  0.02826  0.57232  1.0000
  N   N31       1.0  0.77221  0.45582  0.9037400000000001  1.0000
  N   N32       1.0  0.7927  0.50995  0.98528  1.0000
  N   N33       1.0  0.7073  0.46576  0.65245  1.0000
  N   N34       1.0  0.74877  0.45542999999999995  0.73877  1.0000
  N   N35       1.0  0.74977  0.18217  0.67619  1.0000
  N   N36       1.0  0.06725999999999999  0.47193000000000007  0.92774  1.0000
  N   N37       1.0  0.7277999999999998  0.9561200000000001  0.09618  1.0000
  N   N38       1.0  0.7073699999999998  0.01004  0.01457  1.0000
  N   N39       1.0  0.7928999999999999  0.9656900000000002  0.3474  1.0000
  N   N40       1.0  0.7514099999999998  0.95512  0.26111  1.0000
  N   N41       1.0  0.75001  0.68201  0.32388  1.0000
  N   N42       1.0  0.43277  0.97174  0.07232  1.0000
  N   N43       1.0  0.7277799999999999  0.54418  0.40374  1.0000
  N   N44       1.0  0.70729  0.49005000000000004  0.48528  1.0000
  N   N45       1.0  0.79269  0.53424  0.15245  1.0000
  N   N46       1.0  0.7512199999999999  0.54456  0.23877000000000004  1.0000
  N   N47       1.0  0.7502199999999999  0.81782  0.17618000000000003  1.0000
  N   N48       1.0  0.43274  0.52807  0.42774000000000006  1.0000
  O   O1        1.0  0.3633999999999999  0.94154  0.34614000000000006  1.0000
  O   O2        1.0  0.4320399999999999  0.9709600000000002  0.42072  1.0000
  O   O3        1.0  0.30701  0.05552  0.56346  1.0000
  O   O4        1.0  0.40938  0.0256  0.5129  1.0000
  O   O5        1.0  0.31043  0.09115  0.08859  1.0000
  O   O6        1.0  0.2918999999999999  0.16683000000000003  0.16108  1.0000
  O   O7        1.0  0.23427999999999996  0.06079  0.31755  1.0000
  O   O8        1.0  0.25741  0.15555  0.25957  1.0000
  O   O9        1.0  0.36328  0.5581400000000001  0.15406  1.0000
  O   O10       1.0  0.43202  0.5326900000000001  0.07881  1.0000
  O   O11       1.0  0.3072  0.44465  0.93669  1.0000
  O   O12       1.0  0.40934999999999994  0.47734  0.98687  1.0000
  O   O13       1.0  0.31029  0.40911  0.41174  1.0000
  O   O14       1.0  0.29184  0.3331  0.33943  1.0000
  O   O15       1.0  0.23435999999999998  0.4382  0.18247  1.0000
  O   O16       1.0  0.25737  0.34412000000000004  0.24079  1.0000
  O   O17       1.0  0.13659  0.05846  0.84614  1.0000
  O   O18       1.0  0.06794999999999998  0.02903  0.9207200000000001  1.0000
  O   O19       1.0  0.19298  0.94448  0.06346  1.0000
  O   O20       1.0  0.09061  0.9744  0.01289  1.0000
  O   O21       1.0  0.18956  0.9088500000000002  0.58859  1.0000
  O   O22       1.0  0.2081  0.83317  0.66109  1.0000
  O   O23       1.0  0.26571  0.93921  0.81755  1.0000
  O   O24       1.0  0.24258  0.84445  0.7595700000000002  1.0000
  O   O25       1.0  0.13671  0.44186  0.65407  1.0000
  O   O26       1.0  0.06796999999999999  0.46730999999999995  0.57882  1.0000
  O   O27       1.0  0.1928  0.55535  0.43669  1.0000
  O   O28       1.0  0.09065  0.52266  0.48687  1.0000
  O   O29       1.0  0.1897  0.59089  0.91175  1.0000
  O   O30       1.0  0.20814999999999997  0.6669  0.83943  1.0000
  O   O31       1.0  0.26563  0.5618000000000001  0.6824700000000001  1.0000
  O   O32       1.0  0.24262  0.65588  0.7408000000000002  1.0000
  O   O33       1.0  0.63659  0.05846  0.6538700000000001  1.0000
  O   O34       1.0  0.56795  0.02903  0.57929  1.0000
  O   O35       1.0  0.69298  0.94448  0.43654  1.0000
  O   O36       1.0  0.59061  0.9744  0.4871100000000001  1.0000
  O   O37       1.0  0.68956  0.9088500000000002  0.91142  1.0000
  O   O38       1.0  0.7081  0.83317  0.8389200000000002  1.0000
  O   O39       1.0  0.76571  0.93921  0.68245  1.0000
  O   O40       1.0  0.74258  0.84445  0.74044  1.0000
  O   O41       1.0  0.6367099999999998  0.44186  0.84594  1.0000
  O   O42       1.0  0.56797  0.46730999999999995  0.92119  1.0000
  O   O43       1.0  0.6927999999999999  0.55535  0.06331  1.0000
  O   O44       1.0  0.5906399999999999  0.52266  0.01313  1.0000
  O   O45       1.0  0.6897  0.59089  0.58826  1.0000
  O   O46       1.0  0.70815  0.6669  0.6605800000000001  1.0000
  O   O47       1.0  0.7656299999999998  0.5618000000000001  0.81754  1.0000
  O   O48       1.0  0.74262  0.65588  0.75921  1.0000
  O   O49       1.0  0.8634  0.94154  0.15387  1.0000
  O   O50       1.0  0.93204  0.9709600000000002  0.07928  1.0000
  O   O51       1.0  0.8070099999999998  0.05552  0.93654  1.0000
  O   O52       1.0  0.90938  0.0256  0.9871100000000003  1.0000
  O   O53       1.0  0.81043  0.09115  0.41141  1.0000
  O   O54       1.0  0.79189  0.16683000000000003  0.33892000000000005  1.0000
  O   O55       1.0  0.73428  0.06079  0.18245  1.0000
  O   O56       1.0  0.7574099999999999  0.15555  0.24043  1.0000
  O   O57       1.0  0.86328  0.5581400000000001  0.3459400000000001  1.0000
  O   O58       1.0  0.9320199999999998  0.5326900000000001  0.42119  1.0000
  O   O59       1.0  0.80719  0.44465  0.56332  1.0000
  O   O60       1.0  0.90935  0.47734  0.51313  1.0000
  O   O61       1.0  0.81029  0.40911  0.08826  1.0000
  O   O62       1.0  0.79184  0.3331  0.16057  1.0000
  O   O63       1.0  0.73436  0.4382  0.31754  1.0000
  O   O64       1.0  0.75737  0.34412000000000004  0.25921  1.0000
