data_image0
_chemical_formula_structural       Ce4H72C120N12O36
_chemical_formula_sum              "Ce4 H72 C120 N12 O36"
_cell_length_a       11.21394
_cell_length_b       12.592610000000002
_cell_length_c       36.54187
_cell_angle_alpha    90.01788000000002
_cell_angle_beta     89.99730999999998
_cell_angle_gamma    117.96126000000001

_space_group_name_H-M_alt    "P 1"
_space_group_IT_number       1

loop_
  _space_group_symop_operation_xyz
  'x, y, z'

loop_
  _atom_site_type_symbol
  _atom_site_label
  _atom_site_symmetry_multiplicity
  _atom_site_fract_x
  _atom_site_fract_y
  _atom_site_fract_z
  _atom_site_occupancy
  Ce  Ce1       1.0  0.12319000000000001  0.61456  0.53595  1.0000
  Ce  Ce2       1.0  0.37634  0.3844000000000001  0.03598000000000001  1.0000
  Ce  Ce3       1.0  0.87681  0.3854500000000001  0.4640500000000001  1.0000
  Ce  Ce4       1.0  0.6236600000000001  0.61561  0.9640200000000001  1.0000
  H   H1        1.0  0.44090000000000007  0.44974  0.16897  1.0000
  H   H2        1.0  0.51747  0.16548  0.13058  1.0000
  H   H3        1.0  0.5771500000000002  0.13331000000000004  0.19379  1.0000
  H   H4        1.0  0.49413000000000007  0.41447  0.23293999999999998  1.0000
  H   H5        1.0  0.4979700000000001  0.25702  0.2725  1.0000
  H   H6        1.0  0.82442  0.07972  0.40652000000000005  1.0000
  H   H7        1.0  0.4334200000000001  0.28087  0.36939  1.0000
  H   H8        1.0  0.24115000000000003  0.27664  0.38919  1.0000
  H   H9        1.0  0.70012  0.04408000000000001  0.29675000000000007  1.0000
  H   H10       1.0  0.64052  0.10793  0.40945  1.0000
  H   H11       1.0  0.04619000000000001  0.9334200000000001  0.48226  1.0000
  H   H12       1.0  0.59771  0.32401  0.32477  1.0000
  H   H13       1.0  0.9632  0.06085  0.45041  1.0000
  H   H14       1.0  0.79899  0.63683  0.41264  1.0000
  H   H15       1.0  0.7149700000000001  0.76264  0.38042  1.0000
  H   H16       1.0  0.5110700000000001  0.60299  0.4768800000000001  1.0000
  H   H17       1.0  0.6182700000000001  0.49537000000000003  0.44456000000000007  1.0000
  H   H18       1.0  0.13396  0.37683  0.4241100000000001  1.0000
  H   H19       1.0  0.05917999999999999  0.55033  0.6690300000000001  1.0000
  H   H20       1.0  0.9828400000000005  0.8348000000000001  0.63065  1.0000
  H   H21       1.0  0.9228600000000001  0.86675  0.69381  1.0000
  H   H22       1.0  0.006020000000000007  0.58569  0.73298  1.0000
  H   H23       1.0  0.00216000000000002  0.7428200000000001  0.7725700000000002  1.0000
  H   H24       1.0  0.6736500000000001  0.9195400000000002  0.9064800000000001  1.0000
  H   H25       1.0  0.06482000000000002  0.71913  0.86938  1.0000
  H   H26       1.0  0.2582400000000001  0.7243200000000001  0.88917  1.0000
  H   H27       1.0  0.79937  0.9559900000000001  0.79685  1.0000
  H   H28       1.0  0.8593100000000002  0.8919900000000002  0.90952  1.0000
  H   H29       1.0  0.45435000000000003  0.06811000000000002  0.9822600000000001  1.0000
  H   H30       1.0  0.9020900000000002  0.6761300000000001  0.82479  1.0000
  H   H31       1.0  0.5359999999999999  0.9395500000000001  0.95033  1.0000
  H   H32       1.0  0.70211  0.36376  0.9125000000000001  1.0000
  H   H33       1.0  0.7850600000000002  0.23703000000000002  0.88028  1.0000
  H   H34       1.0  0.98913  0.39737  0.97676  1.0000
  H   H35       1.0  0.8818400000000002  0.5052800000000001  0.94458  1.0000
  H   H36       1.0  0.36577  0.62383  0.9236999999999999  1.0000
  H   H37       1.0  0.55909  0.55026  0.8310300000000003  1.0000
  H   H38       1.0  0.48252  0.83452  0.86942  1.0000
  H   H39       1.0  0.42285000000000006  0.86669  0.80621  1.0000
  H   H40       1.0  0.50586  0.5855400000000001  0.76706  1.0000
  H   H41       1.0  0.5020200000000001  0.74298  0.7275  1.0000
  H   H42       1.0  0.17558  0.92029  0.5934800000000001  1.0000
  H   H43       1.0  0.56658  0.71914  0.63061  1.0000
  H   H44       1.0  0.75885  0.7233700000000001  0.61081  1.0000
  H   H45       1.0  0.29987000000000025  0.9559300000000002  0.70325  1.0000
  H   H46       1.0  0.35947  0.89208  0.59055  1.0000
  H   H47       1.0  0.9538  0.06659  0.51774  1.0000
  H   H48       1.0  0.40229  0.676  0.67523  1.0000
  H   H49       1.0  0.036790000000000045  0.93916  0.54959  1.0000
  H   H50       1.0  0.20100000000000004  0.36318000000000006  0.58736  1.0000
  H   H51       1.0  0.28503000000000006  0.23737000000000003  0.61958  1.0000
  H   H52       1.0  0.4889200000000001  0.39702  0.52311  1.0000
  H   H53       1.0  0.38173  0.50464  0.55543  1.0000
  H   H54       1.0  0.86604  0.62317  0.57589  1.0000
  H   H55       1.0  0.94081  0.44967000000000007  0.33097  1.0000
  H   H56       1.0  0.01716  0.16521  0.36935  1.0000
  H   H57       1.0  0.07714  0.13326  0.30618  1.0000
  H   H58       1.0  0.9939700000000001  0.41432  0.26702  1.0000
  H   H59       1.0  0.99783  0.25719  0.22743  1.0000
  H   H60       1.0  0.32634000000000013  0.08047  0.09352  1.0000
  H   H61       1.0  0.93518  0.28087  0.13062000000000004  1.0000
  H   H62       1.0  0.7417500000000002  0.27569  0.11083000000000001  1.0000
  H   H63       1.0  0.20062  0.044020000000000004  0.20315  1.0000
  H   H64       1.0  0.14068  0.10801000000000001  0.09048  1.0000
  H   H65       1.0  0.5456500000000002  0.9318900000000002  0.017740000000000002  1.0000
  H   H66       1.0  0.09790999999999998  0.32387  0.17521  1.0000
  H   H67       1.0  0.4639900000000001  0.06045  0.04966  1.0000
  H   H68       1.0  0.29789  0.63625  0.0875  1.0000
  H   H69       1.0  0.21493000000000004  0.7629800000000001  0.11972  1.0000
  H   H70       1.0  0.010860000000000033  0.6026400000000001  0.023230000000000004  1.0000
  H   H71       1.0  0.11816000000000004  0.49472000000000005  0.05542  1.0000
  H   H72       1.0  0.63422  0.37618  0.07629  1.0000
  C   C1        1.0  0.43501  0.32792  0.10868  1.0000
  C   C2        1.0  0.4750100000000001  0.30954  0.14591  1.0000
  C   C3        1.0  0.47  0.38044  0.17490000000000006  1.0000
  C   C4        1.0  0.51444  0.22105  0.15295  1.0000
  C   C5        1.0  0.54727  0.20208  0.18822000000000003  1.0000
  C   C6        1.0  0.5002100000000002  0.36094  0.21034000000000005  1.0000
  C   C7        1.0  0.53841  0.27138  0.21717000000000006  1.0000
  C   C8        1.0  0.58775  0.28897  0.39963000000000004  1.0000
  C   C9        1.0  0.43665  0.38070000000000004  0.41424  1.0000
  C   C10       1.0  0.30018  0.34789  0.40851000000000004  1.0000
  C   C11       1.0  0.67486  0.06588  0.3543  1.0000
  C   C12       1.0  0.67406  0.09267  0.31716000000000005  1.0000
  C   C13       1.0  0.3156900000000001  0.49811  0.45223  1.0000
  C   C14       1.0  0.24837  0.55677  0.47301  1.0000
  C   C15       1.0  0.92559  0.77511  0.45003  1.0000
  C   C16       1.0  0.96507  0.69184  0.46927  1.0000
  C   C17       1.0  0.6131500000000001  0.2208  0.36994  1.0000
  C   C18       1.0  0.64263  0.12887  0.3805300000000001  1.0000
  C   C19       1.0  0.9731600000000002  0.89602  0.46014000000000005  1.0000
  C   C20       1.0  0.61313  0.24792000000000003  0.33268  1.0000
  C   C21       1.0  0.8319300000000001  0.91919  0.41352  1.0000
  C   C22       1.0  0.9269  0.96748  0.44222  1.0000
  C   C23       1.0  0.64292  0.18317  0.30608  1.0000
  C   C24       1.0  0.8334800000000001  0.72945  0.42091  1.0000
  C   C25       1.0  0.7862200000000001  0.7990100000000001  0.40279  1.0000
  C   C26       1.0  0.45261000000000007  0.53084  0.45779  1.0000
  C   C27       1.0  0.7115000000000001  0.9695000000000003  0.36451  1.0000
  C   C28       1.0  0.5132700000000001  0.4713200000000001  0.43947  1.0000
  C   C29       1.0  0.64797  0.20788  0.26569  1.0000
  C   C30       1.0  0.24032  0.40522  0.42769  1.0000
  C   C31       1.0  0.06555  0.67206  0.60872  1.0000
  C   C32       1.0  0.02544999999999998  0.69072  0.6459300000000001  1.0000
  C   C33       1.0  0.030210000000000015  0.61973  0.67493  1.0000
  C   C34       1.0  0.98589  0.77917  0.65299  1.0000
  C   C35       1.0  0.9527600000000002  0.7979500000000002  0.68827  1.0000
  C   C36       1.0  0.9998400000000001  0.63913  0.71038  1.0000
  C   C37       1.0  0.96166  0.7287000000000002  0.71723  1.0000
  C   C38       1.0  0.91126  0.71132  0.89971  1.0000
  C   C39       1.0  0.06283000000000007  0.6195900000000001  0.9141700000000001  1.0000
  C   C40       1.0  0.19925000000000015  0.6525900000000001  0.90832  1.0000
  C   C41       1.0  0.8249300000000002  0.9343700000000001  0.85442  1.0000
  C   C42       1.0  0.8254700000000003  0.9074900000000002  0.81726  1.0000
  C   C43       1.0  0.18436000000000005  0.50237  0.9518700000000001  1.0000
  C   C44       1.0  0.2528700000000001  0.44453000000000004  0.9724400000000001  1.0000
  C   C45       1.0  0.57565  0.22585000000000002  0.94998  1.0000
  C   C46       1.0  0.5370800000000001  0.30937  0.9693099999999999  1.0000
  C   C47       1.0  0.8862700000000001  0.77929  0.86993  1.0000
  C   C48       1.0  0.8570100000000002  0.87122  0.88058  1.0000
  C   C49       1.0  0.52733  0.10493000000000002  0.9601200000000001  1.0000
  C   C50       1.0  0.8864700000000001  0.7521800000000001  0.83268  1.0000
  C   C51       1.0  0.66773  0.08094  0.9135100000000002  1.0000
  C   C52       1.0  0.5727400000000001  0.03296  0.9421699999999998  1.0000
  C   C53       1.0  0.85667  0.8169800000000002  0.8061000000000001  1.0000
  C   C54       1.0  0.6673800000000001  0.27115000000000006  0.92081  1.0000
  C   C55       1.0  0.71393  0.20111  0.90267  1.0000
  C   C56       1.0  0.04752  0.4695  0.9576500000000001  1.0000
  C   C57       1.0  0.78975  0.03127  0.8650900000000002  1.0000
  C   C58       1.0  0.9866400000000001  0.52897  0.93941  1.0000
  C   C59       1.0  0.8519700000000001  0.7922400000000002  0.7657  1.0000
  C   C60       1.0  0.25938999999999995  0.59527  0.92733  1.0000
  C   C61       1.0  0.56499  0.67209  0.89131  1.0000
  C   C62       1.0  0.52499  0.69046  0.85409  1.0000
  C   C63       1.0  0.5300000000000001  0.6195600000000001  0.8251000000000002  1.0000
  C   C64       1.0  0.48555000000000015  0.7789600000000002  0.84705  1.0000
  C   C65       1.0  0.45273  0.79793  0.81177  1.0000
  C   C66       1.0  0.4997900000000001  0.6390700000000001  0.78965  1.0000
  C   C67       1.0  0.46158  0.72863  0.78283  1.0000
  C   C68       1.0  0.4122500000000001  0.7110300000000002  0.60037  1.0000
  C   C69       1.0  0.5633500000000001  0.6193000000000001  0.58576  1.0000
  C   C70       1.0  0.69981  0.65211  0.5914900000000001  1.0000
  C   C71       1.0  0.32513000000000014  0.9341300000000001  0.6457  1.0000
  C   C72       1.0  0.32593  0.90734  0.68284  1.0000
  C   C73       1.0  0.68431  0.50189  0.5477700000000001  1.0000
  C   C74       1.0  0.75162  0.44324  0.52699  1.0000
  C   C75       1.0  0.07440000000000001  0.2249  0.54997  1.0000
  C   C76       1.0  0.03492000000000002  0.30817  0.53073  1.0000
  C   C77       1.0  0.3868400000000001  0.7792000000000001  0.63006  1.0000
  C   C78       1.0  0.35737000000000013  0.8711300000000001  0.61946  1.0000
  C   C79       1.0  0.02683000000000002  0.10399000000000001  0.53986  1.0000
  C   C80       1.0  0.38687000000000005  0.7520900000000003  0.66732  1.0000
  C   C81       1.0  0.16806000000000001  0.08081  0.58648  1.0000
  C   C82       1.0  0.0731  0.03253  0.55778  1.0000
  C   C83       1.0  0.35707  0.81684  0.69392  1.0000
  C   C84       1.0  0.16652000000000008  0.2705600000000001  0.57908  1.0000
  C   C85       1.0  0.21378  0.20099  0.59721  1.0000
  C   C86       1.0  0.54739  0.46917  0.5422  1.0000
  C   C87       1.0  0.2885  0.030510000000000006  0.63549  1.0000
  C   C88       1.0  0.4867200000000001  0.52868  0.56052  1.0000
  C   C89       1.0  0.35202000000000006  0.7921200000000002  0.7343100000000002  1.0000
  C   C90       1.0  0.75968  0.59478  0.5723100000000001  1.0000
  C   C91       1.0  0.93444  0.32794000000000006  0.39128  1.0000
  C   C92       1.0  0.97455  0.30929  0.35407  1.0000
  C   C93       1.0  0.9697900000000003  0.38028000000000006  0.32507  1.0000
  C   C94       1.0  0.014100000000000003  0.22083  0.347  1.0000
  C   C95       1.0  0.04724000000000001  0.20206000000000002  0.31172000000000005  1.0000
  C   C96       1.0  0.00016000000000002346  0.36088  0.28962  1.0000
  C   C97       1.0  0.03834000000000001  0.27131  0.28277  1.0000
  C   C98       1.0  0.08874000000000005  0.28868000000000005  0.10029  1.0000
  C   C99       1.0  0.9371600000000001  0.38042  0.08583  1.0000
  C   C100      1.0  0.80075  0.34741000000000005  0.09168  1.0000
  C   C101      1.0  0.17507000000000003  0.06563  0.14558  1.0000
  C   C102      1.0  0.17453  0.09252000000000003  0.18274000000000004  1.0000
  C   C103      1.0  0.81564  0.4976300000000001  0.04813  1.0000
  C   C104      1.0  0.7471300000000002  0.55548  0.027560000000000005  1.0000
  C   C105      1.0  0.42434  0.7741600000000001  0.05002  1.0000
  C   C106      1.0  0.4629200000000003  0.6906400000000001  0.03068  1.0000
  C   C107      1.0  0.11373000000000003  0.22071  0.13006  1.0000
  C   C108      1.0  0.14298  0.12878  0.11941  1.0000
  C   C109      1.0  0.4726700000000001  0.89508  0.03988  1.0000
  C   C110      1.0  0.11352  0.24783000000000002  0.16732  1.0000
  C   C111      1.0  0.33226000000000017  0.9190700000000002  0.08649  1.0000
  C   C112      1.0  0.42726000000000014  0.9670400000000001  0.05783  1.0000
  C   C113      1.0  0.14333000000000004  0.18303000000000003  0.1939  1.0000
  C   C114      1.0  0.33261000000000013  0.72886  0.07919  1.0000
  C   C115      1.0  0.28606000000000004  0.7989  0.09733000000000003  1.0000
  C   C116      1.0  0.9524800000000001  0.5305  0.04235  1.0000
  C   C117      1.0  0.21024000000000015  0.9687400000000002  0.13491  1.0000
  C   C118      1.0  0.01334999999999999  0.47104  0.06059  1.0000
  C   C119      1.0  0.14803000000000005  0.20777000000000007  0.2343  1.0000
  C   C120      1.0  0.7406  0.40474000000000004  0.07267  1.0000
  N   N1        1.0  0.5613  0.25018000000000007  0.25386000000000003  1.0000
  N   N2        1.0  0.78458  0.9926600000000002  0.39676  1.0000
  N   N3        1.0  0.4899  0.32104  0.39193  1.0000
  N   N4        1.0  0.93887  0.74994  0.75394  1.0000
  N   N5        1.0  0.71453  0.00685  0.89691  1.0000
  N   N6        1.0  0.009190000000000132  0.6794200000000001  0.89208  1.0000
  N   N7        1.0  0.43869  0.74982  0.7461400000000001  1.0000
  N   N8        1.0  0.21542  0.007340000000000002  0.60323  1.0000
  N   N9        1.0  0.51009  0.67896  0.60807  1.0000
  N   N10       1.0  0.06113  0.25007  0.24605  1.0000
  N   N11       1.0  0.28547000000000017  0.9931500000000001  0.10309  1.0000
  N   N12       1.0  0.9908000000000001  0.32058  0.10792000000000002  1.0000
  O   O1        1.0  0.054500000000000146  0.7304000000000003  0.4945  1.0000
  O   O2        1.0  0.6490200000000002  0.31209000000000003  0.42946  1.0000
  O   O3        1.0  0.42489000000000005  0.42273  0.10209  1.0000
  O   O4        1.0  0.41187  0.24859000000000006  0.08326  1.0000
  O   O5        1.0  0.9023700000000001  0.5813  0.45914  1.0000
  O   O6        1.0  0.11846000000000005  0.5143300000000001  0.47013  1.0000
  O   O7        1.0  0.7234000000000003  0.18954000000000004  0.24483  1.0000
  O   O8        1.0  0.3159800000000001  0.6435500000000001  0.49448  1.0000
  O   O9        1.0  0.6788500000000002  0.8809400000000002  0.3446  1.0000
  O   O10       1.0  0.4481200000000001  0.27048  0.99466  1.0000
  O   O11       1.0  0.84938  0.68854  0.9294600000000001  1.0000
  O   O12       1.0  0.07336000000000005  0.5761900000000001  0.60208  1.0000
  O   O13       1.0  0.09086000000000005  0.7518100000000001  0.58332  1.0000
  O   O14       1.0  0.5998400000000002  0.41990000000000005  0.95921  1.0000
  O   O15       1.0  0.38225  0.48655000000000004  0.96869  1.0000
  O   O16       1.0  0.7762100000000001  0.81001  0.74481  1.0000
  O   O17       1.0  0.18643000000000004  0.35894  0.9944000000000001  1.0000
  O   O18       1.0  0.82576  0.12203  0.84602  1.0000
  O   O19       1.0  0.9454900000000003  0.26961  0.5055  1.0000
  O   O20       1.0  0.3509700000000001  0.6879200000000001  0.57054  1.0000
  O   O21       1.0  0.5751  0.57728  0.8979100000000001  1.0000
  O   O22       1.0  0.5881300000000002  0.75142  0.91673  1.0000
  O   O23       1.0  0.09763000000000005  0.41871  0.5408500000000002  1.0000
  O   O24       1.0  0.8815300000000003  0.48568  0.52987  1.0000
  O   O25       1.0  0.2766  0.81046  0.75516  1.0000
  O   O26       1.0  0.6840200000000001  0.35646000000000005  0.50552  1.0000
  O   O27       1.0  0.32114  0.11907  0.6554  1.0000
  O   O28       1.0  0.5518700000000001  0.7295300000000001  0.00534  1.0000
  O   O29       1.0  0.15061000000000002  0.31147  0.07054  1.0000
  O   O30       1.0  0.9266300000000001  0.42382  0.39791  1.0000
  O   O31       1.0  0.9091300000000001  0.2482  0.41668000000000005  1.0000
  O   O32       1.0  0.40015  0.58011  0.04079  1.0000
  O   O33       1.0  0.6177400000000001  0.5134500000000001  0.03131  1.0000
  O   O34       1.0  0.22378000000000006  0.19  0.25519000000000003  1.0000
  O   O35       1.0  0.81356  0.6410700000000001  0.0056  1.0000
  O   O36       1.0  0.17423000000000008  0.87798  0.15398  1.0000
