data_image0
_chemical_formula_structural       Ni6H76C120N12O28
_chemical_formula_sum              "Ni6 H76 C120 N12 O28"
_cell_length_a       11.26633
_cell_length_b       16.59049
_cell_length_c       20.20176
_cell_angle_alpha    65.50617000000001
_cell_angle_beta     87.46106999999999
_cell_angle_gamma    83.54945

_symmetry_space_group_name_H-M    'P 1'
_symmetry_Int_Tables_number       1

loop_
  _symmetry_equiv_pos_as_xyz
  'x,y,z'

loop_
  _atom_site_type_symbol
  _atom_site_label
  _atom_site_symmetry_multiplicity
  _atom_site_fract_x
  _atom_site_fract_y
  _atom_site_fract_z
  _atom_site_occupancy
  Ni  Ni1       1.0  0.9151400000000001  0.83101  0.9448200000000001  1.0000
  Ni  Ni2       1.0  0.58602  0.22410999999999998  0.9446200000000001  1.0000
  Ni  Ni3       1.0  0.08486999999999999  0.1690000000000001  0.05518  1.0000
  Ni  Ni4       1.0  0.41398000000000007  0.7759  0.055380000000000006  1.0000
  Ni  Ni5       1.0  0.7506600000000001  0.7599100000000004  0.47779  1.0000
  Ni  Ni6       1.0  0.24935  0.24009999999999998  0.52221  1.0000
  H   H1        1.0  0.5274899999999997  0.8424900000000001  0.81925  1.0000
  H   H2        1.0  0.48874  0.8834300000000002  0.68742  1.0000
  H   H3        1.0  0.27936000000000005  0.9346299999999998  0.63914  1.0000
  H   H4        1.0  0.97213  0.0492  0.59971  1.0000
  H   H5        1.0  0.85913  0.9906799999999998  0.52615  1.0000
  H   H6        1.0  0.9936300000000001  0.7237699999999998  0.6650900000000001  1.0000
  H   H7        1.0  0.10249999999999995  0.7813100000000001  0.74096  1.0000
  H   H8        1.0  0.80846  0.9017300000000001  0.33536  1.0000
  H   H9        1.0  0.9524800000000001  0.91953  0.23495  1.0000
  H   H10       1.0  0.12540999999999997  0.65934  0.37278  1.0000
  H   H11       1.0  0.96895  0.65206  0.46607000000000004  1.0000
  H   H12       1.0  0.17995000000000003  0.8826  0.053590000000000006  1.0000
  H   H13       1.0  0.030199999999999984  0.88945  0.14628  1.0000
  H   H14       1.0  0.28172  0.7077900000000003  0.31175  1.0000
  H   H15       1.0  0.42003  0.71102  0.21217  1.0000
  H   H16       1.0  0.68214  0.75753  0.9625400000000001  1.0000
  H   H17       1.0  0.6011799999999999  0.6305499999999998  0.9538200000000001  1.0000
  H   H18       1.0  0.9542100000000001  0.55483  0.89071  1.0000
  H   H19       1.0  0.02050999999999997  0.6888500000000002  0.9005300000000002  1.0000
  H   H20       1.0  0.9711200000000001  0.34023  0.81641  1.0000
  H   H21       1.0  0.011959999999999967  0.4306800000000002  0.68461  1.0000
  H   H22       1.0  0.22214999999999993  0.4258600000000002  0.63836  1.0000
  H   H23       1.0  0.52674  0.34807999999999995  0.6007300000000001  1.0000
  H   H24       1.0  0.63903  0.48019000000000006  0.52567  1.0000
  H   H25       1.0  0.50907  0.60916  0.66372  1.0000
  H   H26       1.0  0.40062  0.47555  0.7407700000000002  1.0000
  H   H27       1.0  0.69283  0.7626699999999998  0.33469  1.0000
  H   H28       1.0  0.5475700000000002  0.84601  0.23454  1.0000
  H   H29       1.0  0.37594  0.9665399999999998  0.37264000000000014  1.0000
  H   H30       1.0  0.53298  0.8791699999999999  0.46597000000000005  1.0000
  H   H31       1.0  0.31708  0.06467  0.05357  1.0000
  H   H32       1.0  0.46813  0.96471  0.14606  1.0000
  H   H33       1.0  0.21953999999999999  0.9807600000000001  0.31165  1.0000
  H   H34       1.0  0.08021  0.07824000000000002  0.21229  1.0000
  H   H35       1.0  0.81957  0.2803700000000002  0.96139  1.0000
  H   H36       1.0  0.8995  0.4158299999999999  0.9540100000000001  1.0000
  H   H37       1.0  0.54587  0.55511  0.8903500000000001  1.0000
  H   H38       1.0  0.48049  0.4112199999999999  0.89926  1.0000
  H   H39       1.0  0.47251000000000004  0.15751999999999997  0.18075  1.0000
  H   H40       1.0  0.51127  0.11657000000000001  0.31257  1.0000
  H   H41       1.0  0.7206500000000001  0.06537000000000004  0.36086  1.0000
  H   H42       1.0  0.02788  0.9507999999999999  0.40029  1.0000
  H   H43       1.0  0.14088  0.009320000000000012  0.47385  1.0000
  H   H44       1.0  0.006370000000000001  0.27623  0.33491  1.0000
  H   H45       1.0  0.8975  0.21869000000000002  0.25904  1.0000
  H   H46       1.0  0.19154  0.09827999999999995  0.6646400000000001  1.0000
  H   H47       1.0  0.04753000000000001  0.08047  0.76505  1.0000
  H   H48       1.0  0.8746  0.34066  0.62722  1.0000
  H   H49       1.0  0.031059999999999987  0.34794  0.53393  1.0000
  H   H50       1.0  0.82006  0.11740000000000006  0.94641  1.0000
  H   H51       1.0  0.96981  0.11055  0.85372  1.0000
  H   H52       1.0  0.7182800000000001  0.2922100000000001  0.68825  1.0000
  H   H53       1.0  0.57997  0.28897999999999996  0.78783  1.0000
  H   H54       1.0  0.31786  0.2424700000000001  0.03746  1.0000
  H   H55       1.0  0.39883  0.36945  0.04618  1.0000
  H   H56       1.0  0.045790000000000004  0.44517  0.10929  1.0000
  H   H57       1.0  0.9795  0.31115  0.09947  1.0000
  H   H58       1.0  0.028880000000000038  0.6597799999999998  0.18359000000000006  1.0000
  H   H59       1.0  0.9880500000000001  0.56932  0.31539  1.0000
  H   H60       1.0  0.77785  0.5741500000000002  0.36164  1.0000
  H   H61       1.0  0.47326999999999997  0.6519300000000002  0.39927000000000007  1.0000
  H   H62       1.0  0.36097999999999997  0.51981  0.47433000000000003  1.0000
  H   H63       1.0  0.49093  0.3908400000000001  0.33628  1.0000
  H   H64       1.0  0.59938  0.52445  0.25923  1.0000
  H   H65       1.0  0.3071700000000001  0.23734  0.66531  1.0000
  H   H66       1.0  0.45243000000000005  0.15399999999999997  0.7654600000000001  1.0000
  H   H67       1.0  0.62407  0.03346999999999997  0.62736  1.0000
  H   H68       1.0  0.46703  0.12083999999999999  0.53403  1.0000
  H   H69       1.0  0.6829299999999999  0.9353300000000002  0.9464300000000001  1.0000
  H   H70       1.0  0.5318800000000001  0.035289999999999856  0.8539400000000003  1.0000
  H   H71       1.0  0.78047  0.019250000000000003  0.68835  1.0000
  H   H72       1.0  0.91979  0.92177  0.7877000000000002  1.0000
  H   H73       1.0  0.18044000000000004  0.71964  0.038610000000000005  1.0000
  H   H74       1.0  0.10050999999999999  0.5841800000000003  0.04598  1.0000
  H   H75       1.0  0.45414  0.44489  0.10965000000000001  1.0000
  H   H76       1.0  0.51951  0.5887900000000001  0.10073  1.0000
  C   C1        1.0  0.3732700000000001  0.8388699999999999  0.9221600000000001  1.0000
  C   C2        1.0  0.11672999999999999  0.89692  0.86469  1.0000
  C   C3        1.0  0.34427  0.86733  0.84413  1.0000
  C   C4        1.0  0.4377200000000001  0.8636499999999999  0.79677  1.0000
  C   C5        1.0  0.41562  0.8866  0.72353  1.0000
  C   C6        1.0  0.29928  0.91475  0.6964  1.0000
  C   C7        1.0  0.20696999999999996  0.91831  0.74393  1.0000
  C   C8        1.0  0.22582999999999995  0.89496  0.81808  1.0000
  C   C9        1.0  0.04137999999999998  0.91796  0.6739800000000001  1.0000
  C   C10       1.0  0.97382  0.9783000000000001  0.61394  1.0000
  C   C11       1.0  0.9121199999999998  0.9457100000000004  0.57342  1.0000
  C   C12       1.0  0.92018  0.8539700000000003  0.59184  1.0000
  C   C13       1.0  0.98967  0.79461  0.65186  1.0000
  C   C14       1.0  0.05016999999999999  0.8261800000000001  0.69342  1.0000
  C   C15       1.0  0.85708  0.81858  0.5481  1.0000
  C   C16       1.0  0.87965  0.84954  0.34081000000000006  1.0000
  C   C17       1.0  0.96122  0.85906  0.28517  1.0000
  C   C18       1.0  0.05310999999999991  0.7906200000000004  0.29538  1.0000
  C   C19       1.0  0.057249999999999954  0.7151700000000002  0.36218  1.0000
  C   C20       1.0  0.97066  0.7099999999999999  0.4144100000000001  1.0000
  C   C21       1.0  0.19826999999999992  0.8458600000000002  0.11157  1.0000
  C   C22       1.0  0.11506999999999998  0.84835  0.16389  1.0000
  C   C23       1.0  0.14122999999999997  0.7964200000000001  0.23788  1.0000
  C   C24       1.0  0.2540200000000001  0.74727  0.25558  1.0000
  C   C25       1.0  0.33256  0.74862  0.20055000000000006  1.0000
  C   C26       1.0  0.73955  0.71163  0.9464200000000002  1.0000
  C   C27       1.0  0.69498  0.6395600000000001  0.94137  1.0000
  C   C28       1.0  0.7715000000000001  0.5792399999999999  0.92295  1.0000
  C   C29       1.0  0.89118  0.59737  0.90756  1.0000
  C   C30       1.0  0.9293100000000001  0.6713399999999999  0.9127200000000001  1.0000
  C   C31       1.0  0.12434  0.23962  0.9215  1.0000
  C   C32       1.0  0.38163  0.23650000000000002  0.86521  1.0000
  C   C33       1.0  0.15402999999999994  0.2888  0.84323  1.0000
  C   C34       1.0  0.06133999999999998  0.34074  0.79489  1.0000
  C   C35       1.0  0.08431  0.39075  0.7216  1.0000
  C   C36       1.0  0.20089000000000007  0.3886099999999999  0.6954400000000001  1.0000
  C   C37       1.0  0.29239  0.33674  0.74381  1.0000
  C   C38       1.0  0.27285999999999994  0.28645999999999994  0.81807  1.0000
  C   C39       1.0  0.45909000000000005  0.4056  0.67425  1.0000
  C   C40       1.0  0.52563  0.40511  0.61426  1.0000
  C   C41       1.0  0.587  0.47839  0.57293  1.0000
  C   C42       1.0  0.58006  0.5519099999999999  0.59092  1.0000
  C   C43       1.0  0.51178  0.55137  0.65095  1.0000
  C   C44       1.0  0.45165  0.47812  0.69313  1.0000
  C   C45       1.0  0.64312  0.63123  0.54711  1.0000
  C   C46       1.0  0.6214600000000002  0.8090599999999999  0.34032  1.0000
  C   C47       1.0  0.53913  0.85559  0.28481  1.0000
  C   C48       1.0  0.4473199999999999  0.9136000000000004  0.29512000000000005  1.0000
  C   C49       1.0  0.4437599999999999  0.9213500000000001  0.362  1.0000
  C   C50       1.0  0.5308  0.8737499999999999  0.41418  1.0000
  C   C51       1.0  0.29983  0.043280000000000006  0.11156  1.0000
  C   C52       1.0  0.3836899999999999  0.98824  0.16376  1.0000
  C   C53       1.0  0.35868000000000005  0.96597  0.23771  1.0000
  C   C54       1.0  0.24640000000000004  0.9976800000000001  0.25549000000000005  1.0000
  C   C55       1.0  0.16718000000000002  0.051799999999999985  0.20061  1.0000
  C   C56       1.0  0.76175  0.34240999999999994  0.9454400000000001  1.0000
  C   C57       1.0  0.80576  0.4194599999999999  0.9411200000000001  1.0000
  C   C58       1.0  0.72887  0.49827000000000005  0.92281  1.0000
  C   C59       1.0  0.60925  0.4956800000000002  0.90702  1.0000
  C   C60       1.0  0.5716599999999998  0.41659000000000007  0.91156  1.0000
  C   C61       1.0  0.62673  0.16113  0.07784000000000002  1.0000
  C   C62       1.0  0.8832800000000001  0.10308  0.13531  1.0000
  C   C63       1.0  0.65573  0.13268  0.15587  1.0000
  C   C64       1.0  0.56229  0.13634999999999997  0.20323  1.0000
  C   C65       1.0  0.58439  0.11341  0.27647  1.0000
  C   C66       1.0  0.7007199999999999  0.08525999999999999  0.3036  1.0000
  C   C67       1.0  0.7930399999999999  0.08169000000000004  0.25607  1.0000
  C   C68       1.0  0.7741800000000001  0.10505000000000005  0.18192  1.0000
  C   C69       1.0  0.9586300000000001  0.08204  0.32602000000000003  1.0000
  C   C70       1.0  0.026179999999999995  0.021709999999999997  0.38606  1.0000
  C   C71       1.0  0.08787999999999999  0.05429999999999997  0.42658000000000007  1.0000
  C   C72       1.0  0.07983  0.14604  0.40816  1.0000
  C   C73       1.0  0.010329999999999999  0.20539  0.34814  1.0000
  C   C74       1.0  0.94983  0.17382999999999998  0.30658  1.0000
  C   C75       1.0  0.14293  0.18142000000000003  0.4519  1.0000
  C   C76       1.0  0.12036000000000006  0.15046  0.65919  1.0000
  C   C77       1.0  0.03878000000000001  0.14094999999999996  0.71483  1.0000
  C   C78       1.0  0.94689  0.20938999999999997  0.70462  1.0000
  C   C79       1.0  0.94276  0.28482999999999997  0.6378200000000002  1.0000
  C   C80       1.0  0.029339999999999963  0.2900000000000002  0.58559  1.0000
  C   C81       1.0  0.8017400000000001  0.1541500000000001  0.88843  1.0000
  C   C82       1.0  0.88493  0.15165000000000006  0.83611  1.0000
  C   C83       1.0  0.85877  0.20357999999999996  0.76212  1.0000
  C   C84       1.0  0.74599  0.25273999999999996  0.74442  1.0000
  C   C85       1.0  0.6674500000000002  0.25139  0.79945  1.0000
  C   C86       1.0  0.26045  0.28838  0.05358  1.0000
  C   C87       1.0  0.30501999999999996  0.36044  0.05863  1.0000
  C   C88       1.0  0.22851000000000002  0.42076  0.07705  1.0000
  C   C89       1.0  0.10883000000000005  0.40262999999999993  0.09244  1.0000
  C   C90       1.0  0.0707  0.32867  0.08728  1.0000
  C   C91       1.0  0.87566  0.76038  0.0785  1.0000
  C   C92       1.0  0.61837  0.7635  0.13479  1.0000
  C   C93       1.0  0.84597  0.7112100000000002  0.15677  1.0000
  C   C94       1.0  0.93866  0.65927  0.20511  1.0000
  C   C95       1.0  0.91569  0.60925  0.2784  1.0000
  C   C96       1.0  0.79911  0.6113999999999999  0.30456000000000005  1.0000
  C   C97       1.0  0.70762  0.66326  0.25618  1.0000
  C   C98       1.0  0.7271400000000001  0.71354  0.18193  1.0000
  C   C99       1.0  0.54092  0.59441  0.32575  1.0000
  C   C100      1.0  0.47437  0.5948900000000003  0.38574  1.0000
  C   C101      1.0  0.413  0.52161  0.42707  1.0000
  C   C102      1.0  0.41995  0.44809000000000004  0.40908  1.0000
  C   C103      1.0  0.48822000000000004  0.44863  0.34905000000000014  1.0000
  C   C104      1.0  0.54835  0.5218900000000003  0.30687  1.0000
  C   C105      1.0  0.35688000000000003  0.36878  0.45289  1.0000
  C   C106      1.0  0.37854000000000004  0.19094  0.65968  1.0000
  C   C107      1.0  0.46088  0.14441  0.71518  1.0000
  C   C108      1.0  0.5526899999999998  0.08639999999999995  0.7048800000000001  1.0000
  C   C109      1.0  0.55625  0.07866000000000001  0.638  1.0000
  C   C110      1.0  0.46920000000000006  0.12625  0.58582  1.0000
  C   C111      1.0  0.7001800000000001  0.95673  0.88844  1.0000
  C   C112      1.0  0.61631  0.011760000000000005  0.83624  1.0000
  C   C113      1.0  0.64132  0.03404000000000001  0.76229  1.0000
  C   C114      1.0  0.7536000000000002  0.00231999999999997  0.74451  1.0000
  C   C115      1.0  0.83282  0.9481999999999999  0.79939  1.0000
  C   C116      1.0  0.23824999999999993  0.6575900000000002  0.05456  1.0000
  C   C117      1.0  0.19423999999999997  0.5805500000000001  0.05888  1.0000
  C   C118      1.0  0.27114  0.50173  0.07719  1.0000
  C   C119      1.0  0.39074999999999993  0.5043300000000001  0.09298  1.0000
  C   C120      1.0  0.42834  0.58342  0.08844  1.0000
  N   N1        1.0  0.88215  0.7761700000000001  0.4039300000000001  1.0000
  N   N2        1.0  0.30506  0.79582  0.12953  1.0000
  N   N3        1.0  0.85514  0.72704  0.93287  1.0000
  N   N4        1.0  0.6194100000000001  0.81849  0.4035  1.0000
  N   N5        1.0  0.19362000000000001  0.07555000000000006  0.12963  1.0000
  N   N6        1.0  0.6462400000000003  0.34068  0.9314500000000001  1.0000
  N   N7        1.0  0.11786  0.22384000000000004  0.59607  1.0000
  N   N8        1.0  0.69494  0.20419000000000004  0.87047  1.0000
  N   N9        1.0  0.14487  0.27296  0.06713  1.0000
  N   N10       1.0  0.38059  0.18150999999999995  0.5965000000000001  1.0000
  N   N11       1.0  0.80639  0.92445  0.87037  1.0000
  N   N12       1.0  0.3537600000000001  0.6593200000000001  0.06854000000000002  1.0000
  O   O1        1.0  0.29236  0.8470000000000001  0.96616  1.0000
  O   O2        1.0  0.47888  0.8034200000000001  0.94574  1.0000
  O   O3        1.0  0.07940999999999997  0.9644999999999999  0.8748200000000002  1.0000
  O   O4        1.0  0.06329  0.8249  0.88661  1.0000
  O   O5        1.0  0.09153999999999997  0.9524  0.71703  1.0000
  O   O6        1.0  0.8789  0.73656  0.5597  1.0000
  O   O7        1.0  0.7818  0.8704700000000001  0.49872000000000005  1.0000
  O   O8        1.0  0.20444000000000004  0.18599000000000002  0.96591  1.0000
  O   O9        1.0  0.019359999999999968  0.25292000000000014  0.9449400000000001  1.0000
  O   O10       1.0  0.41823  0.15913000000000002  0.8736900000000001  1.0000
  O   O11       1.0  0.43493999999999994  0.28508000000000017  0.88878  1.0000
  O   O12       1.0  0.40770000000000006  0.3285599999999999  0.7175800000000001  1.0000
  O   O13       1.0  0.62405  0.7011600000000003  0.55953  1.0000
  O   O14       1.0  0.71616  0.6293799999999999  0.49694000000000005  1.0000
  O   O15       1.0  0.7076500000000001  0.15301  0.03384  1.0000
  O   O16       1.0  0.5211300000000001  0.19658  0.05426000000000001  1.0000
  O   O17       1.0  0.92059  0.03550999999999999  0.12518  1.0000
  O   O18       1.0  0.9367100000000002  0.17511  0.11339  1.0000
  O   O19       1.0  0.9084600000000002  0.04761  0.28296  1.0000
  O   O20       1.0  0.12110000000000001  0.26344999999999996  0.44029000000000007  1.0000
  O   O21       1.0  0.2182  0.12953  0.50128  1.0000
  O   O22       1.0  0.79556  0.81401  0.03409000000000001  1.0000
  O   O23       1.0  0.98065  0.7470800000000002  0.055060000000000005  1.0000
  O   O24       1.0  0.5817700000000001  0.84087  0.12631  1.0000
  O   O25       1.0  0.56506  0.71493  0.11122000000000001  1.0000
  O   O26       1.0  0.5923099999999999  0.67145  0.28242  1.0000
  O   O27       1.0  0.37595  0.29884  0.44047000000000003  1.0000
  O   O28       1.0  0.28385  0.37062  0.50306  1.0000
