data_image0
_chemical_formula_structural       Zn8H64C112O40
_chemical_formula_sum              "Zn8 H64 C112 O40"
_cell_length_a       15.68375
_cell_length_b       15.68542
_cell_length_c       21.227819999999998
_cell_angle_alpha    86.12468
_cell_angle_beta     86.18596999999998
_cell_angle_gamma    61.54695

_space_group_name_H-M_alt    "P 1"
_space_group_IT_number       1

loop_
  _space_group_symop_operation_xyz
  'x, y, z'

loop_
  _atom_site_type_symbol
  _atom_site_label
  _atom_site_symmetry_multiplicity
  _atom_site_fract_x
  _atom_site_fract_y
  _atom_site_fract_z
  _atom_site_occupancy
  Zn  Zn1       1.0  0.037450000000000025  0.55662  0.9928900000000003  1.0000
  Zn  Zn2       1.0  0.9999200000000001  0.99122  0.31300000000000006  1.0000
  Zn  Zn3       1.0  0.4419  0.96435  0.50337  1.0000
  Zn  Zn4       1.0  0.008790000000000001  0.0009899999999999998  0.18798  1.0000
  Zn  Zn5       1.0  0.96256  0.44338  0.0071200000000000005  1.0000
  Zn  Zn6       1.0  9.000000000000468e-05  0.008789999999999994  0.687  1.0000
  Zn  Zn7       1.0  0.5581  0.03566  0.49663  1.0000
  Zn  Zn8       1.0  0.9912199999999998  0.99902  0.81203  1.0000
  H   H1        1.0  0.7155499999999999  0.90486  0.19372  1.0000
  H   H2        1.0  0.5442299999999998  0.07264  0.32415000000000005  1.0000
  H   H3        1.0  0.48945999999999995  0.8748300000000001  0.13503000000000004  1.0000
  H   H4        1.0  0.27964  0.40611  0.11403000000000003  1.0000
  H   H5        1.0  0.85466  0.78921  0.12575  1.0000
  H   H6        1.0  0.27775999999999995  0.9553500000000003  0.33061  1.0000
  H   H7        1.0  0.7354499999999998  0.5920800000000002  0.13985  1.0000
  H   H8        1.0  0.53796  0.13158  0.12295000000000002  1.0000
  H   H9        1.0  0.2944499999999999  0.09720000000000001  0.20048000000000002  1.0000
  H   H10       1.0  0.71173  0.09569000000000001  0.12121  1.0000
  H   H11       1.0  0.31606  0.91196  0.13093  1.0000
  H   H12       1.0  0.7173199999999997  0.03713000000000001  0.3220700000000001  1.0000
  H   H13       1.0  0.4503899999999999  0.9200400000000002  0.33511  1.0000
  H   H14       1.0  0.15382999999999997  0.21478000000000005  0.13671  1.0000
  H   H15       1.0  0.5962999999999999  0.70763  0.20699  1.0000
  H   H16       1.0  0.41984999999999995  0.28902  0.17764  1.0000
  H   H17       1.0  0.09524  0.28664  0.30417  1.0000
  H   H18       1.0  0.92735  0.45656  0.17765  1.0000
  H   H19       1.0  0.12651  0.51008  0.36373  1.0000
  H   H20       1.0  0.5934199999999998  0.72152  0.38548  1.0000
  H   H21       1.0  0.20904999999999999  0.14667  0.37279  1.0000
  H   H22       1.0  0.044139999999999985  0.72352  0.16881  1.0000
  H   H23       1.0  0.40859999999999996  0.26269  0.36131  1.0000
  H   H24       1.0  0.86876  0.4619600000000001  0.37893  1.0000
  H   H25       1.0  0.9032  0.70651  0.30106  1.0000
  H   H26       1.0  0.9046999999999995  0.28829000000000005  0.38035  1.0000
  H   H27       1.0  0.08755999999999992  0.6839700000000001  0.36850000000000005  1.0000
  H   H28       1.0  0.9630099999999999  0.28362  0.17959  1.0000
  H   H29       1.0  0.08110000000000002  0.55041  0.16368  1.0000
  H   H30       1.0  0.7850999999999997  0.8469500000000001  0.36452  1.0000
  H   H31       1.0  0.29516999999999977  0.40265  0.29326  1.0000
  H   H32       1.0  0.7112799999999997  0.58108  0.32268  1.0000
  H   H33       1.0  0.28446  0.09514  0.80628  1.0000
  H   H34       1.0  0.45578  0.92737  0.6758500000000001  1.0000
  H   H35       1.0  0.51054  0.12517  0.8649800000000001  1.0000
  H   H36       1.0  0.72036  0.5939  0.88597  1.0000
  H   H37       1.0  0.1453399999999999  0.21079000000000006  0.87425  1.0000
  H   H38       1.0  0.72225  0.044660000000000005  0.66939  1.0000
  H   H39       1.0  0.2645599999999998  0.40792000000000006  0.86015  1.0000
  H   H40       1.0  0.46204  0.86843  0.87705  1.0000
  H   H41       1.0  0.7055599999999999  0.9028000000000002  0.79952  1.0000
  H   H42       1.0  0.28827999999999987  0.9043100000000002  0.8788  1.0000
  H   H43       1.0  0.68394  0.08804000000000001  0.86907  1.0000
  H   H44       1.0  0.2826799999999999  0.9628800000000002  0.67793  1.0000
  H   H45       1.0  0.54961  0.07996000000000002  0.66489  1.0000
  H   H46       1.0  0.84617  0.78523  0.8632900000000001  1.0000
  H   H47       1.0  0.4037099999999998  0.29238  0.7930200000000001  1.0000
  H   H48       1.0  0.5801499999999998  0.7109900000000001  0.82236  1.0000
  H   H49       1.0  0.90477  0.7133600000000001  0.69583  1.0000
  H   H50       1.0  0.07264999999999998  0.54345  0.8223500000000001  1.0000
  H   H51       1.0  0.8734899999999995  0.48992000000000013  0.63627  1.0000
  H   H52       1.0  0.40658  0.27849  0.61453  1.0000
  H   H53       1.0  0.7909499999999998  0.8533400000000001  0.62721  1.0000
  H   H54       1.0  0.9558599999999999  0.27648  0.8311900000000002  1.0000
  H   H55       1.0  0.59141  0.7373100000000002  0.63869  1.0000
  H   H56       1.0  0.13125000000000003  0.53804  0.62107  1.0000
  H   H57       1.0  0.09680999999999998  0.29349  0.69895  1.0000
  H   H58       1.0  0.09531  0.71172  0.6196600000000001  1.0000
  H   H59       1.0  0.91245  0.31604  0.63151  1.0000
  H   H60       1.0  0.03700000000000005  0.71639  0.8204200000000001  1.0000
  H   H61       1.0  0.9189100000000001  0.44960000000000006  0.8363300000000001  1.0000
  H   H62       1.0  0.2149  0.15306  0.63549  1.0000
  H   H63       1.0  0.7048299999999995  0.59735  0.70675  1.0000
  H   H64       1.0  0.28873  0.41893  0.67732  1.0000
  C   C1        1.0  0.53137  0.10542  0.22385000000000002  1.0000
  C   C2        1.0  0.2864699999999998  0.9347900000000002  0.23057000000000002  1.0000
  C   C3        1.0  0.7206999999999999  0.83648  0.1812  1.0000
  C   C4        1.0  0.7249899999999998  0.06575  0.22167000000000003  1.0000
  C   C5        1.0  0.58115  0.07836  0.28015  1.0000
  C   C6        1.0  0.44290999999999986  0.89196  0.17762  1.0000
  C   C7        1.0  0.2839799999999999  0.3378600000000001  0.13252  1.0000
  C   C8        1.0  0.7979499999999997  0.7717900000000002  0.14363  1.0000
  C   C9        1.0  0.32461000000000007  0.93743  0.28811  1.0000
  C   C10       1.0  0.7300599999999999  0.6610400000000001  0.15124  1.0000
  C   C11       1.0  0.5774899999999997  0.11212  0.16627  1.0000
  C   C12       1.0  0.29038  0.16457  0.18054  1.0000
  C   C13       1.0  0.6742299999999999  0.09217999999999998  0.16550000000000004  1.0000
  C   C14       1.0  0.34637999999999974  0.9125100000000003  0.17542  1.0000
  C   C15       1.0  0.20870999999999998  0.31741  0.12063  1.0000
  C   C16       1.0  0.6773899999999998  0.05884999999999999  0.27883  1.0000
  C   C17       1.0  0.47972  0.89406  0.23559  1.0000
  C   C18       1.0  0.3657399999999999  0.18512  0.1908  1.0000
  C   C19       1.0  0.8027699999999999  0.68409  0.12762  1.0000
  C   C20       1.0  0.18358  0.9563  0.22925000000000004  1.0000
  C   C21       1.0  0.42061999999999994  0.9177200000000001  0.29082  1.0000
  C   C22       1.0  0.6475699999999996  0.81345  0.20254  1.0000
  C   C23       1.0  0.8809599999999997  0.6167100000000001  0.08453  1.0000
  C   C24       1.0  0.21233999999999992  0.23046  0.14551000000000003  1.0000
  C   C25       1.0  0.65267  0.72511  0.18861  1.0000
  C   C26       1.0  0.36242  0.27244  0.16767  1.0000
  C   C27       1.0  0.12713  0.38606  0.0814  1.0000
  C   C28       1.0  0.8281999999999998  0.04344  0.22224  1.0000
  C   C29       1.0  0.8948199999999995  0.4691  0.27788  1.0000
  C   C30       1.0  0.06518999999999997  0.71412  0.26877  1.0000
  C   C31       1.0  0.16364999999999996  0.28063  0.31747  1.0000
  C   C32       1.0  0.93474  0.27535  0.28002  1.0000
  C   C33       1.0  0.9218699999999995  0.41942000000000007  0.22161000000000003  1.0000
  C   C34       1.0  0.10895000000000003  0.55717  0.32133  1.0000
  C   C35       1.0  0.66194  0.71704  0.36764  1.0000
  C   C36       1.0  0.22722999999999988  0.20297  0.35522  1.0000
  C   C37       1.0  0.06259000000000002  0.67626  0.21115  1.0000
  C   C38       1.0  0.33951  0.26907  0.34914  1.0000
  C   C39       1.0  0.88829  0.42282  0.33547  1.0000
  C   C40       1.0  0.8357399999999997  0.7104  0.32064  1.0000
  C   C41       1.0  0.90831  0.32603  0.33617  1.0000
  C   C42       1.0  0.08764999999999998  0.65387  0.32383  1.0000
  C   C43       1.0  0.6824699999999996  0.79211  0.37999  1.0000
  C   C44       1.0  0.94149  0.32316999999999996  0.22291000000000002  1.0000
  C   C45       1.0  0.10729  0.52064  0.26319  1.0000
  C   C46       1.0  0.81516  0.63508  0.31023  1.0000
  C   C47       1.0  0.31514  0.19694  0.37189  1.0000
  C   C48       1.0  0.04362999999999998  0.81696  0.27004  1.0000
  C   C49       1.0  0.08295999999999996  0.58016  0.20808000000000001  1.0000
  C   C50       1.0  0.18814  0.35283  0.29652  1.0000
  C   C51       1.0  0.38095  0.11680999999999998  0.41450000000000004  1.0000
  C   C52       1.0  0.76961  0.78839  0.35555  1.0000
  C   C53       1.0  0.27655  0.34693  0.31138  1.0000
  C   C54       1.0  0.7276600000000001  0.63854  0.33285  1.0000
  C   C55       1.0  0.6137700000000001  0.8726  0.41982  1.0000
  C   C56       1.0  0.9578199999999999  0.17187000000000002  0.27933  1.0000
  C   C57       1.0  0.46863  0.89458  0.77615  1.0000
  C   C58       1.0  0.7135399999999997  0.06522  0.7694300000000001  1.0000
  C   C59       1.0  0.27930999999999995  0.16353  0.8188100000000001  1.0000
  C   C60       1.0  0.2750199999999999  0.9342600000000001  0.77833  1.0000
  C   C61       1.0  0.41885999999999984  0.92165  0.71985  1.0000
  C   C62       1.0  0.55709  0.10804  0.82238  1.0000
  C   C63       1.0  0.7160299999999999  0.66214  0.86749  1.0000
  C   C64       1.0  0.20204999999999987  0.22822  0.8563800000000001  1.0000
  C   C65       1.0  0.6753999999999998  0.06258  0.71189  1.0000
  C   C66       1.0  0.26994999999999975  0.33897  0.8487600000000001  1.0000
  C   C67       1.0  0.42252  0.88789  0.83373  1.0000
  C   C68       1.0  0.7096299999999999  0.83543  0.81946  1.0000
  C   C69       1.0  0.32578  0.90783  0.8345000000000001  1.0000
  C   C70       1.0  0.6536299999999998  0.08750000000000002  0.82458  1.0000
  C   C71       1.0  0.7913  0.68259  0.8793800000000002  1.0000
  C   C72       1.0  0.3226199999999999  0.9411600000000001  0.72117  1.0000
  C   C73       1.0  0.52028  0.10594  0.76441  1.0000
  C   C74       1.0  0.6342699999999999  0.8148900000000001  0.8092100000000001  1.0000
  C   C75       1.0  0.19723999999999992  0.31591  0.8723900000000001  1.0000
  C   C76       1.0  0.8164299999999998  0.04371  0.77076  1.0000
  C   C77       1.0  0.57938  0.08229000000000002  0.70918  1.0000
  C   C78       1.0  0.35244000000000003  0.18655  0.79747  1.0000
  C   C79       1.0  0.11904999999999999  0.38329  0.9154700000000001  1.0000
  C   C80       1.0  0.78766  0.76955  0.85449  1.0000
  C   C81       1.0  0.3473399999999999  0.2749000000000001  0.81139  1.0000
  C   C82       1.0  0.63758  0.72757  0.83233  1.0000
  C   C83       1.0  0.8728799999999999  0.61395  0.91861  1.0000
  C   C84       1.0  0.17181000000000002  0.95657  0.77776  1.0000
  C   C85       1.0  0.10518999999999994  0.5309  0.7221300000000002  1.0000
  C   C86       1.0  0.9348199999999995  0.28589  0.73123  1.0000
  C   C87       1.0  0.8363599999999997  0.71938  0.68253  1.0000
  C   C88       1.0  0.06525999999999997  0.72466  0.71999  1.0000
  C   C89       1.0  0.07813  0.58059  0.77839  1.0000
  C   C90       1.0  0.89105  0.44283  0.67868  1.0000
  C   C91       1.0  0.33807000000000004  0.28296  0.63237  1.0000
  C   C92       1.0  0.7727799999999999  0.79704  0.64479  1.0000
  C   C93       1.0  0.93742  0.3237400000000001  0.78886  1.0000
  C   C94       1.0  0.6604999999999999  0.73094  0.65086  1.0000
  C   C95       1.0  0.11170999999999988  0.5771900000000002  0.66453  1.0000
  C   C96       1.0  0.16426999999999997  0.2896  0.67936  1.0000
  C   C97       1.0  0.09168999999999988  0.6739800000000001  0.66384  1.0000
  C   C98       1.0  0.91235  0.34614  0.6761800000000001  1.0000
  C   C99       1.0  0.3175399999999999  0.2079  0.62002  1.0000
  C   C100      1.0  0.05851000000000004  0.67684  0.7770900000000001  1.0000
  C   C101      1.0  0.8927199999999998  0.47937  0.73681  1.0000
  C   C102      1.0  0.18483999999999992  0.36493  0.68978  1.0000
  C   C103      1.0  0.68487  0.80307  0.62812  1.0000
  C   C104      1.0  0.9563799999999996  0.18305000000000005  0.72996  1.0000
  C   C105      1.0  0.91704  0.41985000000000006  0.79192  1.0000
  C   C106      1.0  0.8118699999999995  0.64718  0.70348  1.0000
  C   C107      1.0  0.61906  0.8832  0.5855  1.0000
  C   C108      1.0  0.2303999999999999  0.21161999999999997  0.64445  1.0000
  C   C109      1.0  0.72346  0.6530700000000002  0.68862  1.0000
  C   C110      1.0  0.27235  0.36146  0.66715  1.0000
  C   C111      1.0  0.3862399999999999  0.12741  0.58018  1.0000
  C   C112      1.0  0.04218999999999998  0.82814  0.72067  1.0000
  O   O1        1.0  0.12917  0.46316  0.05839  1.0000
  O   O2        1.0  0.94417  0.64092  0.06073  1.0000
  O   O3        1.0  0.060169999999999994  0.36364  0.07261000000000001  1.0000
  O   O4        1.0  0.87898  0.53814  0.07325  1.0000
  O   O5        1.0  0.43803999999999976  0.11724  0.22846  1.0000
  O   O6        1.0  0.57344  0.8789  0.24104  1.0000
  O   O7        1.0  0.13889  0.96083  0.28239  1.0000
  O   O8        1.0  0.14550000000000005  0.96945  0.17483  1.0000
  O   O9        1.0  0.8744399999999998  0.03931  0.16865  1.0000
  O   O10       1.0  0.86554  0.028940000000000004  0.276  1.0000
  O   O11       1.0  0.5357399999999994  0.87069  0.4407200000000001  1.0000
  O   O12       1.0  0.35537999999999986  0.053020000000000005  0.43508  1.0000
  O   O13       1.0  0.6368799999999996  0.93808  0.43156000000000005  1.0000
  O   O14       1.0  0.45940999999999976  0.11667  0.42864  1.0000
  O   O15       1.0  0.88304  0.56246  0.27299  1.0000
  O   O16       1.0  0.12360999999999996  0.42676  0.25738000000000005  1.0000
  O   O17       1.0  0.03886999999999997  0.8616100000000001  0.21682000000000004  1.0000
  O   O18       1.0  0.03079999999999991  0.8548000000000002  0.32444  1.0000
  O   O19       1.0  0.96112  0.1255  0.33279  1.0000
  O   O20       1.0  0.97403  0.13438  0.22551  1.0000
  O   O21       1.0  0.87083  0.53684  0.9416100000000001  1.0000
  O   O22       1.0  0.05583999999999989  0.35909  0.93927  1.0000
  O   O23       1.0  0.93984  0.63637  0.92739  1.0000
  O   O24       1.0  0.12102  0.46186  0.92675  1.0000
  O   O25       1.0  0.5619699999999997  0.8827700000000003  0.7715400000000001  1.0000
  O   O26       1.0  0.42656999999999984  0.12111000000000001  0.75897  1.0000
  O   O27       1.0  0.8611099999999998  0.03917999999999999  0.7176200000000001  1.0000
  O   O28       1.0  0.8545  0.030559999999999997  0.82518  1.0000
  O   O29       1.0  0.12557  0.96069  0.8313500000000001  1.0000
  O   O30       1.0  0.1344699999999999  0.9710600000000001  0.72401  1.0000
  O   O31       1.0  0.46427  0.12932  0.55928  1.0000
  O   O32       1.0  0.64463  0.9469900000000002  0.56493  1.0000
  O   O33       1.0  0.36312  0.06193000000000001  0.56845  1.0000
  O   O34       1.0  0.5405999999999997  0.8833300000000002  0.57137  1.0000
  O   O35       1.0  0.11696000000000001  0.43755  0.72701  1.0000
  O   O36       1.0  0.8764000000000001  0.57324  0.74262  1.0000
  O   O37       1.0  0.9611399999999997  0.13839000000000007  0.78318  1.0000
  O   O38       1.0  0.9691999999999998  0.14521  0.67557  1.0000
  O   O39       1.0  0.03889000000000003  0.87451  0.66721  1.0000
  O   O40       1.0  0.02597000000000001  0.86562  0.7745  1.0000
