data_image0
_chemical_formula_structural       Zn8H72C112N12O32
_chemical_formula_sum              "Zn8 H72 C112 N12 O32"
_cell_length_a       14.24851
_cell_length_b       16.394249999999996
_cell_length_c       16.39439
_cell_angle_alpha    61.33579000000001
_cell_angle_beta     87.86875
_cell_angle_gamma    87.86873000000001

_symmetry_space_group_name_H-M    'P 1'
_symmetry_Int_Tables_number       1

loop_
  _symmetry_equiv_pos_as_xyz
  'x,y,z'

loop_
  _atom_site_type_symbol
  _atom_site_label
  _atom_site_symmetry_multiplicity
  _atom_site_fract_x
  _atom_site_fract_y
  _atom_site_fract_z
  _atom_site_occupancy
  Zn  Zn1       1.0  0.63498  0.8533600000000003  0.54711  1.0000
  Zn  Zn2       1.0  0.5745399999999998  0.030070000000000003  0.54364  1.0000
  Zn  Zn3       1.0  0.8650299999999997  0.45289000000000007  0.14663999999999994  1.0000
  Zn  Zn4       1.0  0.92547  0.45636000000000015  0.9699299999999997  1.0000
  Zn  Zn5       1.0  0.3650299999999999  0.14665000000000006  0.4528899999999999  1.0000
  Zn  Zn6       1.0  0.4254699999999999  0.9699400000000001  0.45634999999999987  1.0000
  Zn  Zn7       1.0  0.13497999999999996  0.5471100000000002  0.8533499999999998  1.0000
  Zn  Zn8       1.0  0.07453999999999998  0.54365  0.030069999999999993  1.0000
  H   H1        1.0  0.6623899999999998  0.8409200000000002  0.06447999999999998  1.0000
  H   H2        1.0  0.5862199999999997  0.8471800000000003  0.15149  1.0000
  H   H3        1.0  0.54423  0.8815600000000001  0.2788899999999999  1.0000
  H   H4        1.0  0.57054  0.1734  0.09512  1.0000
  H   H5        1.0  0.62034  0.13963000000000014  0.9650299999999998  1.0000
  H   H6        1.0  0.65968  0.9559100000000003  0.8057799999999998  1.0000
  H   H7        1.0  0.7635599999999999  0.7034800000000002  0.8106799999999997  1.0000
  H   H8        1.0  0.7221299999999998  0.7120800000000003  0.06633  1.0000
  H   H9        1.0  0.6309699999999999  0.78239  0.41143999999999986  1.0000
  H   H10       1.0  0.62727  0.63095  0.41058  1.0000
  H   H11       1.0  0.63073  0.49595000000000006  0.7115499999999998  1.0000
  H   H12       1.0  0.6336499999999999  0.6538400000000004  0.69872  1.0000
  H   H13       1.0  0.6353899999999998  0.10918000000000004  0.66728  1.0000
  H   H14       1.0  0.64308  0.26231000000000004  0.6616099999999999  1.0000
  H   H15       1.0  0.6111999999999997  0.38886000000000004  0.36309  1.0000
  H   H16       1.0  0.6009199999999998  0.22747000000000006  0.3836799999999999  1.0000
  H   H17       1.0  0.62526  0.39909000000000006  0.64208  1.0000
  H   H18       1.0  0.6257699999999999  0.49095  0.42845999999999995  1.0000
  H   H19       1.0  0.83762  0.93553  0.15907999999999994  1.0000
  H   H20       1.0  0.91379  0.84852  0.15281999999999996  1.0000
  H   H21       1.0  0.9557799999999997  0.7211100000000003  0.11843999999999999  1.0000
  H   H22       1.0  0.9294699999999998  0.9048900000000001  0.8265999999999998  1.0000
  H   H23       1.0  0.8796699999999997  0.034970000000000036  0.86037  1.0000
  H   H24       1.0  0.8403299999999998  0.19422000000000006  0.04409  1.0000
  H   H25       1.0  0.73645  0.18932  0.29652  1.0000
  H   H26       1.0  0.77788  0.93368  0.2879199999999999  1.0000
  H   H27       1.0  0.8690399999999998  0.5885600000000002  0.21760999999999994  1.0000
  H   H28       1.0  0.8727399999999997  0.5894200000000003  0.3690499999999999  1.0000
  H   H29       1.0  0.8692799999999998  0.28844999999999993  0.50405  1.0000
  H   H30       1.0  0.8663599999999998  0.30128  0.34616  1.0000
  H   H31       1.0  0.8646100000000001  0.3327200000000002  0.8908199999999997  1.0000
  H   H32       1.0  0.8569299999999997  0.33838000000000024  0.7376799999999998  1.0000
  H   H33       1.0  0.88881  0.6369200000000003  0.6111399999999998  1.0000
  H   H34       1.0  0.89909  0.6163200000000002  0.7725299999999998  1.0000
  H   H35       1.0  0.8747399999999999  0.3579200000000001  0.6009099999999998  1.0000
  H   H36       1.0  0.8742399999999998  0.57154  0.50905  1.0000
  H   H37       1.0  0.33761999999999986  0.1590900000000001  0.9355199999999999  1.0000
  H   H38       1.0  0.4137899999999999  0.15283000000000013  0.8485099999999998  1.0000
  H   H39       1.0  0.4557800000000001  0.11844000000000011  0.7211099999999998  1.0000
  H   H40       1.0  0.4294699999999999  0.8266000000000002  0.9048799999999998  1.0000
  H   H41       1.0  0.3796699999999999  0.86038  0.03497  1.0000
  H   H42       1.0  0.3403299999999999  0.04409000000000001  0.19421999999999998  1.0000
  H   H43       1.0  0.23645  0.29652  0.18930999999999998  1.0000
  H   H44       1.0  0.2778799999999999  0.2879200000000001  0.9336699999999998  1.0000
  H   H45       1.0  0.36904  0.21761000000000008  0.5885599999999999  1.0000
  H   H46       1.0  0.3727399999999999  0.3690500000000001  0.5894099999999998  1.0000
  H   H47       1.0  0.3692799999999999  0.50406  0.2884499999999999  1.0000
  H   H48       1.0  0.36635999999999996  0.3461600000000001  0.30126999999999987  1.0000
  H   H49       1.0  0.3646099999999999  0.8908300000000001  0.33272  1.0000
  H   H50       1.0  0.3569299999999999  0.7376900000000001  0.3383799999999999  1.0000
  H   H51       1.0  0.3888099999999999  0.6111500000000002  0.6369099999999998  1.0000
  H   H52       1.0  0.3990899999999999  0.7725300000000005  0.61632  1.0000
  H   H53       1.0  0.37473999999999996  0.6009200000000003  0.3579199999999999  1.0000
  H   H54       1.0  0.37424  0.50906  0.5715299999999999  1.0000
  H   H55       1.0  0.16239000000000003  0.06448000000000008  0.8409099999999998  1.0000
  H   H56       1.0  0.08621999999999999  0.1514900000000001  0.8471699999999998  1.0000
  H   H57       1.0  0.044230000000000026  0.27889  0.88156  1.0000
  H   H58       1.0  0.07054  0.09512000000000008  0.17339999999999994  1.0000
  H   H59       1.0  0.12033999999999996  0.9650400000000001  0.13963  1.0000
  H   H60       1.0  0.15966999999999998  0.8057900000000003  0.9559099999999998  1.0000
  H   H61       1.0  0.2635499999999999  0.81069  0.70348  1.0000
  H   H62       1.0  0.22213  0.06633000000000011  0.7120699999999998  1.0000
  H   H63       1.0  0.13097  0.41144000000000003  0.7823899999999998  1.0000
  H   H64       1.0  0.12727  0.41059000000000023  0.63094  1.0000
  H   H65       1.0  0.13072999999999996  0.71155  0.4959499999999999  1.0000
  H   H66       1.0  0.13365  0.69873  0.65383  1.0000
  H   H67       1.0  0.13539  0.66728  0.10917999999999997  1.0000
  H   H68       1.0  0.14308  0.66162  0.2623099999999999  1.0000
  H   H69       1.0  0.1112  0.36309  0.38886  1.0000
  H   H70       1.0  0.10090999999999999  0.3836800000000002  0.22747  1.0000
  H   H71       1.0  0.12526  0.64209  0.3990899999999999  1.0000
  H   H72       1.0  0.12575999999999996  0.42847000000000013  0.4909399999999999  1.0000
  C   C1        1.0  0.6100199999999998  0.99203  0.04877  1.0000
  C   C2        1.0  0.58762  0.9190900000000003  0.13769  1.0000
  C   C3        1.0  0.56199  0.9373000000000001  0.21002  1.0000
  C   C4        1.0  0.55605  0.028900000000000023  0.19521999999999995  1.0000
  C   C5        1.0  0.5758099999999999  0.10236  0.10638  1.0000
  C   C6        1.0  0.60311  0.08376000000000001  0.03412999999999999  1.0000
  C   C7        1.0  0.6884  0.8407100000000001  0.9418099999999998  1.0000
  C   C8        1.0  0.68433  0.88447  0.84477  1.0000
  C   C9        1.0  0.7099100000000002  0.8339700000000001  0.7983799999999998  1.0000
  C   C10       1.0  0.7420299999999997  0.74166  0.8472699999999997  1.0000
  C   C11       1.0  0.7462099999999999  0.6981  0.9441399999999998  1.0000
  C   C12       1.0  0.7182699999999997  0.7473200000000001  0.9909299999999998  1.0000
  C   C13       1.0  0.6947399999999998  0.8774600000000002  0.6961399999999998  1.0000
  C   C14       1.0  0.78457  0.6007900000000002  0.9969499999999998  1.0000
  C   C15       1.0  0.52613  0.04455999999999999  0.27675  1.0000
  C   C16       1.0  0.6406499999999998  0.9763600000000002  0.9686699999999998  1.0000
  C   C17       1.0  0.63007  0.7165500000000001  0.47588999999999987  1.0000
  C   C18       1.0  0.62831  0.63165  0.47654999999999986  1.0000
  C   C19       1.0  0.6276199999999998  0.5483500000000001  0.5620299999999998  1.0000
  C   C20       1.0  0.6295299999999998  0.55735  0.64328  1.0000
  C   C21       1.0  0.6313  0.6448500000000003  0.63712  1.0000
  C   C22       1.0  0.62957  0.17324  0.60166  1.0000
  C   C23       1.0  0.6337400000000001  0.2597700000000001  0.5973199999999997  1.0000
  C   C24       1.0  0.62541  0.34107000000000004  0.51087  1.0000
  C   C25       1.0  0.61602  0.32897000000000004  0.4321299999999999  1.0000
  C   C26       1.0  0.6112399999999999  0.23969000000000007  0.44246999999999986  1.0000
  C   C27       1.0  0.62592  0.45568999999999993  0.57067  1.0000
  C   C28       1.0  0.6258  0.43479999999999996  0.50011  1.0000
  C   C29       1.0  0.88998  0.95123  0.00797  1.0000
  C   C30       1.0  0.91239  0.8623100000000002  0.08092  1.0000
  C   C31       1.0  0.9380199999999997  0.7899800000000001  0.06270999999999999  1.0000
  C   C32       1.0  0.94396  0.8047800000000003  0.9710999999999997  1.0000
  C   C33       1.0  0.9241999999999998  0.8936200000000004  0.8976399999999998  1.0000
  C   C34       1.0  0.8969  0.9658800000000002  0.9162399999999998  1.0000
  C   C35       1.0  0.8116099999999998  0.05819000000000002  0.15928999999999993  1.0000
  C   C36       1.0  0.8156799999999997  0.15523000000000006  0.11552999999999998  1.0000
  C   C37       1.0  0.7901  0.20162  0.16602999999999996  1.0000
  C   C38       1.0  0.75798  0.1527300000000001  0.25834  1.0000
  C   C39       1.0  0.7537999999999999  0.05586000000000003  0.30190999999999996  1.0000
  C   C40       1.0  0.78174  0.009059999999999997  0.25268  1.0000
  C   C41       1.0  0.8052699999999999  0.30386  0.12253999999999997  1.0000
  C   C42       1.0  0.71544  0.0030400000000000505  0.3992199999999999  1.0000
  C   C43       1.0  0.9738799999999999  0.72325  0.9554299999999998  1.0000
  C   C44       1.0  0.85936  0.03133  0.023649999999999994  1.0000
  C   C45       1.0  0.8699399999999998  0.52411  0.2834499999999999  1.0000
  C   C46       1.0  0.8717  0.52345  0.3683499999999999  1.0000
  C   C47       1.0  0.87239  0.43797000000000014  0.45164999999999994  1.0000
  C   C48       1.0  0.87048  0.35672000000000004  0.4426599999999999  1.0000
  C   C49       1.0  0.8687099999999998  0.36288  0.3551499999999999  1.0000
  C   C50       1.0  0.8704399999999998  0.39834  0.82676  1.0000
  C   C51       1.0  0.8662699999999998  0.4026800000000001  0.7402299999999998  1.0000
  C   C52       1.0  0.8746  0.48913  0.65893  1.0000
  C   C53       1.0  0.88399  0.56787  0.6710299999999998  1.0000
  C   C54       1.0  0.8887699999999998  0.55753  0.7603099999999999  1.0000
  C   C55       1.0  0.8740899999999998  0.42932000000000003  0.54431  1.0000
  C   C56       1.0  0.87421  0.49989000000000006  0.5651999999999999  1.0000
  C   C57       1.0  0.38997999999999994  0.00797  0.95123  1.0000
  C   C58       1.0  0.4123899999999999  0.0809200000000001  0.8623099999999998  1.0000
  C   C59       1.0  0.43800999999999995  0.06271  0.78998  1.0000
  C   C60       1.0  0.44396  0.9711  0.8047699999999998  1.0000
  C   C61       1.0  0.4241899999999999  0.8976500000000001  0.8936099999999998  1.0000
  C   C62       1.0  0.3969  0.9162500000000001  0.9658699999999998  1.0000
  C   C63       1.0  0.3116099999999999  0.15929  0.058189999999999985  1.0000
  C   C64       1.0  0.31567999999999996  0.11553000000000002  0.15522999999999995  1.0000
  C   C65       1.0  0.2901  0.16603  0.20162  1.0000
  C   C66       1.0  0.25798  0.25834  0.15273  1.0000
  C   C67       1.0  0.2538  0.30191  0.05584999999999998  1.0000
  C   C68       1.0  0.28174  0.25268  0.009059999999999997  1.0000
  C   C69       1.0  0.30527  0.12254000000000004  0.30386  1.0000
  C   C70       1.0  0.21544  0.39922  0.00304  1.0000
  C   C71       1.0  0.47388  0.9554399999999998  0.72324  1.0000
  C   C72       1.0  0.3593599999999999  0.023650000000000004  0.03133  1.0000
  C   C73       1.0  0.36994  0.28345  0.52411  1.0000
  C   C74       1.0  0.3717  0.36835000000000007  0.5234399999999999  1.0000
  C   C75       1.0  0.37239  0.45166000000000006  0.4379599999999999  1.0000
  C   C76       1.0  0.37047999999999986  0.44266000000000005  0.35671999999999987  1.0000
  C   C77       1.0  0.36871  0.35515000000000013  0.3628699999999999  1.0000
  C   C78       1.0  0.37044  0.8267700000000001  0.3983399999999999  1.0000
  C   C79       1.0  0.36627  0.7402300000000002  0.40267999999999987  1.0000
  C   C80       1.0  0.37459999999999993  0.6589400000000002  0.4891299999999999  1.0000
  C   C81       1.0  0.3839799999999999  0.6710300000000002  0.56786  1.0000
  C   C82       1.0  0.38877  0.7603100000000002  0.5575199999999998  1.0000
  C   C83       1.0  0.37408999999999987  0.5443200000000001  0.42931999999999987  1.0000
  C   C84       1.0  0.37421  0.5652  0.4998899999999999  1.0000
  C   C85       1.0  0.11001999999999997  0.04877000000000007  0.9920299999999997  1.0000
  C   C86       1.0  0.08761  0.13769  0.9190799999999999  1.0000
  C   C87       1.0  0.06198999999999998  0.21002000000000015  0.9372899999999997  1.0000
  C   C88       1.0  0.05605  0.19522  0.02889999999999999  1.0000
  C   C89       1.0  0.07581  0.10638000000000002  0.10236  1.0000
  C   C90       1.0  0.10309999999999997  0.03413  0.08376  1.0000
  C   C91       1.0  0.18839999999999996  0.9418100000000001  0.8406999999999998  1.0000
  C   C92       1.0  0.18432999999999997  0.8447800000000002  0.8844699999999998  1.0000
  C   C93       1.0  0.20990999999999999  0.7983800000000002  0.8339699999999998  1.0000
  C   C94       1.0  0.24202999999999997  0.8472700000000002  0.7416599999999998  1.0000
  C   C95       1.0  0.24620999999999998  0.9441500000000003  0.6980899999999998  1.0000
  C   C96       1.0  0.21827  0.9909400000000002  0.74731  1.0000
  C   C97       1.0  0.19474  0.6961399999999999  0.87746  1.0000
  C   C98       1.0  0.28457  0.9969600000000001  0.6007799999999998  1.0000
  C   C99       1.0  0.02613  0.27676  0.04455999999999999  1.0000
  C   C100      1.0  0.14064  0.9686699999999999  0.97635  1.0000
  C   C101      1.0  0.13006999999999996  0.47589000000000015  0.7165499999999998  1.0000
  C   C102      1.0  0.12831  0.47655999999999993  0.63165  1.0000
  C   C103      1.0  0.12762  0.56204  0.54834  1.0000
  C   C104      1.0  0.12952999999999998  0.6432900000000001  0.5573399999999997  1.0000
  C   C105      1.0  0.1313  0.63713  0.6448499999999999  1.0000
  C   C106      1.0  0.12957  0.60166  0.17323999999999995  1.0000
  C   C107      1.0  0.13373  0.59732  0.25977  1.0000
  C   C108      1.0  0.12540999999999994  0.51087  0.34107  1.0000
  C   C109      1.0  0.11602  0.43213999999999997  0.32897  1.0000
  C   C110      1.0  0.11124000000000002  0.44248  0.23968999999999993  1.0000
  C   C111      1.0  0.12592000000000003  0.57068  0.45567999999999986  1.0000
  C   C112      1.0  0.12580000000000002  0.50011  0.4347999999999999  1.0000
  N   N1        1.0  0.6314  0.7236200000000005  0.5547199999999999  1.0000
  N   N2        1.0  0.6171299999999997  0.16306000000000007  0.5258799999999999  1.0000
  N   N3        1.0  0.66184  0.8842300000000001  0.9949799999999998  1.0000
  N   N4        1.0  0.8686099999999998  0.44527999999999995  0.27639  1.0000
  N   N5        1.0  0.88288  0.4741200000000001  0.8369299999999997  1.0000
  N   N6        1.0  0.83817  0.005020000000000014  0.11577999999999997  1.0000
  N   N7        1.0  0.3686099999999999  0.2763900000000001  0.44528  1.0000
  N   N8        1.0  0.38287999999999994  0.8369400000000001  0.47410999999999986  1.0000
  N   N9        1.0  0.33817  0.11578000000000002  0.00502  1.0000
  N   N10       1.0  0.1314  0.5547200000000001  0.7236099999999998  1.0000
  N   N11       1.0  0.11712  0.52589  0.16305999999999995  1.0000
  N   N12       1.0  0.16183999999999998  0.9949800000000002  0.8842199999999998  1.0000
  O   O1        1.0  0.70058  0.8208500000000002  0.6623399999999998  1.0000
  O   O2        1.0  0.6759399999999999  0.9638200000000001  0.6511299999999998  1.0000
  O   O3        1.0  0.78553  0.5659800000000001  0.08660999999999998  1.0000
  O   O4        1.0  0.8141099999999998  0.5603400000000001  0.9520899999999999  1.0000
  O   O5        1.0  0.5145499999999998  0.9687300000000001  0.3532599999999999  1.0000
  O   O6        1.0  0.51451  0.12664  0.26214  1.0000
  O   O7        1.0  0.64709  0.03999000000000011  0.8877299999999998  1.0000
  O   O8        1.0  0.52007  0.9113400000000003  0.5575099999999998  1.0000
  O   O9        1.0  0.7994299999999998  0.33766  0.17915  1.0000
  O   O10       1.0  0.8240699999999997  0.34887000000000007  0.03618  1.0000
  O   O11       1.0  0.7144799999999998  0.9133900000000001  0.4340199999999999  1.0000
  O   O12       1.0  0.6859  0.04791000000000004  0.4396599999999999  1.0000
  O   O13       1.0  0.9854599999999998  0.64674  0.03127999999999999  1.0000
  O   O14       1.0  0.9854999999999999  0.7378600000000001  0.8733599999999998  1.0000
  O   O15       1.0  0.85292  0.11227000000000008  0.9600099999999998  1.0000
  O   O16       1.0  0.9799399999999998  0.44249  0.08867  1.0000
  O   O17       1.0  0.29943  0.17916000000000004  0.3376599999999999  1.0000
  O   O18       1.0  0.3240699999999999  0.03618000000000007  0.3488599999999999  1.0000
  O   O19       1.0  0.21447999999999998  0.4340200000000001  0.91339  1.0000
  O   O20       1.0  0.1859  0.43967  0.04791  1.0000
  O   O21       1.0  0.4854599999999999  0.03128000000000001  0.64673  1.0000
  O   O22       1.0  0.4854999999999998  0.87337  0.73785  1.0000
  O   O23       1.0  0.35292  0.9600200000000002  0.11226999999999997  1.0000
  O   O24       1.0  0.47993999999999987  0.08867  0.44248  1.0000
  O   O25       1.0  0.20057999999999998  0.6623400000000004  0.82084  1.0000
  O   O26       1.0  0.17593  0.6511400000000002  0.9638099999999997  1.0000
  O   O27       1.0  0.28552999999999995  0.08661000000000002  0.5659799999999999  1.0000
  O   O28       1.0  0.31411  0.9520900000000002  0.5603299999999998  1.0000
  O   O29       1.0  0.01455000000000001  0.35327000000000003  0.9687199999999999  1.0000
  O   O30       1.0  0.014509999999999993  0.26214  0.12664  1.0000
  O   O31       1.0  0.14709  0.8877400000000002  0.03998  1.0000
  O   O32       1.0  0.020070000000000005  0.5575200000000002  0.9113299999999998  1.0000
