data_image0
_chemical_formula_structural       Cu16H88C184O72
_chemical_formula_sum              "Cu16 H88 C184 O72"
_cell_length_a       17.99761
_cell_length_b       17.99761
_cell_length_c       28.46835
_cell_angle_alpha    90.0
_cell_angle_beta     90.0
_cell_angle_gamma    90.0

_symmetry_space_group_name_H-M    'P 1'
_symmetry_Int_Tables_number       1

loop_
  _symmetry_equiv_pos_as_xyz
  'x,y,z'

loop_
  _atom_site_type_symbol
  _atom_site_label
  _atom_site_symmetry_multiplicity
  _atom_site_fract_x
  _atom_site_fract_y
  _atom_site_fract_z
  _atom_site_occupancy
  Cu  Cu1       1.0  0.46292  0.53708  0.4727099999999999  1.0000
  Cu  Cu2       1.0  0.03708  0.96292  0.4727099999999999  1.0000
  Cu  Cu3       1.0  0.96292  0.46292  0.9727099999999997  1.0000
  Cu  Cu4       1.0  0.53708  0.03708  0.9727099999999997  1.0000
  Cu  Cu5       1.0  0.03708  0.53708  0.02728999999999999  1.0000
  Cu  Cu6       1.0  0.46292  0.96292  0.02728999999999999  1.0000
  Cu  Cu7       1.0  0.53708  0.46292  0.52729  1.0000
  Cu  Cu8       1.0  0.96292  0.03708  0.52729  1.0000
  Cu  Cu9       1.0  0.68218  0.75  0.24999999999999994  1.0000
  Cu  Cu10      1.0  0.81783  0.75  0.24999999999999994  1.0000
  Cu  Cu11      1.0  0.75  0.68218  0.7499999999999998  1.0000
  Cu  Cu12      1.0  0.75  0.81783  0.7499999999999998  1.0000
  Cu  Cu13      1.0  0.31783  0.25  0.7499999999999998  1.0000
  Cu  Cu14      1.0  0.18218  0.25  0.7499999999999998  1.0000
  Cu  Cu15      1.0  0.25  0.31783  0.24999999999999994  1.0000
  Cu  Cu16      1.0  0.25  0.18217  0.24999999999999994  1.0000
  H   H1        1.0  0.8594999999999999  0.56806  0.34452999999999995  1.0000
  H   H2        1.0  0.74709  0.4659400000000001  0.46169999999999994  1.0000
  H   H3        1.0  0.6282799999999998  0.61427  0.37008  1.0000
  H   H4        1.0  0.8903400000000001  0.55992  0.47419  1.0000
  H   H5        1.0  0.84983  0.27918  0.3917  1.0000
  H   H6        1.0  0.6405  0.93194  0.34452999999999995  1.0000
  H   H7        1.0  0.75291  0.03406  0.46169999999999994  1.0000
  H   H8        1.0  0.87173  0.88574  0.37008  1.0000
  H   H9        1.0  0.60966  0.9400899999999999  0.47419  1.0000
  H   H10       1.0  0.6501699999999999  0.22082  0.3917  1.0000
  H   H11       1.0  0.93194  0.8594999999999999  0.8445299999999998  1.0000
  H   H12       1.0  0.03406  0.74709  0.9616999999999998  1.0000
  H   H13       1.0  0.88574  0.6282799999999998  0.8700799999999999  1.0000
  H   H14       1.0  0.9400899999999999  0.8903400000000001  0.9741899999999998  1.0000
  H   H15       1.0  0.22082  0.84983  0.8916999999999998  1.0000
  H   H16       1.0  0.56806  0.6405  0.8445299999999998  1.0000
  H   H17       1.0  0.4659400000000001  0.75291  0.9616999999999998  1.0000
  H   H18       1.0  0.61427  0.87173  0.8700799999999999  1.0000
  H   H19       1.0  0.55992  0.60967  0.9741899999999998  1.0000
  H   H20       1.0  0.27918  0.6501699999999999  0.8916999999999998  1.0000
  H   H21       1.0  0.6405  0.56806  0.15546999999999994  1.0000
  H   H22       1.0  0.75291  0.4659400000000001  0.0383  1.0000
  H   H23       1.0  0.87173  0.61427  0.12992  1.0000
  H   H24       1.0  0.60966  0.55992  0.02581  1.0000
  H   H25       1.0  0.6501699999999999  0.27918  0.10829999999999997  1.0000
  H   H26       1.0  0.8594999999999999  0.93194  0.15546999999999994  1.0000
  H   H27       1.0  0.74709  0.03406  0.0383  1.0000
  H   H28       1.0  0.6282799999999998  0.88574  0.12992  1.0000
  H   H29       1.0  0.8903400000000001  0.9400899999999999  0.02581  1.0000
  H   H30       1.0  0.84983  0.22082  0.10829999999999997  1.0000
  H   H31       1.0  0.56806  0.8594999999999999  0.65547  1.0000
  H   H32       1.0  0.4659400000000001  0.74709  0.5383  1.0000
  H   H33       1.0  0.61427  0.6282799999999998  0.62992  1.0000
  H   H34       1.0  0.55992  0.8903400000000001  0.5258099999999999  1.0000
  H   H35       1.0  0.27918  0.84983  0.6083  1.0000
  H   H36       1.0  0.93194  0.6405  0.65547  1.0000
  H   H37       1.0  0.03406  0.75291  0.5383  1.0000
  H   H38       1.0  0.88574  0.87173  0.62992  1.0000
  H   H39       1.0  0.9400899999999999  0.60966  0.5258099999999999  1.0000
  H   H40       1.0  0.22082  0.6501699999999999  0.6083  1.0000
  H   H41       1.0  0.1405  0.43194  0.65547  1.0000
  H   H42       1.0  0.25291  0.5340599999999999  0.5383  1.0000
  H   H43       1.0  0.37172  0.38574  0.62992  1.0000
  H   H44       1.0  0.10965999999999997  0.44009  0.5258099999999999  1.0000
  H   H45       1.0  0.15016999999999997  0.72082  0.6083  1.0000
  H   H46       1.0  0.3595  0.06806  0.65547  1.0000
  H   H47       1.0  0.24709000000000003  0.9659399999999999  0.5383  1.0000
  H   H48       1.0  0.12828  0.11425999999999999  0.62992  1.0000
  H   H49       1.0  0.39034  0.05992000000000001  0.5258099999999999  1.0000
  H   H50       1.0  0.34983  0.77918  0.6083  1.0000
  H   H51       1.0  0.06806  0.1405  0.15546999999999994  1.0000
  H   H52       1.0  0.9659399999999999  0.25291  0.0383  1.0000
  H   H53       1.0  0.11425999999999999  0.37172  0.12992  1.0000
  H   H54       1.0  0.05992000000000001  0.10965999999999997  0.02581  1.0000
  H   H55       1.0  0.77918  0.15016999999999997  0.10829999999999997  1.0000
  H   H56       1.0  0.43194  0.3595  0.15546999999999994  1.0000
  H   H57       1.0  0.5340599999999999  0.24709000000000003  0.0383  1.0000
  H   H58       1.0  0.38574  0.12828  0.12992  1.0000
  H   H59       1.0  0.44009  0.39034  0.02581  1.0000
  H   H60       1.0  0.72082  0.34983  0.10829999999999997  1.0000
  H   H61       1.0  0.3595  0.43194  0.8445299999999998  1.0000
  H   H62       1.0  0.24709000000000003  0.5340599999999999  0.9616999999999998  1.0000
  H   H63       1.0  0.12828  0.38574  0.8700799999999999  1.0000
  H   H64       1.0  0.39034  0.44009  0.9741899999999998  1.0000
  H   H65       1.0  0.34983  0.72082  0.8916999999999998  1.0000
  H   H66       1.0  0.1405  0.06806  0.8445299999999998  1.0000
  H   H67       1.0  0.25291  0.9659399999999999  0.9616999999999998  1.0000
  H   H68       1.0  0.37172  0.11425999999999999  0.8700799999999999  1.0000
  H   H69       1.0  0.10965999999999997  0.05992000000000001  0.9741899999999998  1.0000
  H   H70       1.0  0.15016999999999997  0.77918  0.8916999999999998  1.0000
  H   H71       1.0  0.43194  0.1405  0.34452999999999995  1.0000
  H   H72       1.0  0.5340599999999999  0.25291  0.46169999999999994  1.0000
  H   H73       1.0  0.38574  0.37172  0.37008  1.0000
  H   H74       1.0  0.44009  0.10965999999999997  0.47419  1.0000
  H   H75       1.0  0.72082  0.15016999999999997  0.3917  1.0000
  H   H76       1.0  0.06806  0.3595  0.34452999999999995  1.0000
  H   H77       1.0  0.9659399999999999  0.24709000000000003  0.46169999999999994  1.0000
  H   H78       1.0  0.11425999999999999  0.12828  0.37008  1.0000
  H   H79       1.0  0.05992000000000001  0.39034  0.47419  1.0000
  H   H80       1.0  0.77918  0.34983  0.3917  1.0000
  H   H81       1.0  0.80589  0.30589  0.3376999999999999  1.0000
  H   H82       1.0  0.69411  0.19410999999999998  0.3376999999999999  1.0000
  H   H83       1.0  0.19410999999999998  0.80589  0.8377  1.0000
  H   H84       1.0  0.30589  0.69411  0.8377  1.0000
  H   H85       1.0  0.69411  0.30589  0.1623  1.0000
  H   H86       1.0  0.80589  0.19410999999999998  0.1623  1.0000
  H   H87       1.0  0.30589  0.80589  0.66231  1.0000
  H   H88       1.0  0.19410999999999998  0.69411  0.66231  1.0000
  C   C1        1.0  0.74446  0.65092  0.31386999999999987  1.0000
  C   C2        1.0  0.7439  0.5958399999999999  0.3531199999999999  1.0000
  C   C3        1.0  0.8095299999999997  0.55824  0.36511  1.0000
  C   C4        1.0  0.8112  0.51096  0.4041299999999999  1.0000
  C   C5        1.0  0.7465  0.50127  0.4307199999999999  1.0000
  C   C6        1.0  0.68042  0.53774  0.41843  1.0000
  C   C7        1.0  0.67897  0.585  0.3794299999999999  1.0000
  C   C8        1.0  0.61294  0.52669  0.4481  1.0000
  C   C9        1.0  0.88166  0.47712  0.42126  1.0000
  C   C10       1.0  0.91621  0.5102399999999999  0.4599499999999999  1.0000
  C   C11       1.0  0.75554  0.84908  0.31386999999999987  1.0000
  C   C12       1.0  0.75611  0.9041599999999999  0.3531199999999999  1.0000
  C   C13       1.0  0.69047  0.9417600000000002  0.36511  1.0000
  C   C14       1.0  0.6888  0.98904  0.4041299999999999  1.0000
  C   C15       1.0  0.7535099999999999  0.9987299999999999  0.4307199999999999  1.0000
  C   C16       1.0  0.81958  0.9622699999999998  0.41843  1.0000
  C   C17       1.0  0.8210399999999999  0.91501  0.3794299999999999  1.0000
  C   C18       1.0  0.88706  0.9733100000000001  0.4481  1.0000
  C   C19       1.0  0.61834  0.02288  0.42126  1.0000
  C   C20       1.0  0.5838  0.98976  0.4599499999999999  1.0000
  C   C21       1.0  0.84908  0.74446  0.8138699999999998  1.0000
  C   C22       1.0  0.9041599999999999  0.7439  0.85312  1.0000
  C   C23       1.0  0.9417600000000002  0.8095299999999997  0.8651099999999998  1.0000
  C   C24       1.0  0.98904  0.8112  0.9041299999999998  1.0000
  C   C25       1.0  0.9987299999999999  0.7465  0.9307199999999998  1.0000
  C   C26       1.0  0.9622699999999998  0.68042  0.9184299999999997  1.0000
  C   C27       1.0  0.91501  0.67897  0.87943  1.0000
  C   C28       1.0  0.9733100000000001  0.61294  0.9481099999999998  1.0000
  C   C29       1.0  0.02288  0.88166  0.9212599999999997  1.0000
  C   C30       1.0  0.98976  0.91621  0.95995  1.0000
  C   C31       1.0  0.65092  0.75554  0.8138699999999998  1.0000
  C   C32       1.0  0.5958399999999999  0.75611  0.85312  1.0000
  C   C33       1.0  0.55824  0.69047  0.8651099999999998  1.0000
  C   C34       1.0  0.51096  0.6888  0.9041299999999998  1.0000
  C   C35       1.0  0.50127  0.7535099999999999  0.9307199999999998  1.0000
  C   C36       1.0  0.53774  0.81958  0.9184299999999997  1.0000
  C   C37       1.0  0.585  0.8210399999999999  0.87943  1.0000
  C   C38       1.0  0.52669  0.88706  0.9481099999999998  1.0000
  C   C39       1.0  0.47712  0.61834  0.9212599999999997  1.0000
  C   C40       1.0  0.5102399999999999  0.5838  0.95995  1.0000
  C   C41       1.0  0.75554  0.65092  0.18612999999999993  1.0000
  C   C42       1.0  0.75611  0.5958399999999999  0.14688  1.0000
  C   C43       1.0  0.69047  0.55824  0.13489999999999994  1.0000
  C   C44       1.0  0.6888  0.51096  0.09587  1.0000
  C   C45       1.0  0.7535099999999999  0.50127  0.06928  1.0000
  C   C46       1.0  0.81958  0.53774  0.08156999999999998  1.0000
  C   C47       1.0  0.8210399999999999  0.585  0.12058  1.0000
  C   C48       1.0  0.88706  0.52669  0.05189999999999999  1.0000
  C   C49       1.0  0.61834  0.47712  0.07875  1.0000
  C   C50       1.0  0.5838  0.5102399999999999  0.04006  1.0000
  C   C51       1.0  0.74446  0.84908  0.18612999999999993  1.0000
  C   C52       1.0  0.7439  0.9041599999999999  0.14688  1.0000
  C   C53       1.0  0.8095299999999997  0.9417600000000002  0.13489999999999994  1.0000
  C   C54       1.0  0.8112  0.98904  0.09587  1.0000
  C   C55       1.0  0.7465  0.9987299999999999  0.06928  1.0000
  C   C56       1.0  0.68042  0.9622699999999998  0.08156999999999998  1.0000
  C   C57       1.0  0.67897  0.91501  0.12058  1.0000
  C   C58       1.0  0.61294  0.9733100000000001  0.05189999999999999  1.0000
  C   C59       1.0  0.88166  0.02288  0.07875  1.0000
  C   C60       1.0  0.91621  0.98976  0.04006  1.0000
  C   C61       1.0  0.65092  0.74446  0.6861299999999998  1.0000
  C   C62       1.0  0.5958399999999999  0.7439  0.6468799999999998  1.0000
  C   C63       1.0  0.55824  0.8095299999999997  0.6349  1.0000
  C   C64       1.0  0.51096  0.8112  0.59587  1.0000
  C   C65       1.0  0.50127  0.7465  0.56929  1.0000
  C   C66       1.0  0.53774  0.68042  0.58157  1.0000
  C   C67       1.0  0.585  0.67897  0.6205799999999998  1.0000
  C   C68       1.0  0.52669  0.61294  0.5519  1.0000
  C   C69       1.0  0.47712  0.88166  0.5787499999999998  1.0000
  C   C70       1.0  0.5102399999999999  0.91621  0.54006  1.0000
  C   C71       1.0  0.84908  0.75554  0.6861299999999998  1.0000
  C   C72       1.0  0.9041599999999999  0.75611  0.6468799999999998  1.0000
  C   C73       1.0  0.9417600000000002  0.69047  0.6349  1.0000
  C   C74       1.0  0.98904  0.6888  0.59587  1.0000
  C   C75       1.0  0.9987299999999999  0.7535099999999999  0.56929  1.0000
  C   C76       1.0  0.9622699999999998  0.81958  0.58157  1.0000
  C   C77       1.0  0.91501  0.8210399999999999  0.6205799999999998  1.0000
  C   C78       1.0  0.9733100000000001  0.88706  0.5519  1.0000
  C   C79       1.0  0.02288  0.61834  0.5787499999999998  1.0000
  C   C80       1.0  0.98976  0.5838  0.54006  1.0000
  C   C81       1.0  0.25554  0.34908  0.6861299999999998  1.0000
  C   C82       1.0  0.25611  0.40416  0.6468799999999998  1.0000
  C   C83       1.0  0.19047  0.44176  0.6349  1.0000
  C   C84       1.0  0.1888  0.4890399999999999  0.59587  1.0000
  C   C85       1.0  0.25351  0.49872999999999995  0.56929  1.0000
  C   C86       1.0  0.31958  0.46227  0.58157  1.0000
  C   C87       1.0  0.32103  0.41501  0.6205799999999998  1.0000
  C   C88       1.0  0.38706  0.47331  0.5519  1.0000
  C   C89       1.0  0.11834  0.52288  0.5787499999999998  1.0000
  C   C90       1.0  0.0838  0.48976000000000003  0.54006  1.0000
  C   C91       1.0  0.24445999999999998  0.15092  0.6861299999999998  1.0000
  C   C92       1.0  0.24389  0.09584  0.6468799999999998  1.0000
  C   C93       1.0  0.30953  0.05823999999999999  0.6349  1.0000
  C   C94       1.0  0.3112  0.01096  0.59587  1.0000
  C   C95       1.0  0.24649999999999997  0.00127  0.56929  1.0000
  C   C96       1.0  0.18042  0.03773  0.58157  1.0000
  C   C97       1.0  0.17897  0.085  0.6205799999999998  1.0000
  C   C98       1.0  0.11294  0.02669  0.5519  1.0000
  C   C99       1.0  0.38166  0.97712  0.5787499999999998  1.0000
  C   C100      1.0  0.41620999999999997  0.010239999999999999  0.54006  1.0000
  C   C101      1.0  0.15092  0.25554  0.18612999999999993  1.0000
  C   C102      1.0  0.09584  0.25611  0.14688  1.0000
  C   C103      1.0  0.05823999999999999  0.19047  0.13489999999999994  1.0000
  C   C104      1.0  0.01096  0.1888  0.09587  1.0000
  C   C105      1.0  0.00127  0.25351  0.06928  1.0000
  C   C106      1.0  0.03773  0.31958  0.08156999999999998  1.0000
  C   C107      1.0  0.085  0.32103  0.12058  1.0000
  C   C108      1.0  0.02669  0.38706  0.05189999999999999  1.0000
  C   C109      1.0  0.97712  0.11834  0.07875  1.0000
  C   C110      1.0  0.010239999999999999  0.0838  0.04006  1.0000
  C   C111      1.0  0.34908  0.24445999999999998  0.18612999999999993  1.0000
  C   C112      1.0  0.40416  0.24389  0.14688  1.0000
  C   C113      1.0  0.44176  0.30953  0.13489999999999994  1.0000
  C   C114      1.0  0.4890399999999999  0.3112  0.09587  1.0000
  C   C115      1.0  0.49872999999999995  0.24649999999999997  0.06928  1.0000
  C   C116      1.0  0.46227  0.18042  0.08156999999999998  1.0000
  C   C117      1.0  0.41501  0.17897  0.12058  1.0000
  C   C118      1.0  0.47331  0.11294  0.05189999999999999  1.0000
  C   C119      1.0  0.52288  0.38166  0.07875  1.0000
  C   C120      1.0  0.48976000000000003  0.41620999999999997  0.04006  1.0000
  C   C121      1.0  0.24445999999999998  0.34908  0.8138699999999998  1.0000
  C   C122      1.0  0.24389  0.40416  0.85312  1.0000
  C   C123      1.0  0.30953  0.44176  0.8651099999999998  1.0000
  C   C124      1.0  0.3112  0.4890399999999999  0.9041299999999998  1.0000
  C   C125      1.0  0.24649999999999997  0.49872999999999995  0.9307199999999998  1.0000
  C   C126      1.0  0.18042  0.46227  0.9184299999999997  1.0000
  C   C127      1.0  0.17897  0.41501  0.87943  1.0000
  C   C128      1.0  0.11294  0.47331  0.9481099999999998  1.0000
  C   C129      1.0  0.38166  0.52288  0.9212599999999997  1.0000
  C   C130      1.0  0.41620999999999997  0.48976000000000003  0.95995  1.0000
  C   C131      1.0  0.25554  0.15092  0.8138699999999998  1.0000
  C   C132      1.0  0.25611  0.09584  0.85312  1.0000
  C   C133      1.0  0.19047  0.05823999999999999  0.8651099999999998  1.0000
  C   C134      1.0  0.1888  0.01096  0.9041299999999998  1.0000
  C   C135      1.0  0.25351  0.00127  0.9307199999999998  1.0000
  C   C136      1.0  0.31958  0.03773  0.9184299999999997  1.0000
  C   C137      1.0  0.32104  0.08499  0.87943  1.0000
  C   C138      1.0  0.38706  0.02669  0.9481099999999998  1.0000
  C   C139      1.0  0.11834  0.97712  0.9212599999999997  1.0000
  C   C140      1.0  0.0838  0.010239999999999999  0.95995  1.0000
  C   C141      1.0  0.34908  0.25554  0.31386999999999987  1.0000
  C   C142      1.0  0.40416  0.25611  0.3531199999999999  1.0000
  C   C143      1.0  0.44176  0.19047  0.36511  1.0000
  C   C144      1.0  0.4890399999999999  0.1888  0.4041299999999999  1.0000
  C   C145      1.0  0.49872999999999995  0.25351  0.4307199999999999  1.0000
  C   C146      1.0  0.46227  0.31958  0.41843  1.0000
  C   C147      1.0  0.41501  0.32103  0.3794299999999999  1.0000
  C   C148      1.0  0.47331  0.38706  0.4481  1.0000
  C   C149      1.0  0.52288  0.11834  0.42126  1.0000
  C   C150      1.0  0.48976000000000003  0.0838  0.4599499999999999  1.0000
  C   C151      1.0  0.15092  0.24445999999999998  0.31386999999999987  1.0000
  C   C152      1.0  0.09584  0.24389  0.3531199999999999  1.0000
  C   C153      1.0  0.05823999999999999  0.30953  0.36511  1.0000
  C   C154      1.0  0.01096  0.3112  0.4041299999999999  1.0000
  C   C155      1.0  0.00127  0.24649999999999997  0.4307199999999999  1.0000
  C   C156      1.0  0.03773  0.18042  0.41843  1.0000
  C   C157      1.0  0.085  0.17897  0.3794299999999999  1.0000
  C   C158      1.0  0.02669  0.11294  0.4481  1.0000
  C   C159      1.0  0.97712  0.38166  0.42126  1.0000
  C   C160      1.0  0.010239999999999999  0.41620999999999997  0.4599499999999999  1.0000
  C   C161      1.0  0.98156  0.48155999999999993  0.47987  1.0000
  C   C162      1.0  0.9128800000000001  0.41287  0.4012599999999999  1.0000
  C   C163      1.0  0.82579  0.32578999999999997  0.3718399999999999  1.0000
  C   C164      1.0  0.51844  0.01844  0.47987  1.0000
  C   C165      1.0  0.58713  0.08713  0.4012599999999999  1.0000
  C   C166      1.0  0.67421  0.17421  0.3718399999999999  1.0000
  C   C167      1.0  0.01844  0.98156  0.9798699999999998  1.0000
  C   C168      1.0  0.08713  0.9128699999999998  0.90126  1.0000
  C   C169      1.0  0.17421  0.82579  0.8718499999999998  1.0000
  C   C170      1.0  0.48155999999999993  0.51844  0.9798699999999998  1.0000
  C   C171      1.0  0.41287  0.58713  0.90126  1.0000
  C   C172      1.0  0.32578999999999997  0.67421  0.8718499999999998  1.0000
  C   C173      1.0  0.51844  0.48155999999999993  0.02013  1.0000
  C   C174      1.0  0.58713  0.41287  0.09874  1.0000
  C   C175      1.0  0.67421  0.32578999999999997  0.12815999999999994  1.0000
  C   C176      1.0  0.98156  0.01844  0.02013  1.0000
  C   C177      1.0  0.9128699999999998  0.08713  0.09874  1.0000
  C   C178      1.0  0.82579  0.17421  0.12815999999999994  1.0000
  C   C179      1.0  0.48155999999999993  0.98156  0.5201399999999999  1.0000
  C   C180      1.0  0.41287  0.9128699999999998  0.5987399999999998  1.0000
  C   C181      1.0  0.32578999999999997  0.82579  0.62816  1.0000
  C   C182      1.0  0.01844  0.51844  0.5201399999999999  1.0000
  C   C183      1.0  0.08713  0.58713  0.5987399999999998  1.0000
  C   C184      1.0  0.17421  0.67421  0.62816  1.0000
  O   O1        1.0  0.6818299999999999  0.67958  0.3023699999999999  1.0000
  O   O2        1.0  0.80745  0.6663899999999999  0.29538  1.0000
  O   O3        1.0  0.55207  0.55569  0.4337899999999999  1.0000
  O   O4        1.0  0.6216799999999999  0.48858  0.48581999999999986  1.0000
  O   O5        1.0  0.81818  0.82042  0.3023699999999999  1.0000
  O   O6        1.0  0.69255  0.83361  0.29538  1.0000
  O   O7        1.0  0.94793  0.94432  0.4337899999999999  1.0000
  O   O8        1.0  0.87832  0.011419999999999996  0.48581999999999986  1.0000
  O   O9        1.0  0.82042  0.6818299999999999  0.8023699999999998  1.0000
  O   O10       1.0  0.83361  0.80745  0.7953799999999999  1.0000
  O   O11       1.0  0.94432  0.55207  0.9337899999999999  1.0000
  O   O12       1.0  0.011419999999999996  0.6216799999999999  0.98582  1.0000
  O   O13       1.0  0.67958  0.81818  0.8023699999999998  1.0000
  O   O14       1.0  0.6663899999999999  0.69255  0.7953799999999999  1.0000
  O   O15       1.0  0.55569  0.94793  0.9337899999999999  1.0000
  O   O16       1.0  0.48858  0.87832  0.98582  1.0000
  O   O17       1.0  0.81818  0.67958  0.19762999999999994  1.0000
  O   O18       1.0  0.69255  0.6663899999999999  0.20461999999999994  1.0000
  O   O19       1.0  0.94793  0.55569  0.06621  1.0000
  O   O20       1.0  0.87832  0.48858  0.014189999999999996  1.0000
  O   O21       1.0  0.6818299999999999  0.82042  0.19762999999999994  1.0000
  O   O22       1.0  0.80745  0.83361  0.20461999999999994  1.0000
  O   O23       1.0  0.55207  0.94432  0.06621  1.0000
  O   O24       1.0  0.6216799999999999  0.011419999999999996  0.014189999999999996  1.0000
  O   O25       1.0  0.67958  0.6818299999999999  0.69763  1.0000
  O   O26       1.0  0.6663899999999999  0.80745  0.70462  1.0000
  O   O27       1.0  0.55569  0.55207  0.56622  1.0000
  O   O28       1.0  0.48858  0.6216799999999999  0.51419  1.0000
  O   O29       1.0  0.82042  0.81818  0.69763  1.0000
  O   O30       1.0  0.83361  0.69255  0.70462  1.0000
  O   O31       1.0  0.94432  0.94793  0.56622  1.0000
  O   O32       1.0  0.011419999999999996  0.87832  0.51419  1.0000
  O   O33       1.0  0.31817999999999996  0.32042  0.69763  1.0000
  O   O34       1.0  0.19255  0.33361  0.70463  1.0000
  O   O35       1.0  0.44792999999999994  0.44431999999999994  0.56622  1.0000
  O   O36       1.0  0.37832  0.51142  0.51419  1.0000
  O   O37       1.0  0.18182999999999996  0.17958  0.69763  1.0000
  O   O38       1.0  0.30745  0.16639  0.70462  1.0000
  O   O39       1.0  0.05207  0.05569  0.56622  1.0000
  O   O40       1.0  0.12168  0.98858  0.51419  1.0000
  O   O41       1.0  0.17958  0.31817999999999996  0.19762999999999994  1.0000
  O   O42       1.0  0.16639  0.19255  0.20461999999999994  1.0000
  O   O43       1.0  0.05569  0.44792999999999994  0.06621  1.0000
  O   O44       1.0  0.98858  0.37832  0.014189999999999996  1.0000
  O   O45       1.0  0.32042  0.18182999999999996  0.19762999999999994  1.0000
  O   O46       1.0  0.33361  0.30745  0.20461999999999994  1.0000
  O   O47       1.0  0.44431999999999994  0.05207  0.06621  1.0000
  O   O48       1.0  0.51142  0.12168  0.014189999999999996  1.0000
  O   O49       1.0  0.18182999999999996  0.32042  0.8023699999999998  1.0000
  O   O50       1.0  0.30745  0.33361  0.7953799999999999  1.0000
  O   O51       1.0  0.05207  0.44431999999999994  0.9337899999999999  1.0000
  O   O52       1.0  0.12168  0.51142  0.98582  1.0000
  O   O53       1.0  0.31817999999999996  0.17958  0.8023699999999998  1.0000
  O   O54       1.0  0.19255  0.16639  0.7953799999999999  1.0000
  O   O55       1.0  0.44792999999999994  0.05569  0.9337899999999999  1.0000
  O   O56       1.0  0.37832  0.98858  0.98582  1.0000
  O   O57       1.0  0.32042  0.31817999999999996  0.3023699999999999  1.0000
  O   O58       1.0  0.33361  0.19255  0.29538  1.0000
  O   O59       1.0  0.44431999999999994  0.44792999999999994  0.4337899999999999  1.0000
  O   O60       1.0  0.51142  0.37832  0.48581999999999986  1.0000
  O   O61       1.0  0.17958  0.18182999999999996  0.3023699999999999  1.0000
  O   O62       1.0  0.16639  0.30745  0.29538  1.0000
  O   O63       1.0  0.05569  0.05207  0.4337899999999999  1.0000
  O   O64       1.0  0.98858  0.12168  0.48581999999999986  1.0000
  O   O65       1.0  0.88136  0.38136  0.36170999999999986  1.0000
  O   O66       1.0  0.61864  0.11864000000000001  0.36170999999999986  1.0000
  O   O67       1.0  0.11864000000000001  0.88136  0.8617099999999998  1.0000
  O   O68       1.0  0.38136  0.61864  0.8617099999999998  1.0000
  O   O69       1.0  0.61864  0.38136  0.13829  1.0000
  O   O70       1.0  0.88136  0.11864000000000001  0.13829  1.0000
  O   O71       1.0  0.38136  0.88136  0.6382899999999998  1.0000
  O   O72       1.0  0.11864000000000001  0.61864  0.6382899999999998  1.0000
