data_image0
_chemical_formula_structural       Mn16H56C144N24O64
_chemical_formula_sum              "Mn16 H56 C144 N24 O64"
_cell_length_a       19.56194
_cell_length_b       19.56194
_cell_length_c       26.06194
_cell_angle_alpha    90.0
_cell_angle_beta     90.0
_cell_angle_gamma    90.0

_space_group_name_H-M_alt    "P 1"
_space_group_IT_number       1

loop_
  _space_group_symop_operation_xyz
  'x, y, z'

loop_
  _atom_site_type_symbol
  _atom_site_label
  _atom_site_symmetry_multiplicity
  _atom_site_fract_x
  _atom_site_fract_y
  _atom_site_fract_z
  _atom_site_occupancy
  Mn  Mn1       1.0  0.26887  0.79018  0.9750500000000001  1.0000
  Mn  Mn2       1.0  0.37164000000000014  0.7902300000000001  0.06418  1.0000
  Mn  Mn3       1.0  0.7311300000000001  0.20982  0.9750500000000001  1.0000
  Mn  Mn4       1.0  0.62836  0.20977  0.06418  1.0000
  Mn  Mn5       1.0  0.79018  0.7311300000000001  0.02495  1.0000
  Mn  Mn6       1.0  0.7902300000000001  0.62836  0.9358200000000002  1.0000
  Mn  Mn7       1.0  0.20982  0.26887  0.02495  1.0000
  Mn  Mn8       1.0  0.20977  0.37164000000000014  0.9358200000000002  1.0000
  Mn  Mn9       1.0  0.23115000000000005  0.28994000000000003  0.52452  1.0000
  Mn  Mn10      1.0  0.12766  0.29099  0.4363  1.0000
  Mn  Mn11      1.0  0.76885  0.71006  0.52452  1.0000
  Mn  Mn12      1.0  0.87234  0.70901  0.4363  1.0000
  Mn  Mn13      1.0  0.71006  0.23115000000000005  0.47548000000000007  1.0000
  Mn  Mn14      1.0  0.70901  0.12766  0.5637  1.0000
  Mn  Mn15      1.0  0.28994000000000003  0.76885  0.47548000000000007  1.0000
  Mn  Mn16      1.0  0.29099  0.87234  0.5637  1.0000
  H   H1        1.0  0.24672000000000002  0.03399  0.00928  1.0000
  H   H2        1.0  0.21213  0.11978  0.15853  1.0000
  H   H3        1.0  0.24814000000000003  0.90314  0.14285  1.0000
  H   H4        1.0  0.24263000000000004  0.09464  0.25777  1.0000
  H   H5        1.0  0.18318  0.11957  0.33989  1.0000
  H   H6        1.0  0.26492  0.9189700000000002  0.3715900000000001  1.0000
  H   H7        1.0  0.24785000000000001  0.06858000000000002  0.49293000000000003  1.0000
  H   H8        1.0  0.75328  0.9660100000000001  0.00928  1.0000
  H   H9        1.0  0.7878700000000002  0.88022  0.15853  1.0000
  H   H10       1.0  0.75186  0.09686  0.14285  1.0000
  H   H11       1.0  0.7573700000000002  0.90536  0.25777  1.0000
  H   H12       1.0  0.8168200000000001  0.8804300000000002  0.33989  1.0000
  H   H13       1.0  0.73508  0.08103000000000002  0.3715900000000001  1.0000
  H   H14       1.0  0.75215  0.93142  0.49293000000000003  1.0000
  H   H15       1.0  0.03399  0.75328  0.99072  1.0000
  H   H16       1.0  0.11978  0.7878700000000002  0.8414700000000003  1.0000
  H   H17       1.0  0.90314  0.75186  0.85715  1.0000
  H   H18       1.0  0.09464  0.7573700000000002  0.74223  1.0000
  H   H19       1.0  0.11957  0.8168200000000001  0.66011  1.0000
  H   H20       1.0  0.9189700000000002  0.73508  0.62841  1.0000
  H   H21       1.0  0.06858000000000002  0.75215  0.50707  1.0000
  H   H22       1.0  0.9660100000000001  0.24672000000000002  0.99072  1.0000
  H   H23       1.0  0.88022  0.21213  0.8414700000000003  1.0000
  H   H24       1.0  0.09686  0.24814000000000003  0.85715  1.0000
  H   H25       1.0  0.90536  0.24263000000000004  0.74223  1.0000
  H   H26       1.0  0.8804300000000002  0.18318  0.66011  1.0000
  H   H27       1.0  0.08103000000000002  0.26492  0.62841  1.0000
  H   H28       1.0  0.93142  0.24785000000000001  0.50707  1.0000
  H   H29       1.0  0.2530200000000001  0.53391  0.4908  1.0000
  H   H30       1.0  0.28785000000000005  0.6202000000000001  0.34174  1.0000
  H   H31       1.0  0.2518800000000001  0.40357  0.35697  1.0000
  H   H32       1.0  0.25755000000000006  0.5954300000000001  0.24269  1.0000
  H   H33       1.0  0.31711000000000006  0.6205900000000001  0.1596  1.0000
  H   H34       1.0  0.23557000000000003  0.41949  0.12978  1.0000
  H   H35       1.0  0.25181  0.5673100000000001  0.007140000000000001  1.0000
  H   H36       1.0  0.7469800000000002  0.4661  0.4908  1.0000
  H   H37       1.0  0.71215  0.3798  0.34174  1.0000
  H   H38       1.0  0.7481200000000001  0.59643  0.35697  1.0000
  H   H39       1.0  0.74246  0.40457  0.24269  1.0000
  H   H40       1.0  0.68289  0.37941000000000014  0.1596  1.0000
  H   H41       1.0  0.7644300000000003  0.58051  0.12978  1.0000
  H   H42       1.0  0.74819  0.43269  0.007140000000000001  1.0000
  H   H43       1.0  0.4661  0.2530200000000001  0.5092  1.0000
  H   H44       1.0  0.3798  0.28785000000000005  0.65826  1.0000
  H   H45       1.0  0.59643  0.2518800000000001  0.64303  1.0000
  H   H46       1.0  0.40457  0.25755000000000006  0.75731  1.0000
  H   H47       1.0  0.37941000000000014  0.31711000000000006  0.8404000000000003  1.0000
  H   H48       1.0  0.58051  0.23557000000000003  0.8702200000000002  1.0000
  H   H49       1.0  0.43269  0.25181  0.99286  1.0000
  H   H50       1.0  0.53391  0.7469800000000002  0.5092  1.0000
  H   H51       1.0  0.6202000000000001  0.71215  0.65826  1.0000
  H   H52       1.0  0.40357  0.7481200000000001  0.64303  1.0000
  H   H53       1.0  0.5954300000000001  0.74246  0.75731  1.0000
  H   H54       1.0  0.6205900000000001  0.68289  0.8404000000000003  1.0000
  H   H55       1.0  0.41949  0.7644300000000003  0.8702200000000002  1.0000
  H   H56       1.0  0.5673100000000001  0.74819  0.99286  1.0000
  C   C1        1.0  0.2677000000000001  0.9012900000000001  0.04203000000000001  1.0000
  C   C2        1.0  0.24967000000000006  0.96212  0.07292  1.0000
  C   C3        1.0  0.24212  0.02682  0.05053000000000001  1.0000
  C   C4        1.0  0.22998000000000002  0.08323  0.08236000000000003  1.0000
  C   C5        1.0  0.22491  0.15298000000000003  0.0597  1.0000
  C   C6        1.0  0.22280000000000003  0.07459  0.13553  1.0000
  C   C7        1.0  0.22842000000000004  0.009560000000000003  0.15793000000000004  1.0000
  C   C8        1.0  0.24272000000000002  0.9536700000000001  0.12603  1.0000
  C   C9        1.0  0.22135  0.9976000000000002  0.21323000000000006  1.0000
  C   C10       1.0  0.22905  0.04119  0.25472  1.0000
  C   C11       1.0  0.19215000000000002  0.17125  0.43428  1.0000
  C   C12       1.0  0.20598000000000002  0.08302000000000002  0.36621  1.0000
  C   C13       1.0  0.21473000000000003  0.10163000000000003  0.41785  1.0000
  C   C14       1.0  0.22568  0.01815  0.34963  1.0000
  C   C15       1.0  0.25115  0.97004  0.3843900000000001  1.0000
  C   C16       1.0  0.2586000000000001  0.9885500000000002  0.43607  1.0000
  C   C17       1.0  0.24158  0.05460000000000001  0.45282  1.0000
  C   C18       1.0  0.28247000000000005  0.9365100000000001  0.47352  1.0000
  C   C19       1.0  0.7323000000000002  0.09871000000000002  0.04203000000000001  1.0000
  C   C20       1.0  0.7503300000000003  0.03788  0.07292  1.0000
  C   C21       1.0  0.75788  0.97318  0.05053000000000001  1.0000
  C   C22       1.0  0.77002  0.9167700000000001  0.08236000000000003  1.0000
  C   C23       1.0  0.7750900000000002  0.84702  0.0597  1.0000
  C   C24       1.0  0.7772000000000002  0.92541  0.13553  1.0000
  C   C25       1.0  0.7715800000000003  0.9904500000000002  0.15793000000000004  1.0000
  C   C26       1.0  0.7572800000000002  0.04633000000000002  0.12603  1.0000
  C   C27       1.0  0.77865  0.0024000000000000007  0.21323000000000006  1.0000
  C   C28       1.0  0.77095  0.95881  0.25472  1.0000
  C   C29       1.0  0.8078500000000001  0.82875  0.43428  1.0000
  C   C30       1.0  0.79402  0.91698  0.36621  1.0000
  C   C31       1.0  0.78527  0.89837  0.41785  1.0000
  C   C32       1.0  0.7743200000000001  0.98185  0.34963  1.0000
  C   C33       1.0  0.74885  0.029960000000000004  0.3843900000000001  1.0000
  C   C34       1.0  0.7414  0.01145  0.43607  1.0000
  C   C35       1.0  0.7584200000000002  0.9454  0.45282  1.0000
  C   C36       1.0  0.7175300000000002  0.06349  0.47352  1.0000
  C   C37       1.0  0.9012900000000001  0.7323000000000002  0.95797  1.0000
  C   C38       1.0  0.96212  0.7503300000000003  0.92708  1.0000
  C   C39       1.0  0.02682  0.75788  0.94947  1.0000
  C   C40       1.0  0.08323  0.77002  0.9176400000000001  1.0000
  C   C41       1.0  0.15298000000000003  0.7750900000000002  0.9403000000000002  1.0000
  C   C42       1.0  0.07459  0.7772000000000002  0.86447  1.0000
  C   C43       1.0  0.00955  0.7715800000000003  0.84207  1.0000
  C   C44       1.0  0.9536700000000001  0.7572800000000002  0.87397  1.0000
  C   C45       1.0  0.9976000000000002  0.77865  0.78677  1.0000
  C   C46       1.0  0.04119  0.77095  0.74528  1.0000
  C   C47       1.0  0.17125  0.8078500000000001  0.5657200000000001  1.0000
  C   C48       1.0  0.08302000000000002  0.79402  0.63379  1.0000
  C   C49       1.0  0.10163000000000003  0.78527  0.58215  1.0000
  C   C50       1.0  0.01815  0.7743200000000001  0.65037  1.0000
  C   C51       1.0  0.97004  0.74885  0.61561  1.0000
  C   C52       1.0  0.9885500000000002  0.7414  0.56393  1.0000
  C   C53       1.0  0.05460000000000001  0.7584200000000002  0.54718  1.0000
  C   C54       1.0  0.9365100000000001  0.7175300000000002  0.52648  1.0000
  C   C55       1.0  0.09871000000000002  0.2677000000000001  0.95797  1.0000
  C   C56       1.0  0.03788  0.24967000000000006  0.92708  1.0000
  C   C57       1.0  0.97318  0.24212  0.94947  1.0000
  C   C58       1.0  0.9167700000000001  0.22998000000000002  0.9176400000000001  1.0000
  C   C59       1.0  0.84702  0.22491  0.9403000000000002  1.0000
  C   C60       1.0  0.92541  0.22280000000000003  0.86447  1.0000
  C   C61       1.0  0.99044  0.22842000000000004  0.84207  1.0000
  C   C62       1.0  0.04633000000000002  0.24272000000000002  0.87397  1.0000
  C   C63       1.0  0.0024000000000000007  0.22135  0.78677  1.0000
  C   C64       1.0  0.95881  0.22905  0.74528  1.0000
  C   C65       1.0  0.82875  0.19215000000000002  0.5657200000000001  1.0000
  C   C66       1.0  0.91698  0.20598000000000002  0.63379  1.0000
  C   C67       1.0  0.89837  0.21473000000000003  0.58215  1.0000
  C   C68       1.0  0.98185  0.22568  0.65036  1.0000
  C   C69       1.0  0.029960000000000004  0.25115  0.61561  1.0000
  C   C70       1.0  0.01145  0.2586000000000001  0.56393  1.0000
  C   C71       1.0  0.9454  0.24158  0.54718  1.0000
  C   C72       1.0  0.06349  0.28247000000000005  0.52648  1.0000
  C   C73       1.0  0.23146000000000005  0.40074000000000004  0.45717000000000013  1.0000
  C   C74       1.0  0.24991  0.4621  0.42694000000000004  1.0000
  C   C75       1.0  0.25765  0.52665  0.4495400000000001  1.0000
  C   C76       1.0  0.27006  0.5831400000000001  0.41784000000000004  1.0000
  C   C77       1.0  0.27502  0.65255  0.44087  1.0000
  C   C78       1.0  0.27729  0.5749400000000001  0.36466000000000004  1.0000
  C   C79       1.0  0.27176  0.5100300000000001  0.34215  1.0000
  C   C80       1.0  0.25729  0.45405000000000006  0.37384000000000006  1.0000
  C   C81       1.0  0.27896  0.49827  0.28693  1.0000
  C   C82       1.0  0.27139  0.54202  0.24557000000000007  1.0000
  C   C83       1.0  0.3081600000000001  0.67031  0.06523  1.0000
  C   C84       1.0  0.29422  0.5835300000000002  0.1337  1.0000
  C   C85       1.0  0.28518000000000004  0.6011  0.08191  1.0000
  C   C86       1.0  0.27470000000000006  0.51886  0.1507  1.0000
  C   C87       1.0  0.24911000000000003  0.47033  0.11641  1.0000
  C   C88       1.0  0.24133000000000002  0.48778  0.06461  1.0000
  C   C89       1.0  0.25816000000000006  0.55366  0.0473  1.0000
  C   C90       1.0  0.21717  0.43473  0.027990000000000008  1.0000
  C   C91       1.0  0.76855  0.5992600000000002  0.45717000000000013  1.0000
  C   C92       1.0  0.75009  0.5379  0.42694000000000004  1.0000
  C   C93       1.0  0.74235  0.47335  0.4495400000000001  1.0000
  C   C94       1.0  0.7299400000000003  0.41686  0.41784000000000004  1.0000
  C   C95       1.0  0.72498  0.34746000000000005  0.44087  1.0000
  C   C96       1.0  0.72271  0.42506  0.36466000000000004  1.0000
  C   C97       1.0  0.72824  0.48997  0.34215  1.0000
  C   C98       1.0  0.74271  0.54595  0.37384000000000006  1.0000
  C   C99       1.0  0.7210400000000001  0.50173  0.28693  1.0000
  C   C100      1.0  0.72861  0.45798  0.24557000000000007  1.0000
  C   C101      1.0  0.69184  0.32969000000000004  0.06523  1.0000
  C   C102      1.0  0.7057800000000001  0.41647  0.1337  1.0000
  C   C103      1.0  0.71482  0.3989  0.08191  1.0000
  C   C104      1.0  0.7253  0.4811400000000001  0.1507  1.0000
  C   C105      1.0  0.7508900000000002  0.5296700000000001  0.11641  1.0000
  C   C106      1.0  0.7586700000000001  0.51222  0.06461  1.0000
  C   C107      1.0  0.7418400000000002  0.44634000000000007  0.0473  1.0000
  C   C108      1.0  0.7828300000000002  0.56527  0.027990000000000008  1.0000
  C   C109      1.0  0.5992600000000002  0.23146000000000005  0.54283  1.0000
  C   C110      1.0  0.5379  0.24991  0.57306  1.0000
  C   C111      1.0  0.47335  0.25765  0.55046  1.0000
  C   C112      1.0  0.41686  0.27006  0.58216  1.0000
  C   C113      1.0  0.34745  0.27502  0.55913  1.0000
  C   C114      1.0  0.42506  0.27729  0.63534  1.0000
  C   C115      1.0  0.48997  0.27176  0.65785  1.0000
  C   C116      1.0  0.54595  0.25729  0.6261600000000002  1.0000
  C   C117      1.0  0.50173  0.27896  0.7130700000000002  1.0000
  C   C118      1.0  0.45798  0.27139  0.7544300000000003  1.0000
  C   C119      1.0  0.32969000000000004  0.3081600000000001  0.9347700000000001  1.0000
  C   C120      1.0  0.41647  0.29422  0.8663  1.0000
  C   C121      1.0  0.3989  0.28518000000000004  0.9180900000000001  1.0000
  C   C122      1.0  0.4811400000000001  0.27470000000000006  0.8493  1.0000
  C   C123      1.0  0.5296700000000001  0.24911000000000003  0.88359  1.0000
  C   C124      1.0  0.51222  0.24133000000000002  0.93539  1.0000
  C   C125      1.0  0.44634000000000007  0.25816000000000006  0.9527  1.0000
  C   C126      1.0  0.56527  0.21717  0.97201  1.0000
  C   C127      1.0  0.40074000000000004  0.76855  0.54283  1.0000
  C   C128      1.0  0.4621  0.75009  0.57306  1.0000
  C   C129      1.0  0.52665  0.74235  0.55046  1.0000
  C   C130      1.0  0.5831400000000001  0.7299400000000003  0.58216  1.0000
  C   C131      1.0  0.65255  0.72498  0.55913  1.0000
  C   C132      1.0  0.5749400000000001  0.72271  0.63534  1.0000
  C   C133      1.0  0.5100300000000001  0.72824  0.65785  1.0000
  C   C134      1.0  0.45405000000000006  0.74271  0.6261600000000002  1.0000
  C   C135      1.0  0.49827  0.7210400000000001  0.7130700000000002  1.0000
  C   C136      1.0  0.54202  0.72861  0.7544300000000003  1.0000
  C   C137      1.0  0.67031  0.69184  0.9347700000000001  1.0000
  C   C138      1.0  0.5835300000000002  0.7057800000000001  0.8663  1.0000
  C   C139      1.0  0.6011  0.71482  0.9180900000000001  1.0000
  C   C140      1.0  0.51886  0.7253  0.8493  1.0000
  C   C141      1.0  0.47033  0.7508900000000002  0.88359  1.0000
  C   C142      1.0  0.48778  0.7586700000000001  0.93539  1.0000
  C   C143      1.0  0.55366  0.7418400000000002  0.9527  1.0000
  C   C144      1.0  0.43473  0.7828300000000002  0.97201  1.0000
  N   N1        1.0  0.20696000000000003  0.93434  0.28229  1.0000
  N   N2        1.0  0.20792000000000005  0.9330800000000001  0.23213  1.0000
  N   N3        1.0  0.21998000000000006  0.00065  0.29688  1.0000
  N   N4        1.0  0.79304  0.06566000000000001  0.28229  1.0000
  N   N5        1.0  0.79209  0.06692  0.23213  1.0000
  N   N6        1.0  0.78002  0.9993500000000001  0.29688  1.0000
  N   N7        1.0  0.93434  0.79304  0.7177100000000002  1.0000
  N   N8        1.0  0.9330800000000001  0.79209  0.7678700000000002  1.0000
  N   N9        1.0  0.00065  0.78002  0.70312  1.0000
  N   N10       1.0  0.06566000000000001  0.20696000000000003  0.7177100000000002  1.0000
  N   N11       1.0  0.06692  0.20792000000000005  0.7678700000000002  1.0000
  N   N12       1.0  0.9993500000000001  0.21998000000000006  0.70312  1.0000
  N   N13       1.0  0.2936700000000001  0.43528  0.21787  1.0000
  N   N14       1.0  0.29251  0.43384  0.268  1.0000
  N   N15       1.0  0.2806600000000001  0.50163  0.20340000000000003  1.0000
  N   N16       1.0  0.70633  0.56472  0.21787  1.0000
  N   N17       1.0  0.70749  0.56616  0.268  1.0000
  N   N18       1.0  0.7193400000000002  0.4983700000000001  0.20340000000000003  1.0000
  N   N19       1.0  0.56472  0.2936700000000001  0.78213  1.0000
  N   N20       1.0  0.56616  0.29251  0.732  1.0000
  N   N21       1.0  0.4983700000000001  0.2806600000000001  0.7966000000000001  1.0000
  N   N22       1.0  0.43528  0.70633  0.78213  1.0000
  N   N23       1.0  0.43384  0.70749  0.732  1.0000
  N   N24       1.0  0.50163  0.7193400000000002  0.7966000000000001  1.0000
  O   O1        1.0  0.15582  0.2048  0.40118  1.0000
  O   O2        1.0  0.29369  0.8754000000000001  0.4588000000000001  1.0000
  O   O3        1.0  0.20668000000000003  0.19480000000000006  0.47842000000000007  1.0000
  O   O4        1.0  0.2594600000000001  0.8985400000000001  0.9941400000000002  1.0000
  O   O5        1.0  0.28903  0.9556000000000002  0.52084  1.0000
  O   O6        1.0  0.21913000000000002  0.20516000000000006  0.08974  1.0000
  O   O7        1.0  0.29174  0.8489700000000001  0.06789  1.0000
  O   O8        1.0  0.22626000000000002  0.16124  0.01102  1.0000
  O   O9        1.0  0.8441800000000003  0.7952000000000001  0.40118  1.0000
  O   O10       1.0  0.70632  0.1246  0.4588000000000001  1.0000
  O   O11       1.0  0.7933200000000002  0.8052000000000001  0.47842000000000007  1.0000
  O   O12       1.0  0.74054  0.10146000000000002  0.9941400000000002  1.0000
  O   O13       1.0  0.71097  0.044400000000000016  0.52084  1.0000
  O   O14       1.0  0.78087  0.7948400000000002  0.08974  1.0000
  O   O15       1.0  0.7082700000000001  0.15103000000000005  0.06789  1.0000
  O   O16       1.0  0.7737400000000001  0.8387600000000001  0.01102  1.0000
  O   O17       1.0  0.2048  0.8441800000000003  0.59882  1.0000
  O   O18       1.0  0.8754000000000001  0.70632  0.5412  1.0000
  O   O19       1.0  0.19480000000000006  0.7933200000000002  0.52158  1.0000
  O   O20       1.0  0.8985400000000001  0.74054  0.00586  1.0000
  O   O21       1.0  0.9556000000000002  0.71097  0.47916  1.0000
  O   O22       1.0  0.20516000000000006  0.78087  0.91026  1.0000
  O   O23       1.0  0.8489700000000001  0.7082700000000001  0.9321100000000002  1.0000
  O   O24       1.0  0.16124  0.7737400000000001  0.98898  1.0000
  O   O25       1.0  0.7952000000000001  0.15582  0.59882  1.0000
  O   O26       1.0  0.1246  0.29369  0.5412  1.0000
  O   O27       1.0  0.8051900000000001  0.20668000000000003  0.52158  1.0000
  O   O28       1.0  0.10146000000000002  0.2594600000000001  0.00586  1.0000
  O   O29       1.0  0.044400000000000016  0.28903  0.47916  1.0000
  O   O30       1.0  0.7948400000000002  0.21913000000000002  0.91026  1.0000
  O   O31       1.0  0.15103000000000005  0.29174  0.9321100000000002  1.0000
  O   O32       1.0  0.8387600000000001  0.22627  0.98898  1.0000
  O   O33       1.0  0.34403000000000006  0.70397  0.09862  1.0000
  O   O34       1.0  0.20624000000000003  0.37409  0.04382  1.0000
  O   O35       1.0  0.29378  0.69372  0.02108  1.0000
  O   O36       1.0  0.23888000000000004  0.3973  0.50513  1.0000
  O   O37       1.0  0.20972000000000002  0.4528200000000001  0.98055  1.0000
  O   O38       1.0  0.28206  0.7050200000000001  0.41122  1.0000
  O   O39       1.0  0.20798000000000003  0.34889000000000003  0.4305  1.0000
  O   O40       1.0  0.27232000000000006  0.6601400000000001  0.48949  1.0000
  O   O41       1.0  0.6559700000000002  0.29603  0.09862  1.0000
  O   O42       1.0  0.7937600000000001  0.62591  0.04382  1.0000
  O   O43       1.0  0.70622  0.30628  0.02108  1.0000
  O   O44       1.0  0.76112  0.6027  0.50513  1.0000
  O   O45       1.0  0.79028  0.54718  0.98055  1.0000
  O   O46       1.0  0.71794  0.29498  0.41122  1.0000
  O   O47       1.0  0.79202  0.65111  0.4305  1.0000
  O   O48       1.0  0.72768  0.33986  0.48949  1.0000
  O   O49       1.0  0.29603  0.34403000000000006  0.90138  1.0000
  O   O50       1.0  0.62591  0.20624000000000003  0.9561800000000003  1.0000
  O   O51       1.0  0.30628  0.29378  0.9789200000000001  1.0000
  O   O52       1.0  0.6027  0.23888000000000004  0.49487000000000003  1.0000
  O   O53       1.0  0.54718  0.20972000000000002  0.01945  1.0000
  O   O54       1.0  0.29498  0.28206  0.58878  1.0000
  O   O55       1.0  0.65111  0.20798000000000003  0.5695000000000001  1.0000
  O   O56       1.0  0.33986  0.27232000000000006  0.51051  1.0000
  O   O57       1.0  0.70397  0.6559700000000002  0.90138  1.0000
  O   O58       1.0  0.37409  0.7937600000000001  0.9561800000000003  1.0000
  O   O59       1.0  0.69372  0.70622  0.9789200000000001  1.0000
  O   O60       1.0  0.3973  0.76112  0.49487000000000003  1.0000
  O   O61       1.0  0.4528200000000001  0.79028  0.01945  1.0000
  O   O62       1.0  0.7050200000000001  0.71794  0.58878  1.0000
  O   O63       1.0  0.34889000000000003  0.79202  0.5695000000000001  1.0000
  O   O64       1.0  0.6601400000000001  0.72768  0.51051  1.0000
