data_image0
_chemical_formula_structural       Zn4H86C110N14O16
_chemical_formula_sum              "Zn4 H86 C110 N14 O16"
_cell_length_a       15.9251
_cell_length_b       16.08321
_cell_length_c       16.08321
_cell_angle_alpha    96.41402
_cell_angle_beta     97.33372999999999
_cell_angle_gamma    97.33372

_symmetry_space_group_name_H-M    'P 1'
_symmetry_Int_Tables_number       1

loop_
  _symmetry_equiv_pos_as_xyz
  'x,y,z'

loop_
  _atom_site_type_symbol
  _atom_site_label
  _atom_site_symmetry_multiplicity
  _atom_site_fract_x
  _atom_site_fract_y
  _atom_site_fract_z
  _atom_site_occupancy
  Zn  Zn1       1.0  0.7353  0.0605  0.04024  1.0000
  Zn  Zn2       1.0  0.8646400000000002  0.9639600000000003  0.9814  1.0000
  Zn  Zn3       1.0  0.2353  0.04024  0.0605  1.0000
  Zn  Zn4       1.0  0.36464  0.9814000000000003  0.96397  1.0000
  H   H1        1.0  0.5106  0.85528  0.02913  1.0000
  H   H2        1.0  0.42116  0.71376  0.02419  1.0000
  H   H3        1.0  0.6366  0.58925  0.97664  1.0000
  H   H4        1.0  0.7267600000000002  0.73119  0.98282  1.0000
  H   H5        1.0  0.38316  0.4592500000000001  0.0659  1.0000
  H   H6        1.0  0.3242000000000001  0.30855  0.07771  1.0000
  H   H7        1.0  0.46688000000000013  0.21927000000000005  0.88564  1.0000
  H   H8        1.0  0.52455  0.3704900000000001  0.87229  1.0000
  H   H9        1.0  0.62621  0.13235000000000002  0.8036800000000001  1.0000
  H   H10       1.0  0.56615  0.14417  0.65257  1.0000
  H   H11       1.0  0.72864  0.97092  0.56258  1.0000
  H   H12       1.0  0.78675  0.95826  0.71319  1.0000
  H   H13       1.0  0.4666  0.056360000000000014  0.43171  1.0000
  H   H14       1.0  0.37742000000000014  0.04777000000000003  0.28916  1.0000
  H   H15       1.0  0.59047  0.9849500000000002  0.16764  1.0000
  H   H16       1.0  0.67935  0.99314  0.31004  1.0000
  H   H17       1.0  0.80952  0.2053  0.15669  1.0000
  H   H18       1.0  0.76645  0.32299  0.25076  1.0000
  H   H19       1.0  0.5046  0.23314  0.14116  1.0000
  H   H20       1.0  0.55751  0.11945  0.05235  1.0000
  H   H21       1.0  0.5954099999999999  0.56462  0.29784  1.0000
  H   H22       1.0  0.55271  0.37533  0.46375  1.0000
  H   H23       1.0  0.63422  0.53199  0.16503  1.0000
  H   H24       1.0  0.58679  0.43046  0.11283  1.0000
  H   H25       1.0  0.69631  0.4479  0.15553  1.0000
  H   H26       1.0  0.56062  0.23212  0.42166  1.0000
  H   H27       1.0  0.64451  0.21973  0.36066  1.0000
  H   H28       1.0  0.5377400000000001  0.19677000000000006  0.31162  1.0000
  H   H29       1.0  0.5180700000000003  0.51456  0.4931  1.0000
  H   H30       1.0  0.49936  0.62793  0.38776  1.0000
  H   H31       1.0  0.61104  0.65142  0.41941  1.0000
  H   H32       1.0  0.58923  0.6039  0.6093  1.0000
  H   H33       1.0  0.48198000000000013  0.76807  0.44455  1.0000
  H   H34       1.0  0.58538  0.62397  0.75542  1.0000
  H   H35       1.0  0.50738  0.6823500000000003  0.79297  1.0000
  H   H36       1.0  0.6127600000000002  0.7323500000000002  0.79738  1.0000
  H   H37       1.0  0.43434  0.92105  0.61989  1.0000
  H   H38       1.0  0.38045  0.86741  0.52121  1.0000
  H   H39       1.0  0.48439000000000004  0.9239200000000002  0.52775  1.0000
  H   H40       1.0  0.59561  0.9096500000000002  0.77773  1.0000
  H   H41       1.0  0.54083  0.98647  0.89852  1.0000
  H   H42       1.0  0.29862  0.84867  0.83119  1.0000
  H   H43       1.0  0.3445900000000001  0.76426  0.70832  1.0000
  H   H44       1.0  0.01807000000000002  0.4931000000000001  0.51456  1.0000
  H   H45       1.0  0.99936  0.38776  0.62793  1.0000
  H   H46       1.0  0.11104000000000003  0.41940000000000005  0.6514300000000001  1.0000
  H   H47       1.0  0.08923000000000003  0.6093000000000002  0.6039  1.0000
  H   H48       1.0  0.98198  0.44455000000000006  0.76807  1.0000
  H   H49       1.0  0.08538  0.75542  0.62397  1.0000
  H   H50       1.0  0.0073800000000000055  0.7929700000000002  0.68235  1.0000
  H   H51       1.0  0.11277  0.79738  0.73236  1.0000
  H   H52       1.0  0.93434  0.6198800000000002  0.92105  1.0000
  H   H53       1.0  0.8804500000000004  0.5212100000000002  0.86741  1.0000
  H   H54       1.0  0.9843900000000002  0.52775  0.92392  1.0000
  H   H55       1.0  0.09561000000000003  0.77773  0.90965  1.0000
  H   H56       1.0  0.040829999999999984  0.89852  0.98647  1.0000
  H   H57       1.0  0.79862  0.8311800000000003  0.84868  1.0000
  H   H58       1.0  0.84459  0.70832  0.76426  1.0000
  H   H59       1.0  0.010599999999999997  0.029129999999999993  0.85528  1.0000
  H   H60       1.0  0.9211600000000001  0.024190000000000003  0.71376  1.0000
  H   H61       1.0  0.13661000000000004  0.9766400000000001  0.58925  1.0000
  H   H62       1.0  0.22677000000000005  0.9828100000000002  0.73119  1.0000
  H   H63       1.0  0.88316  0.0659  0.45925  1.0000
  H   H64       1.0  0.8242  0.07771  0.30855  1.0000
  H   H65       1.0  0.96688  0.8856400000000002  0.21927  1.0000
  H   H66       1.0  0.024549999999999985  0.87228  0.37049  1.0000
  H   H67       1.0  0.12621000000000004  0.80368  0.13235  1.0000
  H   H68       1.0  0.06615999999999997  0.65257  0.14417  1.0000
  H   H69       1.0  0.22864000000000007  0.5625800000000002  0.97092  1.0000
  H   H70       1.0  0.28675  0.71319  0.95826  1.0000
  H   H71       1.0  0.9666000000000001  0.43171  0.05636  1.0000
  H   H72       1.0  0.87742  0.28916  0.04777  1.0000
  H   H73       1.0  0.09046999999999998  0.16764  0.98495  1.0000
  H   H74       1.0  0.17935000000000004  0.31004  0.99314  1.0000
  H   H75       1.0  0.30952  0.15669  0.2053  1.0000
  H   H76       1.0  0.26645  0.25076  0.32299  1.0000
  H   H77       1.0  0.004600000000000003  0.14116  0.23314  1.0000
  H   H78       1.0  0.05751000000000001  0.05235  0.11945  1.0000
  H   H79       1.0  0.0954  0.29784  0.56462  1.0000
  H   H80       1.0  0.05271  0.46375  0.37533  1.0000
  H   H81       1.0  0.13422  0.16503  0.53199  1.0000
  H   H82       1.0  0.08679000000000002  0.11283000000000003  0.43046  1.0000
  H   H83       1.0  0.19631  0.15553  0.4479  1.0000
  H   H84       1.0  0.06062000000000002  0.42166  0.23213  1.0000
  H   H85       1.0  0.14451000000000006  0.36066  0.21973  1.0000
  H   H86       1.0  0.03774  0.3116200000000001  0.19677  1.0000
  C   C1        1.0  0.6796  0.88392  0.00743  1.0000
  C   C2        1.0  0.62356  0.8010900000000002  0.00441  1.0000
  C   C3        1.0  0.53747  0.7969200000000002  0.0167  1.0000
  C   C4        1.0  0.48772  0.71839  0.0139  1.0000
  C   C5        1.0  0.52326  0.6436300000000003  0.99735  1.0000
  C   C6        1.0  0.6101  0.64796  0.98657  1.0000
  C   C7        1.0  0.6594200000000002  0.72604  0.99012  1.0000
  C   C8        1.0  0.4565300000000001  0.42268  0.96765  1.0000
  C   C9        1.0  0.39967000000000025  0.40627  0.02611  1.0000
  C   C10       1.0  0.36765  0.32308  0.03263  1.0000
  C   C11       1.0  0.39211  0.25543  0.98224  1.0000
  C   C12       1.0  0.4485  0.27222000000000013  0.92389  1.0000
  C   C13       1.0  0.4803  0.3553000000000001  0.91648  1.0000
  C   C14       1.0  0.35923  0.16575  0.99188  1.0000
  C   C15       1.0  0.7424500000000002  0.03429000000000003  0.85593  1.0000
  C   C16       1.0  0.71018  0.045150000000000017  0.7666  1.0000
  C   C17       1.0  0.6481799999999999  0.09814000000000003  0.7503  1.0000
  C   C18       1.0  0.61529  0.10472  0.66734  1.0000
  C   C19       1.0  0.64431  0.05872  0.59969  1.0000
  C   C20       1.0  0.7073100000000002  0.006199999999999996  0.6157  1.0000
  C   C21       1.0  0.7394499999999999  0.9996600000000001  0.69875  1.0000
  C   C22       1.0  0.57832  0.02686  0.3787  1.0000
  C   C23       1.0  0.49252  0.04149000000000001  0.37342  1.0000
  C   C24       1.0  0.44381  0.03696  0.29494  1.0000
  C   C25       1.0  0.4791800000000001  0.017580000000000005  0.22048000000000006  1.0000
  C   C26       1.0  0.56416  0.0013999999999999987  0.2256  1.0000
  C   C27       1.0  0.61344  0.005680000000000001  0.30457  1.0000
  C   C28       1.0  0.42417  0.01352  0.13699  1.0000
  C   C29       1.0  0.74294  0.21456000000000008  0.15562  1.0000
  C   C30       1.0  0.71843  0.27962  0.20694  1.0000
  C   C31       1.0  0.6314400000000002  0.28801  0.2042  1.0000
  C   C32       1.0  0.57286  0.22983  0.14659  1.0000
  C   C33       1.0  0.6019400000000003  0.16623  0.09641  1.0000
  C   C34       1.0  0.60594  0.35372  0.26478  1.0000
  C   C35       1.0  0.61033  0.43846  0.24925  1.0000
  C   C36       1.0  0.5927900000000003  0.49971  0.31129  1.0000
  C   C37       1.0  0.5718  0.47805  0.38919  1.0000
  C   C38       1.0  0.5674  0.39283  0.40321  1.0000
  C   C39       1.0  0.58404  0.33073  0.34246  1.0000
  C   C40       1.0  0.63315  0.4638400000000001  0.16644  1.0000
  C   C41       1.0  0.58134  0.24055000000000012  0.36035  1.0000
  C   C42       1.0  0.55096  0.6244200000000002  0.43961  1.0000
  C   C43       1.0  0.53605  0.67876  0.51795  1.0000
  C   C44       1.0  0.55825  0.65932  0.5999  1.0000
  C   C45       1.0  0.5407500000000001  0.7095600000000002  0.6708200000000001  1.0000
  C   C46       1.0  0.5012200000000001  0.7819100000000002  0.65876  1.0000
  C   C47       1.0  0.48182  0.80469  0.57709  1.0000
  C   C48       1.0  0.49899  0.75185  0.50791  1.0000
  C   C49       1.0  0.56266  0.68562  0.75829  1.0000
  C   C50       1.0  0.44300999999999996  0.88344  0.56133  1.0000
  C   C51       1.0  0.47428  0.8305699999999999  0.7326  1.0000
  C   C52       1.0  0.52956  0.8936100000000002  0.78765  1.0000
  C   C53       1.0  0.49913000000000024  0.93735  0.85462  1.0000
  C   C54       1.0  0.3637000000000001  0.8593100000000002  0.81668  1.0000
  C   C55       1.0  0.3897  0.8132600000000002  0.74885  1.0000
  C   C56       1.0  0.05095999999999999  0.43959999999999994  0.62442  1.0000
  C   C57       1.0  0.036050000000000006  0.51795  0.67876  1.0000
  C   C58       1.0  0.05825  0.59989  0.65932  1.0000
  C   C59       1.0  0.04075  0.67082  0.70956  1.0000
  C   C60       1.0  0.0012200000000000108  0.65876  0.78191  1.0000
  C   C61       1.0  0.98181  0.57709  0.80469  1.0000
  C   C62       1.0  0.99899  0.50791  0.75185  1.0000
  C   C63       1.0  0.06266000000000005  0.7582800000000002  0.68562  1.0000
  C   C64       1.0  0.94301  0.5613300000000002  0.88344  1.0000
  C   C65       1.0  0.9742800000000001  0.73259  0.83057  1.0000
  C   C66       1.0  0.029559999999999986  0.78764  0.89361  1.0000
  C   C67       1.0  0.99913  0.85462  0.93735  1.0000
  C   C68       1.0  0.8637  0.8166800000000002  0.85932  1.0000
  C   C69       1.0  0.8897000000000003  0.74885  0.81327  1.0000
  C   C70       1.0  0.17959  0.007429999999999993  0.88392  1.0000
  C   C71       1.0  0.12356000000000003  0.004410000000000001  0.80109  1.0000
  C   C72       1.0  0.03747000000000004  0.016700000000000034  0.7969200000000002  1.0000
  C   C73       1.0  0.98772  0.013900000000000001  0.71839  1.0000
  C   C74       1.0  0.02326000000000001  0.9973400000000002  0.64363  1.0000
  C   C75       1.0  0.11010000000000005  0.9865700000000002  0.64796  1.0000
  C   C76       1.0  0.15942  0.99012  0.72604  1.0000
  C   C77       1.0  0.95653  0.9676500000000002  0.42268  1.0000
  C   C78       1.0  0.89967  0.026110000000000008  0.40627  1.0000
  C   C79       1.0  0.86765  0.03263  0.32308  1.0000
  C   C80       1.0  0.89212  0.98223  0.25543  1.0000
  C   C81       1.0  0.9485000000000002  0.92388  0.27223  1.0000
  C   C82       1.0  0.9803  0.91648  0.3553  1.0000
  C   C83       1.0  0.85924  0.9918800000000002  0.16575  1.0000
  C   C84       1.0  0.24245  0.85593  0.03429  1.0000
  C   C85       1.0  0.21018  0.7666  0.04515  1.0000
  C   C86       1.0  0.14818  0.7503  0.09814  1.0000
  C   C87       1.0  0.11529000000000003  0.6673400000000003  0.10472  1.0000
  C   C88       1.0  0.14431000000000005  0.59969  0.05872  1.0000
  C   C89       1.0  0.20731  0.61569  0.0062  1.0000
  C   C90       1.0  0.23944999999999997  0.69875  0.99966  1.0000
  C   C91       1.0  0.07832  0.3787  0.02686  1.0000
  C   C92       1.0  0.99252  0.37341  0.04149  1.0000
  C   C93       1.0  0.94381  0.29494  0.03696  1.0000
  C   C94       1.0  0.97918  0.22048000000000006  0.01758  1.0000
  C   C95       1.0  0.06416000000000002  0.2256  0.00139  1.0000
  C   C96       1.0  0.11344  0.30457  0.00568  1.0000
  C   C97       1.0  0.9241700000000003  0.13699  0.01352  1.0000
  C   C98       1.0  0.24294  0.15562  0.21456  1.0000
  C   C99       1.0  0.21842999999999999  0.20694  0.2796300000000001  1.0000
  C   C100      1.0  0.13144  0.20420000000000005  0.28801  1.0000
  C   C101      1.0  0.07286  0.14659  0.22983  1.0000
  C   C102      1.0  0.10194000000000003  0.09641  0.16623  1.0000
  C   C103      1.0  0.10594  0.26478  0.35372  1.0000
  C   C104      1.0  0.11033  0.2492500000000001  0.43846  1.0000
  C   C105      1.0  0.09279000000000001  0.3112900000000001  0.49971  1.0000
  C   C106      1.0  0.07180000000000003  0.38919  0.47805  1.0000
  C   C107      1.0  0.0674  0.40321  0.39283  1.0000
  C   C108      1.0  0.08404  0.34246  0.33073  1.0000
  C   C109      1.0  0.13315  0.16644000000000006  0.46384  1.0000
  C   C110      1.0  0.08134000000000001  0.3603500000000001  0.24055  1.0000
  N   N1        1.0  0.47061  0.5658300000000003  0.99747  1.0000
  N   N2        1.0  0.4989100000000002  0.5032500000000002  0.9597  1.0000
  N   N3        1.0  0.60125  0.06522000000000003  0.51904  1.0000
  N   N4        1.0  0.63097  0.028530000000000014  0.45677  1.0000
  N   N5        1.0  0.68569  0.15815  0.10114  1.0000
  N   N6        1.0  0.5578700000000002  0.53777  0.45387  1.0000
  N   N7        1.0  0.4173500000000001  0.92084  0.86867  1.0000
  N   N8        1.0  0.05786000000000001  0.45387  0.53777  1.0000
  N   N9        1.0  0.91735  0.86866  0.92084  1.0000
  N   N10       1.0  0.97061  0.99747  0.56583  1.0000
  N   N11       1.0  0.99891  0.9597  0.50325  1.0000
  N   N12       1.0  0.10126  0.51904  0.06522  1.0000
  N   N13       1.0  0.13097  0.4567600000000001  0.02853  1.0000
  N   N14       1.0  0.18569  0.10114000000000002  0.15815  1.0000
  O   O1        1.0  0.6498300000000002  0.95185  0.02944  1.0000
  O   O2        1.0  0.75393  0.8797100000000002  0.98724  1.0000
  O   O3        1.0  0.29363  0.15437  0.02912  1.0000
  O   O4        1.0  0.40023  0.10855  0.96232  1.0000
  O   O5        1.0  0.70385  0.06715000000000002  0.91337  1.0000
  O   O6        1.0  0.80442  0.9920200000000002  0.86678  1.0000
  O   O7        1.0  0.35091  0.03718000000000001  0.13874  1.0000
  O   O8        1.0  0.45371000000000006  0.9874200000000002  0.07027  1.0000
  O   O9        1.0  0.14983  0.029439999999999994  0.95185  1.0000
  O   O10       1.0  0.2539300000000001  0.98724  0.87971  1.0000
  O   O11       1.0  0.79363  0.029120000000000007  0.15437  1.0000
  O   O12       1.0  0.90023  0.96232  0.10856  1.0000
  O   O13       1.0  0.20386  0.91336  0.06715  1.0000
  O   O14       1.0  0.30442  0.86678  0.99203  1.0000
  O   O15       1.0  0.85091  0.13874  0.03718  1.0000
  O   O16       1.0  0.9537  0.07027  0.98742  1.0000
