data_image0
_chemical_formula_structural       Ag16H120C168N48
_chemical_formula_sum              "Ag16 H120 C168 N48"
_cell_length_a       13.11243
_cell_length_b       18.00976
_cell_length_c       19.8405
_cell_angle_alpha    96.25856000000002
_cell_angle_beta     89.97049999999999
_cell_angle_gamma    90.02136

_space_group_name_H-M_alt    "P 1"
_space_group_IT_number       1

loop_
  _space_group_symop_operation_xyz
  'x, y, z'

loop_
  _atom_site_type_symbol
  _atom_site_label
  _atom_site_symmetry_multiplicity
  _atom_site_fract_x
  _atom_site_fract_y
  _atom_site_fract_z
  _atom_site_occupancy
  Ag  Ag1       1.0  0.21239999999999995  0.25309  0.2548  1.0000
  Ag  Ag2       1.0  0.07983999999999997  0.3438299999999999  0.37618  1.0000
  Ag  Ag3       1.0  0.01998  0.75198  0.7532699999999999  1.0000
  Ag  Ag4       1.0  0.90428  0.84205  0.87855  1.0000
  Ag  Ag5       1.0  0.71236  0.24705999999999995  0.7450599999999998  1.0000
  Ag  Ag6       1.0  0.5795599999999999  0.15631  0.62379  1.0000
  Ag  Ag7       1.0  0.52  0.7479599999999998  0.24664  1.0000
  Ag  Ag8       1.0  0.40434  0.65778  0.12134999999999997  1.0000
  Ag  Ag9       1.0  0.7875999999999997  0.74691  0.7451999999999999  1.0000
  Ag  Ag10      1.0  0.9201599999999998  0.6561699999999999  0.6238199999999999  1.0000
  Ag  Ag11      1.0  0.98002  0.24802  0.24672999999999998  1.0000
  Ag  Ag12      1.0  0.09571999999999997  0.15795000000000003  0.12145  1.0000
  Ag  Ag13      1.0  0.28764  0.7529399999999999  0.25494999999999995  1.0000
  Ag  Ag14      1.0  0.42044  0.8436899999999998  0.37621  1.0000
  Ag  Ag15      1.0  0.47999999999999987  0.2520399999999999  0.7533599999999998  1.0000
  Ag  Ag16      1.0  0.5956599999999999  0.34222  0.87865  1.0000
  H   H1        1.0  0.30794  0.11035  0.31619  1.0000
  H   H2        1.0  0.26256  0.0369  0.41033  1.0000
  H   H3        1.0  0.029549999999999996  0.20524  0.4605099999999999  1.0000
  H   H4        1.0  0.91679  0.009609999999999992  0.8450799999999999  1.0000
  H   H5        1.0  0.9573799999999998  0.07724  0.74678  1.0000
  H   H6        1.0  0.07653  0.86579  0.65315  1.0000
  H   H7        1.0  0.024539999999999992  0.17602  0.55659  1.0000
  H   H8        1.0  0.9714099999999998  0.11760999999999999  0.65408  1.0000
  H   H9        1.0  0.12220999999999999  0.9129599999999999  0.57287  1.0000
  H   H10       1.0  0.17546  0.9714  0.47572  1.0000
  H   H11       1.0  0.91692  0.49417999999999995  0.6664999999999998  1.0000
  H   H12       1.0  0.9573399999999997  0.42858  0.76601  1.0000
  H   H13       1.0  0.08453  0.6398799999999999  0.8541299999999998  1.0000
  H   H14       1.0  0.29416  0.4048999999999999  0.20479  1.0000
  H   H15       1.0  0.25093  0.47905  0.11112  1.0000
  H   H16       1.0  0.05676  0.2928  0.03758  1.0000
  H   H17       1.0  0.013049999999999997  0.38119999999999993  0.84505  1.0000
  H   H18       1.0  0.06684  0.3238299999999999  0.94285  1.0000
  H   H19       1.0  0.16918  0.53895  0.03826999999999999  1.0000
  H   H20       1.0  0.11445  0.5963600000000001  0.94079  1.0000
  H   H21       1.0  0.13357  0.28091  0.51557  1.0000
  H   H22       1.0  0.17824999999999996  0.32513999999999993  0.6335499999999998  1.0000
  H   H23       1.0  0.13559  0.5482099999999998  0.5745199999999999  1.0000
  H   H24       1.0  0.32615999999999995  0.7231299999999998  0.9869099999999998  1.0000
  H   H25       1.0  0.29320999999999997  0.68251  0.86601  1.0000
  H   H26       1.0  0.38144999999999996  0.46202  0.9132599999999997  1.0000
  H   H27       1.0  0.23445999999999997  0.58635  0.65396  1.0000
  H   H28       1.0  0.30581999999999987  0.6367799999999998  0.76231  1.0000
  H   H29       1.0  0.27127  0.42187  0.83735  1.0000
  H   H30       1.0  0.19909  0.37166  0.72953  1.0000
  H   H31       1.0  0.8079899999999999  0.38972999999999997  0.68355  1.0000
  H   H32       1.0  0.76262  0.4632199999999999  0.58948  1.0000
  H   H33       1.0  0.52936  0.2949599999999999  0.53955  1.0000
  H   H34       1.0  0.41675999999999996  0.49023999999999995  0.15492  1.0000
  H   H35       1.0  0.4573399999999999  0.4226699999999999  0.25321999999999995  1.0000
  H   H36       1.0  0.57642  0.63422  0.3467299999999999  1.0000
  H   H37       1.0  0.52456  0.32402  0.44343  1.0000
  H   H38       1.0  0.47137999999999997  0.3823199999999999  0.34595  1.0000
  H   H39       1.0  0.62209  0.5871099999999999  0.42699999999999994  1.0000
  H   H40       1.0  0.67543  0.52875  0.5241299999999999  1.0000
  H   H41       1.0  0.41704999999999987  0.005699999999999995  0.33352  1.0000
  H   H42       1.0  0.4574199999999999  0.07130999999999997  0.23397  1.0000
  H   H43       1.0  0.58474  0.8600999999999999  0.14578  1.0000
  H   H44       1.0  0.7941399999999997  0.09537  0.79502  1.0000
  H   H45       1.0  0.75086  0.02111999999999999  0.8886499999999999  1.0000
  H   H46       1.0  0.55664  0.20722999999999994  0.9623799999999998  1.0000
  H   H47       1.0  0.51311  0.11873999999999998  0.15496  1.0000
  H   H48       1.0  0.56679  0.17619  0.05712  1.0000
  H   H49       1.0  0.6692299999999999  0.96117  0.96156  1.0000
  H   H50       1.0  0.61458  0.90367  0.05907  1.0000
  H   H51       1.0  0.63171  0.21899  0.48409  1.0000
  H   H52       1.0  0.67669  0.17470999999999995  0.3661599999999999  1.0000
  H   H53       1.0  0.63658  0.95163  0.42577999999999994  1.0000
  H   H54       1.0  0.82582  0.77683  0.01307  1.0000
  H   H55       1.0  0.7930599999999998  0.8174999999999998  0.13399  1.0000
  H   H56       1.0  0.8816399999999998  0.03794  0.0866  1.0000
  H   H57       1.0  0.73446  0.9135699999999999  0.34601  1.0000
  H   H58       1.0  0.80591  0.86322  0.23763999999999996  1.0000
  H   H59       1.0  0.77145  0.07816  0.16268  1.0000
  H   H60       1.0  0.69918  0.12829  0.27051  1.0000
  H   H61       1.0  0.69207  0.8896499999999999  0.6838099999999999  1.0000
  H   H62       1.0  0.7374399999999998  0.9630999999999998  0.5896699999999999  1.0000
  H   H63       1.0  0.9704499999999998  0.7947599999999997  0.53949  1.0000
  H   H64       1.0  0.08321  0.9903899999999999  0.15492  1.0000
  H   H65       1.0  0.04262  0.9227599999999999  0.25321999999999995  1.0000
  H   H66       1.0  0.92347  0.13420999999999994  0.34685  1.0000
  H   H67       1.0  0.9754699999999997  0.8239799999999999  0.44340999999999997  1.0000
  H   H68       1.0  0.028589999999999994  0.8823899999999999  0.34592  1.0000
  H   H69       1.0  0.8777899999999997  0.08704  0.4271299999999999  1.0000
  H   H70       1.0  0.8245399999999999  0.02860000000000001  0.52428  1.0000
  H   H71       1.0  0.08308  0.50582  0.3335  1.0000
  H   H72       1.0  0.04267  0.57141  0.23398999999999998  1.0000
  H   H73       1.0  0.91547  0.36011999999999994  0.14587  1.0000
  H   H74       1.0  0.70584  0.5951  0.79521  1.0000
  H   H75       1.0  0.7490699999999998  0.52095  0.8888799999999999  1.0000
  H   H76       1.0  0.9432399999999997  0.7072  0.9624199999999998  1.0000
  H   H77       1.0  0.9869599999999997  0.6187999999999998  0.15495  1.0000
  H   H78       1.0  0.9331599999999998  0.6761699999999998  0.057149999999999986  1.0000
  H   H79       1.0  0.83082  0.46104999999999996  0.96173  1.0000
  H   H80       1.0  0.8855499999999997  0.40364  0.05921  1.0000
  H   H81       1.0  0.86644  0.71909  0.48443  1.0000
  H   H82       1.0  0.82175  0.67486  0.36645  1.0000
  H   H83       1.0  0.8644099999999999  0.45179  0.42547999999999997  1.0000
  H   H84       1.0  0.67384  0.2768699999999999  0.013089999999999997  1.0000
  H   H85       1.0  0.7067899999999998  0.31749  0.13399  1.0000
  H   H86       1.0  0.61855  0.5379799999999998  0.08674  1.0000
  H   H87       1.0  0.7655399999999999  0.4136499999999999  0.34603999999999996  1.0000
  H   H88       1.0  0.69418  0.36322  0.23768999999999998  1.0000
  H   H89       1.0  0.7287299999999998  0.57813  0.16265  1.0000
  H   H90       1.0  0.80091  0.6283399999999998  0.27047  1.0000
  H   H91       1.0  0.19201  0.61027  0.31645  1.0000
  H   H92       1.0  0.23737999999999995  0.53678  0.41052  1.0000
  H   H93       1.0  0.47064  0.70504  0.46044999999999997  1.0000
  H   H94       1.0  0.58324  0.50976  0.8450799999999999  1.0000
  H   H95       1.0  0.54266  0.5773299999999999  0.74678  1.0000
  H   H96       1.0  0.42358  0.36578  0.6532699999999999  1.0000
  H   H97       1.0  0.47543999999999986  0.67598  0.55658  1.0000
  H   H98       1.0  0.52862  0.6176799999999998  0.65405  1.0000
  H   H99       1.0  0.37791  0.41289  0.573  1.0000
  H   H100      1.0  0.32457  0.47125  0.47587  1.0000
  H   H101      1.0  0.58295  0.9943  0.6664799999999999  1.0000
  H   H102      1.0  0.54258  0.92869  0.76603  1.0000
  H   H103      1.0  0.41526  0.1399  0.85422  1.0000
  H   H104      1.0  0.20585999999999996  0.9046299999999999  0.20497999999999997  1.0000
  H   H105      1.0  0.24914  0.97888  0.11135  1.0000
  H   H106      1.0  0.44335999999999987  0.7927699999999998  0.03762  1.0000
  H   H107      1.0  0.48688999999999993  0.88126  0.8450399999999999  1.0000
  H   H108      1.0  0.4332099999999999  0.82381  0.9428799999999999  1.0000
  H   H109      1.0  0.3307699999999999  0.03882999999999999  0.03844  1.0000
  H   H110      1.0  0.38541999999999993  0.09632999999999996  0.94093  1.0000
  H   H111      1.0  0.3683  0.7810099999999999  0.5159099999999999  1.0000
  H   H112      1.0  0.32331  0.8252899999999999  0.63384  1.0000
  H   H113      1.0  0.36341999999999997  0.04836999999999999  0.57422  1.0000
  H   H114      1.0  0.17418  0.22316999999999995  0.98693  1.0000
  H   H115      1.0  0.20694  0.1825  0.86601  1.0000
  H   H116      1.0  0.11835999999999998  0.96206  0.9133999999999999  1.0000
  H   H117      1.0  0.26554  0.08642999999999999  0.65399  1.0000
  H   H118      1.0  0.19409  0.13678  0.76237  1.0000
  H   H119      1.0  0.22855  0.9218399999999999  0.8373199999999998  1.0000
  H   H120      1.0  0.30082  0.87171  0.72949  1.0000
  C   C1        1.0  0.24756999999999998  0.12868  0.35183  1.0000
  C   C2        1.0  0.22100999999999996  0.08790999999999996  0.4037099999999999  1.0000
  C   C3        1.0  0.14138  0.11487999999999998  0.44969  1.0000
  C   C4        1.0  0.09545  0.1817  0.43237  1.0000
  C   C5        1.0  0.94905  0.98062  0.79892  1.0000
  C   C6        1.0  0.97197  0.017609999999999962  0.7438199999999999  1.0000
  C   C7        1.0  0.01866  0.9779699999999999  0.6851599999999999  1.0000
  C   C8        1.0  0.038429999999999985  0.9019099999999999  0.6928  1.0000
  C   C9        1.0  0.10832  0.08015  0.50734  1.0000
  C   C10       1.0  0.04713999999999999  0.11836  0.55963  1.0000
  C   C11       1.0  0.01722  0.08516999999999995  0.6157699999999998  1.0000
  C   C12       1.0  0.04491  0.010300000000000007  0.62481  1.0000
  C   C13       1.0  0.10170999999999997  0.9711299999999999  0.57085  1.0000
  C   C14       1.0  0.13292  0.004520000000000009  0.51526  1.0000
  C   C15       1.0  0.9531099999999999  0.52314  0.71123  1.0000
  C   C16       1.0  0.9767399999999998  0.48726999999999987  0.76677  1.0000
  C   C17       1.0  0.02769  0.5271  0.82354  1.0000
  C   C18       1.0  0.0462  0.60306  0.8150799999999999  1.0000
  C   C19       1.0  0.24413999999999994  0.3823999999999999  0.16383  1.0000
  C   C20       1.0  0.21915  0.4233699999999999  0.1118  1.0000
  C   C21       1.0  0.15272  0.39159  0.05902999999999999  1.0000
  C   C22       1.0  0.11477  0.3202099999999999  0.07071  1.0000
  C   C23       1.0  0.05843  0.49458  0.8828999999999999  1.0000
  C   C24       1.0  0.045669999999999995  0.4166699999999998  0.8874099999999999  1.0000
  C   C25       1.0  0.07640000000000001  0.38389999999999996  0.9435399999999998  1.0000
  C   C26       1.0  0.12292999999999997  0.4258099999999999  0.00044  1.0000
  C   C27       1.0  0.13618999999999998  0.5036699999999997  0.99592  1.0000
  C   C28       1.0  0.10456999999999997  0.53638  0.94002  1.0000
  C   C29       1.0  0.13482  0.34037  0.53262  1.0000
  C   C30       1.0  0.15991999999999995  0.36568  0.59866  1.0000
  C   C31       1.0  0.16768999999999995  0.44356999999999996  0.61745  1.0000
  C   C32       1.0  0.13816  0.4874299999999999  0.5650899999999999  1.0000
  C   C33       1.0  0.3385099999999999  0.6654  0.96637  1.0000
  C   C34       1.0  0.3199299999999999  0.64215  0.89891  1.0000
  C   C35       1.0  0.32848  0.5653499999999999  0.87597  1.0000
  C   C36       1.0  0.36607999999999996  0.52137  0.9260599999999998  1.0000
  C   C37       1.0  0.20751999999999995  0.47491  0.68231  1.0000
  C   C38       1.0  0.23917  0.55044  0.6944299999999999  1.0000
  C   C39       1.0  0.28061  0.57887  0.7558799999999998  1.0000
  C   C40       1.0  0.29432  0.5339299999999999  0.80963  1.0000
  C   C41       1.0  0.265  0.45801  0.79711  1.0000
  C   C42       1.0  0.22301  0.42981  0.73582  1.0000
  C   C43       1.0  0.7476199999999998  0.3713999999999999  0.64797  1.0000
  C   C44       1.0  0.72106  0.4122  0.59611  1.0000
  C   C45       1.0  0.6414  0.38522999999999985  0.5502  1.0000
  C   C46       1.0  0.59538  0.3184299999999999  0.5675699999999999  1.0000
  C   C47       1.0  0.4490099999999999  0.51927  0.20106  1.0000
  C   C48       1.0  0.47191  0.48231999999999997  0.25615999999999994  1.0000
  C   C49       1.0  0.51856  0.522  0.31479  1.0000
  C   C50       1.0  0.5383299999999999  0.59806  0.30711  1.0000
  C   C51       1.0  0.6083299999999999  0.41994  0.49256999999999995  1.0000
  C   C52       1.0  0.54713  0.3816799999999999  0.44034999999999996  1.0000
  C   C53       1.0  0.51717  0.4148299999999998  0.38421999999999995  1.0000
  C   C54       1.0  0.5448199999999999  0.48970999999999987  0.37514  1.0000
  C   C55       1.0  0.60163  0.52893  0.42904999999999993  1.0000
  C   C56       1.0  0.63289  0.49558  0.48461999999999994  1.0000
  C   C57       1.0  0.45324  0.9767599999999999  0.28876  1.0000
  C   C58       1.0  0.4768499999999999  0.012649999999999991  0.23318999999999998  1.0000
  C   C59       1.0  0.52783  0.97285  0.1764  1.0000
  C   C60       1.0  0.54637  0.8968999999999999  0.18484999999999996  1.0000
  C   C61       1.0  0.7440699999999998  0.11779999999999999  0.83601  1.0000
  C   C62       1.0  0.71909  0.07679  0.88803  1.0000
  C   C63       1.0  0.6526599999999998  0.10851999999999998  0.94085  1.0000
  C   C64       1.0  0.61467  0.17986999999999995  0.9292099999999999  1.0000
  C   C65       1.0  0.55855  0.005409999999999999  0.11703  1.0000
  C   C66       1.0  0.54574  0.08332  0.11254999999999998  1.0000
  C   C67       1.0  0.57641  0.11611999999999999  0.05641  1.0000
  C   C68       1.0  0.6229299999999999  0.07426  0.99945  1.0000
  C   C69       1.0  0.63623  0.99641  0.00395  1.0000
  C   C70       1.0  0.60468  0.96365  0.05986  1.0000
  C   C71       1.0  0.63358  0.15950999999999996  0.46718  1.0000
  C   C72       1.0  0.6588999999999998  0.13416  0.40117  1.0000
  C   C73       1.0  0.66749  0.056289999999999986  0.38254999999999995  1.0000
  C   C74       1.0  0.6384499999999999  0.012429999999999984  0.43504999999999994  1.0000
  C   C75       1.0  0.83829  0.8345599999999997  0.03357  1.0000
  C   C76       1.0  0.8198299999999997  0.8578499999999998  0.10104999999999999  1.0000
  C   C77       1.0  0.8285099999999999  0.9346499999999999  0.12396999999999998  1.0000
  C   C78       1.0  0.8661299999999997  0.9785899999999998  0.07383  1.0000
  C   C79       1.0  0.7075199999999999  0.02502  0.31771  1.0000
  C   C80       1.0  0.73923  0.9495199999999999  0.30557  1.0000
  C   C81       1.0  0.78069  0.92113  0.24408999999999997  1.0000
  C   C82       1.0  0.7944  0.9660799999999999  0.19033999999999998  1.0000
  C   C83       1.0  0.76512  0.041989999999999986  0.20289999999999997  1.0000
  C   C84       1.0  0.7230699999999999  0.07013999999999998  0.26421  1.0000
  C   C85       1.0  0.75243  0.87132  0.64817  1.0000
  C   C86       1.0  0.7789899999999997  0.9120899999999998  0.59629  1.0000
  C   C87       1.0  0.85862  0.8851199999999998  0.55031  1.0000
  C   C88       1.0  0.9045599999999998  0.8182999999999999  0.5676299999999999  1.0000
  C   C89       1.0  0.05095  0.019379999999999994  0.20108  1.0000
  C   C90       1.0  0.028029999999999992  0.98239  0.25618  1.0000
  C   C91       1.0  0.98134  0.022029999999999987  0.31483999999999995  1.0000
  C   C92       1.0  0.96157  0.09809  0.3072  1.0000
  C   C93       1.0  0.8916799999999998  0.91985  0.49266  1.0000
  C   C94       1.0  0.95286  0.8816399999999998  0.44037  1.0000
  C   C95       1.0  0.9827799999999999  0.9148299999999999  0.38422999999999996  1.0000
  C   C96       1.0  0.9550899999999998  0.9897  0.37519  1.0000
  C   C97       1.0  0.8982899999999998  0.02886999999999999  0.4291499999999999  1.0000
  C   C98       1.0  0.8670799999999999  0.9954799999999999  0.48474  1.0000
  C   C99       1.0  0.04688999999999999  0.47686  0.28877  1.0000
  C   C100      1.0  0.02326  0.51273  0.23322999999999997  1.0000
  C   C101      1.0  0.97231  0.47289999999999993  0.17647  1.0000
  C   C102      1.0  0.9537999999999998  0.3969399999999999  0.18493  1.0000
  C   C103      1.0  0.75586  0.6175999999999998  0.83617  1.0000
  C   C104      1.0  0.7808499999999999  0.57663  0.8882  1.0000
  C   C105      1.0  0.84729  0.6084099999999997  0.9409699999999999  1.0000
  C   C106      1.0  0.8852299999999999  0.6797899999999998  0.92929  1.0000
  C   C107      1.0  0.9415699999999999  0.5054199999999998  0.1171  1.0000
  C   C108      1.0  0.95433  0.5833299999999998  0.11259  1.0000
  C   C109      1.0  0.9235999999999999  0.6161  0.056459999999999996  1.0000
  C   C110      1.0  0.87707  0.57419  0.99956  1.0000
  C   C111      1.0  0.86382  0.4963299999999999  0.00408  1.0000
  C   C112      1.0  0.8954299999999998  0.46362  0.05997999999999999  1.0000
  C   C113      1.0  0.8651799999999997  0.65963  0.46737999999999996  1.0000
  C   C114      1.0  0.8400799999999999  0.6343199999999998  0.4013399999999999  1.0000
  C   C115      1.0  0.8323099999999999  0.55643  0.38254999999999995  1.0000
  C   C116      1.0  0.8618399999999999  0.51257  0.43491  1.0000
  C   C117      1.0  0.6614899999999999  0.3346  0.03362999999999999  1.0000
  C   C118      1.0  0.68007  0.35785  0.10108999999999997  1.0000
  C   C119      1.0  0.67152  0.43464999999999987  0.12403  1.0000
  C   C120      1.0  0.63392  0.47862999999999994  0.07394  1.0000
  C   C121      1.0  0.79248  0.52509  0.31769  1.0000
  C   C122      1.0  0.7608399999999997  0.44955999999999996  0.30557  1.0000
  C   C123      1.0  0.7193999999999998  0.42113  0.24411999999999995  1.0000
  C   C124      1.0  0.70568  0.46607  0.19036999999999998  1.0000
  C   C125      1.0  0.7349999999999998  0.54199  0.20288999999999996  1.0000
  C   C126      1.0  0.77699  0.5701899999999999  0.26418  1.0000
  C   C127      1.0  0.25238  0.6285999999999998  0.3520299999999999  1.0000
  C   C128      1.0  0.27894  0.5878  0.40389  1.0000
  C   C129      1.0  0.35859999999999986  0.6147699999999999  0.4497999999999999  1.0000
  C   C130      1.0  0.40462999999999993  0.68157  0.43243  1.0000
  C   C131      1.0  0.55099  0.48072999999999994  0.79894  1.0000
  C   C132      1.0  0.5280899999999998  0.5176799999999999  0.74384  1.0000
  C   C133      1.0  0.48143999999999987  0.4779999999999999  0.6852099999999999  1.0000
  C   C134      1.0  0.46167  0.40194  0.69289  1.0000
  C   C135      1.0  0.39167  0.58006  0.5074299999999999  1.0000
  C   C136      1.0  0.45286999999999994  0.61832  0.55965  1.0000
  C   C137      1.0  0.48283  0.58517  0.6157799999999999  1.0000
  C   C138      1.0  0.45518  0.51029  0.62486  1.0000
  C   C139      1.0  0.3983699999999999  0.47106999999999993  0.57095  1.0000
  C   C140      1.0  0.36711  0.5044199999999999  0.51538  1.0000
  C   C141      1.0  0.54676  0.02324  0.71124  1.0000
  C   C142      1.0  0.52315  0.98735  0.76681  1.0000
  C   C143      1.0  0.4721699999999999  0.027150000000000007  0.8236  1.0000
  C   C144      1.0  0.45362999999999987  0.10309999999999996  0.8151499999999999  1.0000
  C   C145      1.0  0.25593  0.8822  0.16399  1.0000
  C   C146      1.0  0.28091  0.92321  0.11196999999999999  1.0000
  C   C147      1.0  0.34734  0.8914799999999999  0.05915  1.0000
  C   C148      1.0  0.38532999999999995  0.82013  0.07078999999999999  1.0000
  C   C149      1.0  0.4414499999999999  0.9945899999999996  0.8829699999999999  1.0000
  C   C150      1.0  0.4542599999999999  0.9166799999999999  0.88745  1.0000
  C   C151      1.0  0.42359  0.8838799999999997  0.94359  1.0000
  C   C152      1.0  0.3770699999999999  0.9257399999999999  0.00055  1.0000
  C   C153      1.0  0.36377  0.0035900000000000064  0.99605  1.0000
  C   C154      1.0  0.39532  0.03634999999999997  0.94014  1.0000
  C   C155      1.0  0.36642  0.84049  0.53282  1.0000
  C   C156      1.0  0.3410999999999999  0.8658399999999998  0.59883  1.0000
  C   C157      1.0  0.33251  0.9437099999999999  0.61745  1.0000
  C   C158      1.0  0.3615499999999999  0.98757  0.56495  1.0000
  C   C159      1.0  0.16171  0.16543999999999995  0.9664299999999999  1.0000
  C   C160      1.0  0.18016999999999997  0.14215  0.89895  1.0000
  C   C161      1.0  0.17148999999999995  0.06535  0.87603  1.0000
  C   C162      1.0  0.13387  0.021409999999999964  0.9261699999999999  1.0000
  C   C163      1.0  0.29248  0.97498  0.68229  1.0000
  C   C164      1.0  0.26076999999999995  0.050479999999999976  0.6944299999999999  1.0000
  C   C165      1.0  0.21930999999999998  0.07886999999999997  0.7559099999999997  1.0000
  C   C166      1.0  0.20559999999999995  0.03391999999999999  0.8096599999999999  1.0000
  C   C167      1.0  0.23487999999999995  0.95801  0.7971  1.0000
  C   C168      1.0  0.27693  0.9298599999999999  0.73579  1.0000
  N   N1        1.0  0.20319  0.19501  0.34064  1.0000
  N   N2        1.0  0.12337999999999998  0.22004  0.38219  1.0000
  N   N3        1.0  0.96592  0.9065999999999999  0.8021  1.0000
  N   N4        1.0  0.012749999999999996  0.8679299999999999  0.7462899999999999  1.0000
  N   N5        1.0  0.9730299999999997  0.59631  0.70602  1.0000
  N   N6        1.0  0.01986  0.636  0.76101  1.0000
  N   N7        1.0  0.21018  0.31139  0.16892999999999997  1.0000
  N   N8        1.0  0.14098  0.2817099999999999  0.12109999999999999  1.0000
  N   N9        1.0  0.11434999999999998  0.38582  0.48448  1.0000
  N   N10       1.0  0.11347  0.4611199999999999  0.50213  1.0000
  N   N11       1.0  0.36909  0.61933  0.011859999999999999  1.0000
  N   N12       1.0  0.3860999999999999  0.5460099999999999  0.9901799999999998  1.0000
  N   N13       1.0  0.7032  0.30508  0.6591799999999999  1.0000
  N   N14       1.0  0.62332  0.28006  0.61771  1.0000
  N   N15       1.0  0.4658799999999999  0.5933  0.19784  1.0000
  N   N16       1.0  0.5127  0.6319999999999997  0.25361  1.0000
  N   N17       1.0  0.47319  0.9036  0.29394  1.0000
  N   N18       1.0  0.52003  0.86394  0.23893  1.0000
  N   N19       1.0  0.7101  0.18879999999999997  0.83095  1.0000
  N   N20       1.0  0.6408799999999999  0.21841999999999998  0.8788199999999998  1.0000
  N   N21       1.0  0.61363  0.1141  0.51545  1.0000
  N   N22       1.0  0.61355  0.03875999999999998  0.4979799999999999  1.0000
  N   N23       1.0  0.8688999999999998  0.88061  0.98803  1.0000
  N   N24       1.0  0.88605  0.95392  0.00969  1.0000
  N   N25       1.0  0.7968199999999998  0.8049899999999997  0.6593599999999998  1.0000
  N   N26       1.0  0.8766199999999997  0.77996  0.61781  1.0000
  N   N27       1.0  0.03408  0.0934  0.1979  1.0000
  N   N28       1.0  0.9872499999999997  0.13206999999999994  0.25371  1.0000
  N   N29       1.0  0.02697  0.40369  0.29398  1.0000
  N   N30       1.0  0.9801399999999999  0.364  0.23899  1.0000
  N   N31       1.0  0.78982  0.68861  0.8310699999999999  1.0000
  N   N32       1.0  0.85902  0.7182899999999998  0.8789  1.0000
  N   N33       1.0  0.8856599999999998  0.61418  0.51552  1.0000
  N   N34       1.0  0.8865299999999998  0.53888  0.49787  1.0000
  N   N35       1.0  0.6309199999999998  0.3806699999999999  0.98814  1.0000
  N   N36       1.0  0.6138999999999999  0.45399  0.009819999999999999  1.0000
  N   N37       1.0  0.29680999999999996  0.6949199999999999  0.3408199999999999  1.0000
  N   N38       1.0  0.37668  0.7199399999999998  0.38229  1.0000
  N   N39       1.0  0.53412  0.4067  0.80216  1.0000
  N   N40       1.0  0.4873  0.36799999999999994  0.7463899999999998  1.0000
  N   N41       1.0  0.5268099999999999  0.09639999999999999  0.7060599999999999  1.0000
  N   N42       1.0  0.4799799999999999  0.13606  0.76107  1.0000
  N   N43       1.0  0.2899  0.8112  0.16905  1.0000
  N   N44       1.0  0.3591199999999999  0.7815799999999998  0.12117999999999998  1.0000
  N   N45       1.0  0.38637  0.8859  0.4845499999999999  1.0000
  N   N46       1.0  0.38645  0.96124  0.50202  1.0000
  N   N47       1.0  0.1311  0.11939  0.01197  1.0000
  N   N48       1.0  0.11395  0.04608  0.99031  1.0000
