data_image0
_chemical_formula_structural       Ni8H120C136N16O52
_chemical_formula_sum              "Ni8 H120 C136 N16 O52"
_cell_length_a       10.48016
_cell_length_b       15.80597
_cell_length_c       26.02923
_cell_angle_alpha    90.05411999999998
_cell_angle_beta     90.00045
_cell_angle_gamma    90.0

_symmetry_space_group_name_H-M    'P 1'
_symmetry_Int_Tables_number       1

loop_
  _symmetry_equiv_pos_as_xyz
  'x,y,z'

loop_
  _atom_site_type_symbol
  _atom_site_label
  _atom_site_symmetry_multiplicity
  _atom_site_fract_x
  _atom_site_fract_y
  _atom_site_fract_z
  _atom_site_occupancy
  Ni  Ni1       1.0  0.33455  0.35232  0.62093  1.0000
  Ni  Ni2       1.0  0.12745  0.22812  0.6562400000000002  1.0000
  Ni  Ni3       1.0  0.16644  0.64813  0.11962  1.0000
  Ni  Ni4       1.0  0.37776999999999994  0.7728099999999998  0.15329  1.0000
  Ni  Ni5       1.0  0.66645  0.85187  0.8803800000000003  1.0000
  Ni  Ni6       1.0  0.8777799999999998  0.72719  0.8467100000000002  1.0000
  Ni  Ni7       1.0  0.83456  0.14767  0.37906  1.0000
  Ni  Ni8       1.0  0.6274799999999999  0.27189  0.34376  1.0000
  H   H1        1.0  0.60032  0.97258  0.45627  1.0000
  H   H2        1.0  0.43691  0.21478  0.49205000000000004  1.0000
  H   H3        1.0  0.35964999999999997  0.0010900000000000003  0.5894100000000001  1.0000
  H   H4        1.0  0.94752  0.51998  0.7530900000000001  1.0000
  H   H5        1.0  0.5494599999999998  0.55412  0.71977  1.0000
  H   H6        1.0  0.7389199999999999  0.32233  0.67652  1.0000
  H   H7        1.0  0.5246399999999999  0.31814  0.5373300000000001  1.0000
  H   H8        1.0  0.63525  0.4038499999999999  0.46901  1.0000
  H   H9        1.0  0.59527  0.56005  0.46577  1.0000
  H   H10       1.0  0.32016  0.52533  0.58751  1.0000
  H   H11       1.0  0.3237  0.66184  0.52762  1.0000
  H   H12       1.0  0.4707399999999999  0.68278  0.4961800000000001  1.0000
  H   H13       1.0  0.6437399999999999  0.61191  0.58549  1.0000
  H   H14       1.0  0.66158  0.70281  0.5458100000000001  1.0000
  H   H15       1.0  0.62183  0.7112  0.66319  1.0000
  H   H16       1.0  0.6465899999999999  0.7969  0.6205500000000002  1.0000
  H   H17       1.0  0.83341  0.65022  0.6422500000000002  1.0000
  H   H18       1.0  0.8634899999999999  0.73014  0.5971400000000001  1.0000
  H   H19       1.0  0.8277199999999999  0.75159  0.7144400000000001  1.0000
  H   H20       1.0  0.97389  0.75899  0.68061  1.0000
  H   H21       1.0  0.011639999999999998  0.88832  0.6281600000000002  1.0000
  H   H22       1.0  0.87022  0.86819  0.59243  1.0000
  H   H23       1.0  0.70059  0.9823799999999998  0.58363  1.0000
  H   H24       1.0  0.6715499999999999  0.13867  0.57454  1.0000
  H   H25       1.0  0.8476999999999999  0.23502  0.6057  1.0000
  H   H26       1.0  0.06533  0.0341  0.65518  1.0000
  H   H27       1.0  0.44866  0.78397  0.57199  1.0000
  H   H28       1.0  0.43498999999999993  0.6647999999999997  0.6076200000000002  1.0000
  H   H29       1.0  0.8903099999999999  0.88642  0.7094700000000003  1.0000
  H   H30       1.0  0.75477  0.87563  0.6742600000000001  1.0000
  H   H31       1.0  0.8999399999999999  0.02591  0.9579800000000002  1.0000
  H   H32       1.0  0.06778999999999999  0.78465  0.9914100000000002  1.0000
  H   H33       1.0  0.14319  0.99721  0.0904  1.0000
  H   H34       1.0  0.55266  0.48282  0.25217  1.0000
  H   H35       1.0  0.95056  0.44939999999999997  0.21772000000000005  1.0000
  H   H36       1.0  0.76017  0.68107  0.17578  1.0000
  H   H37       1.0  0.97479  0.68104  0.0362  1.0000
  H   H38       1.0  0.8634999999999999  0.59467  0.9683  1.0000
  H   H39       1.0  0.9028399999999999  0.43843  0.9655000000000002  1.0000
  H   H40       1.0  0.1794  0.47434  0.08664000000000002  1.0000
  H   H41       1.0  0.17535999999999996  0.33739  0.027020000000000006  1.0000
  H   H42       1.0  0.028389999999999995  0.31617  0.9956500000000001  1.0000
  H   H43       1.0  0.8560299999999997  0.3877599999999999  0.08538000000000003  1.0000
  H   H44       1.0  0.8372799999999999  0.29695  0.04558  1.0000
  H   H45       1.0  0.87774  0.28882999999999986  0.16288  1.0000
  H   H46       1.0  0.85368  0.20281  0.12023000000000003  1.0000
  H   H47       1.0  0.66572  0.34874  0.14211  1.0000
  H   H48       1.0  0.63623  0.26874  0.09688  1.0000
  H   H49       1.0  0.6727899999999999  0.24734  0.21407000000000007  1.0000
  H   H50       1.0  0.52612  0.24016  0.18056000000000005  1.0000
  H   H51       1.0  0.48649  0.11055  0.12847000000000003  1.0000
  H   H52       1.0  0.62722  0.12971  0.09213  1.0000
  H   H53       1.0  0.7968499999999998  0.01549  0.08383  1.0000
  H   H54       1.0  0.82601  0.8589699999999998  0.07539  1.0000
  H   H55       1.0  0.64939  0.76315  0.1062  1.0000
  H   H56       1.0  0.4312799999999999  0.9645399999999997  0.15485  1.0000
  H   H57       1.0  0.050699999999999995  0.21587  0.07207000000000001  1.0000
  H   H58       1.0  0.06455999999999999  0.33477  0.10707  1.0000
  H   H59       1.0  0.61049  0.11207  0.20921000000000006  1.0000
  H   H60       1.0  0.7449  0.12322  0.17331000000000005  1.0000
  H   H61       1.0  0.3999399999999999  0.47409  0.04201000000000001  1.0000
  H   H62       1.0  0.5677799999999998  0.71535  0.00859  1.0000
  H   H63       1.0  0.6431899999999999  0.50279  0.9095900000000002  1.0000
  H   H64       1.0  0.05266  0.01719  0.74783  1.0000
  H   H65       1.0  0.4505599999999999  0.05061  0.7822700000000001  1.0000
  H   H66       1.0  0.26018  0.81894  0.8242200000000002  1.0000
  H   H67       1.0  0.4747999999999999  0.8189599999999999  0.9638  1.0000
  H   H68       1.0  0.3635  0.9053299999999997  0.0317  1.0000
  H   H69       1.0  0.4028399999999999  0.06157  0.03450000000000001  1.0000
  H   H70       1.0  0.6793999999999998  0.02566  0.91336  1.0000
  H   H71       1.0  0.67537  0.16261  0.9729800000000002  1.0000
  H   H72       1.0  0.52838  0.18384  0.00435  1.0000
  H   H73       1.0  0.35602999999999996  0.11223999999999998  0.9146200000000001  1.0000
  H   H74       1.0  0.3372899999999999  0.20305  0.9544200000000003  1.0000
  H   H75       1.0  0.37775  0.21118  0.8371200000000002  1.0000
  H   H76       1.0  0.35369  0.2972  0.8797700000000003  1.0000
  H   H77       1.0  0.16571999999999998  0.15126  0.85788  1.0000
  H   H78       1.0  0.13623  0.23126  0.9031100000000002  1.0000
  H   H79       1.0  0.17279  0.25267  0.78592  1.0000
  H   H80       1.0  0.02613  0.2598499999999999  0.81944  1.0000
  H   H81       1.0  0.9865  0.38945  0.87153  1.0000
  H   H82       1.0  0.12723  0.3702899999999999  0.9078700000000001  1.0000
  H   H83       1.0  0.29686  0.48451  0.91617  1.0000
  H   H84       1.0  0.32601  0.64103  0.92461  1.0000
  H   H85       1.0  0.1494  0.73685  0.8937900000000002  1.0000
  H   H86       1.0  0.9312799999999999  0.53546  0.84514  1.0000
  H   H87       1.0  0.55071  0.28413  0.9279300000000003  1.0000
  H   H88       1.0  0.56457  0.16523  0.8929300000000001  1.0000
  H   H89       1.0  0.11049999999999997  0.38793  0.7907900000000001  1.0000
  H   H90       1.0  0.24491  0.37678  0.8266900000000001  1.0000
  H   H91       1.0  0.10030999999999998  0.52742  0.54373  1.0000
  H   H92       1.0  0.9368899999999999  0.28521999999999986  0.50795  1.0000
  H   H93       1.0  0.85965  0.49891  0.41058000000000006  1.0000
  H   H94       1.0  0.44754  0.98005  0.24691000000000002  1.0000
  H   H95       1.0  0.04949  0.94588  0.28022  1.0000
  H   H96       1.0  0.23891  0.17768  0.32348  1.0000
  H   H97       1.0  0.024629999999999996  0.18185  0.46267  1.0000
  H   H98       1.0  0.13524  0.09614999999999997  0.53098  1.0000
  H   H99       1.0  0.09527  0.9399499999999997  0.5342300000000001  1.0000
  H   H100      1.0  0.8201599999999999  0.97466  0.4124900000000001  1.0000
  H   H101      1.0  0.8237  0.83815  0.47238000000000013  1.0000
  H   H102      1.0  0.9707499999999998  0.81722  0.50382  1.0000
  H   H103      1.0  0.14374  0.88809  0.4145100000000001  1.0000
  H   H104      1.0  0.16158  0.79719  0.4541800000000001  1.0000
  H   H105      1.0  0.12182999999999997  0.7888  0.33681000000000005  1.0000
  H   H106      1.0  0.14657999999999996  0.7031  0.3794500000000001  1.0000
  H   H107      1.0  0.33341  0.84978  0.35775  1.0000
  H   H108      1.0  0.36349  0.76986  0.40286  1.0000
  H   H109      1.0  0.32770999999999995  0.7484099999999998  0.28555  1.0000
  H   H110      1.0  0.4738799999999999  0.74101  0.31939  1.0000
  H   H111      1.0  0.51164  0.61168  0.37184000000000006  1.0000
  H   H112      1.0  0.37022  0.63181  0.4075600000000001  1.0000
  H   H113      1.0  0.20058999999999996  0.51762  0.4163700000000001  1.0000
  H   H114      1.0  0.17155999999999996  0.36133  0.4254500000000001  1.0000
  H   H115      1.0  0.34771  0.26498  0.39431000000000005  1.0000
  H   H116      1.0  0.56533  0.46589999999999987  0.3448200000000001  1.0000
  H   H117      1.0  0.9486499999999999  0.71603  0.42801000000000006  1.0000
  H   H118      1.0  0.93498  0.8352  0.39238  1.0000
  H   H119      1.0  0.3902999999999999  0.61358  0.29053  1.0000
  H   H120      1.0  0.25476  0.62437  0.32574  1.0000
  C   C1        1.0  0.50177  0.88463  0.53289  1.0000
  C   C2        1.0  0.47893  0.97651  0.5228800000000001  1.0000
  C   C3        1.0  0.5398599999999999  0.01217  0.4801500000000001  1.0000
  C   C4        1.0  0.5239099999999999  0.0978  0.4687100000000001  1.0000
  C   C5        1.0  0.5941099999999999  0.13894  0.4252800000000001  1.0000
  C   C6        1.0  0.44905999999999996  0.14815  0.5009100000000001  1.0000
  C   C7        1.0  0.40467  0.02765  0.55541  1.0000
  C   C8        1.0  0.39197999999999994  0.11425  0.54485  1.0000
  C   C9        1.0  0.32056  0.17339  0.58005  1.0000
  C   C10       1.0  0.9786299999999999  0.36552  0.71181  1.0000
  C   C11       1.0  0.8565499999999999  0.4155999999999999  0.7146800000000001  1.0000
  C   C12       1.0  0.8585099999999998  0.49574000000000007  0.7375700000000002  1.0000
  C   C13       1.0  0.74835  0.54573  0.7396800000000002  1.0000
  C   C14       1.0  0.63482  0.51499  0.7186300000000002  1.0000
  C   C15       1.0  0.63155  0.43423  0.6963600000000002  1.0000
  C   C16       1.0  0.7422199999999999  0.38458  0.6942400000000001  1.0000
  C   C17       1.0  0.75143  0.63253  0.7640700000000002  1.0000
  C   C18       1.0  0.5118899999999998  0.4038  0.67223  1.0000
  C   C19       1.0  0.5065399999999999  0.3853  0.53237  1.0000
  C   C20       1.0  0.56862  0.43371  0.49539  1.0000
  C   C21       1.0  0.54381  0.52036  0.4930200000000001  1.0000
  C   C22       1.0  0.45380999999999994  0.55608  0.52629  1.0000
  C   C23       1.0  0.39252  0.50235  0.56096  1.0000
  C   C24       1.0  0.42702999999999997  0.64991  0.5289000000000001  1.0000
  C   C25       1.0  0.61874  0.67919  0.58155  1.0000
  C   C26       1.0  0.66941  0.72978  0.6271800000000001  1.0000
  C   C27       1.0  0.81361  0.71712  0.6334800000000003  1.0000
  C   C28       1.0  0.8705199999999997  0.76841  0.6774100000000002  1.0000
  C   C29       1.0  0.90903  0.90154  0.6259600000000002  1.0000
  C   C30       1.0  0.8845099999999999  0.99501  0.6211100000000003  1.0000
  C   C31       1.0  0.7730999999999999  0.025790000000000004  0.59799  1.0000
  C   C32       1.0  0.7570399999999998  0.11285  0.59236  1.0000
  C   C33       1.0  0.8539299999999999  0.16661  0.6095400000000001  1.0000
  C   C34       1.0  0.9760099999999999  0.05374  0.6373600000000003  1.0000
  C   C35       1.0  0.9964199999999999  0.11337  0.03459  1.0000
  C   C36       1.0  0.02215  0.02186  0.02432000000000001  1.0000
  C   C37       1.0  0.96159  0.9865  0.9814500000000003  1.0000
  C   C38       1.0  0.97927  0.90135  0.96928  1.0000
  C   C39       1.0  0.90832  0.86089  0.9259400000000002  1.0000
  C   C40       1.0  0.055389999999999995  0.8510599999999998  0.0008200000000000002  1.0000
  C   C41       1.0  0.0981  0.9708299999999997  0.05632000000000001  1.0000
  C   C42       1.0  0.11236999999999998  0.88452  0.04494  1.0000
  C   C43       1.0  0.18461999999999998  0.82434  0.07905000000000001  1.0000
  C   C44       1.0  0.52172  0.6384899999999998  0.21145000000000005  1.0000
  C   C45       1.0  0.6434699999999999  0.58795  0.21413000000000004  1.0000
  C   C46       1.0  0.6413899999999998  0.50747  0.23658000000000007  1.0000
  C   C47       1.0  0.7515099999999999  0.45733  0.23801  1.0000
  C   C48       1.0  0.8648999999999998  0.48822  0.21682000000000007  1.0000
  C   C49       1.0  0.8681099999999998  0.56905  0.19477  1.0000
  C   C50       1.0  0.75748  0.61878  0.19337  1.0000
  C   C51       1.0  0.74885  0.37  0.26155  1.0000
  C   C52       1.0  0.9872699999999999  0.59976  0.17025  1.0000
  C   C53       1.0  0.99287  0.6138499999999998  0.03133  1.0000
  C   C54       1.0  0.9302199999999998  0.56506  0.99466  1.0000
  C   C55       1.0  0.95473  0.47837  0.99253  1.0000
  C   C56       1.0  0.04513  0.4429599999999999  0.0257  1.0000
  C   C57       1.0  0.10689  0.49706  0.06009000000000001  1.0000
  C   C58       1.0  0.07202  0.34919  0.02838  1.0000
  C   C59       1.0  0.8805599999999999  0.32043  0.08129000000000003  1.0000
  C   C60       1.0  0.8302799999999998  0.2698199999999999  0.12691  1.0000
  C   C61       1.0  0.6859799999999999  0.2818999999999999  0.13325  1.0000
  C   C62       1.0  0.62939  0.23045  0.17715  1.0000
  C   C63       1.0  0.58894  0.09692999999999997  0.12592  1.0000
  C   C64       1.0  0.6127399999999998  0.003269999999999999  0.12120000000000003  1.0000
  C   C65       1.0  0.72429  0.9722399999999998  0.09826  1.0000
  C   C66       1.0  0.74033  0.88512  0.09290000000000002  1.0000
  C   C67       1.0  0.6431599999999998  0.83156  0.10987  1.0000
  C   C68       1.0  0.52074  0.94477  0.13722000000000004  1.0000
  C   C69       1.0  0.49643  0.38664  0.9654100000000002  1.0000
  C   C70       1.0  0.5221599999999998  0.4781399999999999  0.9756800000000002  1.0000
  C   C71       1.0  0.46157999999999993  0.5135  0.01855  1.0000
  C   C72       1.0  0.47925999999999996  0.59865  0.030720000000000008  1.0000
  C   C73       1.0  0.40831  0.63911  0.07406000000000001  1.0000
  C   C74       1.0  0.55539  0.64894  0.99918  1.0000
  C   C75       1.0  0.5981  0.52917  0.9436800000000002  1.0000
  C   C76       1.0  0.61236  0.61548  0.9550500000000002  1.0000
  C   C77       1.0  0.6846099999999999  0.6756599999999998  0.92094  1.0000
  C   C78       1.0  0.02173  0.8615199999999997  0.78855  1.0000
  C   C79       1.0  0.14347  0.91206  0.7858700000000001  1.0000
  C   C80       1.0  0.1414  0.99254  0.7634200000000002  1.0000
  C   C81       1.0  0.25151  0.04268  0.7619900000000002  1.0000
  C   C82       1.0  0.3649  0.01179  0.7831800000000001  1.0000
  C   C83       1.0  0.3681199999999999  0.93096  0.80523  1.0000
  C   C84       1.0  0.25749  0.88123  0.80663  1.0000
  C   C85       1.0  0.24884999999999996  0.13  0.73844  1.0000
  C   C86       1.0  0.48727999999999994  0.90024  0.82974  1.0000
  C   C87       1.0  0.49288  0.8861599999999997  0.9686700000000001  1.0000
  C   C88       1.0  0.4302099999999999  0.93494  0.005340000000000001  1.0000
  C   C89       1.0  0.45472  0.02164  0.007470000000000002  1.0000
  C   C90       1.0  0.54514  0.05705  0.9743000000000003  1.0000
  C   C91       1.0  0.60689  0.00294  0.93991  1.0000
  C   C92       1.0  0.5720299999999999  0.15082  0.9716200000000003  1.0000
  C   C93       1.0  0.38056999999999996  0.17957  0.91871  1.0000
  C   C94       1.0  0.33029  0.23018  0.8730800000000002  1.0000
  C   C95       1.0  0.18598999999999996  0.2181  0.8667500000000002  1.0000
  C   C96       1.0  0.12939999999999996  0.26955  0.8228500000000002  1.0000
  C   C97       1.0  0.08894999999999999  0.4030799999999999  0.8740800000000002  1.0000
  C   C98       1.0  0.11274  0.49673  0.8787900000000002  1.0000
  C   C99       1.0  0.22428999999999993  0.52776  0.9017400000000002  1.0000
  C   C100      1.0  0.24032999999999993  0.61488  0.9071  1.0000
  C   C101      1.0  0.14317  0.6684399999999998  0.8901300000000002  1.0000
  C   C102      1.0  0.02074  0.55524  0.86277  1.0000
  C   C103      1.0  0.0017599999999999996  0.61537  0.46711000000000014  1.0000
  C   C104      1.0  0.9789199999999999  0.52349  0.47712  1.0000
  C   C105      1.0  0.03986  0.48784  0.51984  1.0000
  C   C106      1.0  0.02388  0.40221  0.5312800000000001  1.0000
  C   C107      1.0  0.09404  0.36106  0.57472  1.0000
  C   C108      1.0  0.9490399999999998  0.3518499999999999  0.49908000000000013  1.0000
  C   C109      1.0  0.90468  0.47235  0.44458  1.0000
  C   C110      1.0  0.8919899999999998  0.38575  0.45514000000000004  1.0000
  C   C111      1.0  0.8205799999999999  0.32661  0.41994  1.0000
  C   C112      1.0  0.4786399999999999  0.13447  0.2882  1.0000
  C   C113      1.0  0.3565499999999999  0.08441  0.28532  1.0000
  C   C114      1.0  0.3585299999999999  0.00428  0.26243  1.0000
  C   C115      1.0  0.24837999999999996  0.95428  0.26032  1.0000
  C   C116      1.0  0.13484  0.98502  0.28136000000000005  1.0000
  C   C117      1.0  0.13156  0.06578  0.30363  1.0000
  C   C118      1.0  0.24221999999999996  0.11543  0.30576  1.0000
  C   C119      1.0  0.25144  0.86749  0.23592000000000005  1.0000
  C   C120      1.0  0.01189  0.09619999999999997  0.32776  1.0000
  C   C121      1.0  0.006539999999999999  0.1147  0.4676300000000001  1.0000
  C   C122      1.0  0.06861  0.06628999999999997  0.5046100000000001  1.0000
  C   C123      1.0  0.04381  0.97963  0.50698  1.0000
  C   C124      1.0  0.95381  0.9439099999999998  0.47371000000000013  1.0000
  C   C125      1.0  0.89252  0.99764  0.43904000000000004  1.0000
  C   C126      1.0  0.9270299999999998  0.85009  0.4711  1.0000
  C   C127      1.0  0.11873999999999998  0.82081  0.4184500000000001  1.0000
  C   C128      1.0  0.1694  0.77022  0.3728200000000001  1.0000
  C   C129      1.0  0.31361  0.78288  0.36652  1.0000
  C   C130      1.0  0.3705099999999999  0.73159  0.3225900000000001  1.0000
  C   C131      1.0  0.40903  0.59846  0.3740400000000001  1.0000
  C   C132      1.0  0.38451  0.50499  0.37889  1.0000
  C   C133      1.0  0.2731  0.4742099999999999  0.40201000000000003  1.0000
  C   C134      1.0  0.25705  0.3871499999999999  0.40764  1.0000
  C   C135      1.0  0.3539399999999999  0.33339  0.39046000000000003  1.0000
  C   C136      1.0  0.47602  0.44626  0.36264  1.0000
  N   N1        1.0  0.41957999999999995  0.41944  0.56447  1.0000
  N   N2        1.0  0.9614199999999999  0.1375  0.6315500000000002  1.0000
  N   N3        1.0  0.4789399999999999  0.69038  0.57605  1.0000
  N   N4        1.0  0.8507299999999999  0.86255  0.6729200000000002  1.0000
  N   N5        1.0  0.08007  0.58002  0.06335  1.0000
  N   N6        1.0  0.53503  0.86086  0.1314  1.0000
  N   N7        1.0  0.020299999999999995  0.30898  0.07561000000000001  1.0000
  N   N8        1.0  0.6488699999999998  0.13625  0.17254000000000005  1.0000
  N   N9        1.0  0.58007  0.91999  0.9366500000000001  1.0000
  N   N10       1.0  0.035039999999999995  0.63915  0.8686  1.0000
  N   N11       1.0  0.52031  0.19102  0.92439  1.0000
  N   N12       1.0  0.14888  0.36375  0.8274600000000002  1.0000
  N   N13       1.0  0.91958  0.08055  0.43552000000000013  1.0000
  N   N14       1.0  0.46143999999999996  0.3625  0.3684500000000001  1.0000
  N   N15       1.0  0.9789399999999999  0.80962  0.4239500000000001  1.0000
  N   N16       1.0  0.35072999999999993  0.63745  0.3270800000000001  1.0000
  O   O1        1.0  0.24337  0.14145  0.6120200000000001  1.0000
  O   O2        1.0  0.34478999999999993  0.25173  0.5727700000000001  1.0000
  O   O3        1.0  0.67557  0.09216  0.40156  1.0000
  O   O4        1.0  0.57266  0.21622  0.41687  1.0000
  O   O5        1.0  0.42457999999999996  0.8503  0.56771  1.0000
  O   O6        1.0  0.58739  0.84509  0.51028  1.0000
  O   O7        1.0  0.97502  0.30004  0.68308  1.0000
  O   O8        1.0  0.07478  0.3922199999999999  0.7367  1.0000
  O   O9        1.0  0.66024  0.68196  0.7577100000000002  1.0000
  O   O10       1.0  0.85687  0.64669  0.7889400000000002  1.0000
  O   O11       1.0  0.5113  0.33217  0.64847  1.0000
  O   O12       1.0  0.41173999999999994  0.4496099999999999  0.67187  1.0000
  O   O13       1.0  0.25617999999999996  0.29974  0.67202  1.0000
  O   O14       1.0  0.26187  0.85495  0.11161000000000003  1.0000
  O   O15       1.0  0.16176  0.7462  0.07036  1.0000
  O   O16       1.0  0.82512  0.90783  0.90374  1.0000
  O   O17       1.0  0.9313  0.78386  0.91645  1.0000
  O   O18       1.0  0.0758  0.14949999999999994  0.06786  1.0000
  O   O19       1.0  0.90688  0.15091999999999994  0.01321  1.0000
  O   O20       1.0  0.5253699999999999  0.7039099999999998  0.1827  1.0000
  O   O21       1.0  0.42554  0.61196  0.23629000000000006  1.0000
  O   O22       1.0  0.84061  0.32112  0.25496  1.0000
  O   O23       1.0  0.64339  0.35433  0.28621  1.0000
  O   O24       1.0  0.9877499999999999  0.67127  0.14664  1.0000
  O   O25       1.0  0.08786  0.55406  0.16957  1.0000
  O   O26       1.0  0.24966  0.70071  0.16954  1.0000
  O   O27       1.0  0.7618599999999998  0.64506  0.8883800000000002  1.0000
  O   O28       1.0  0.6617299999999999  0.7537999999999998  0.9296300000000002  1.0000
  O   O29       1.0  0.32510999999999995  0.59217  0.09626000000000003  1.0000
  O   O30       1.0  0.4312899999999999  0.71614  0.08355000000000003  1.0000
  O   O31       1.0  0.57581  0.3505  0.9321300000000001  1.0000
  O   O32       1.0  0.4068899999999999  0.34908  0.9867900000000002  1.0000
  O   O33       1.0  0.02537  0.7961  0.8173  1.0000
  O   O34       1.0  0.92554  0.88805  0.7637000000000003  1.0000
  O   O35       1.0  0.34060999999999997  0.17889  0.74504  1.0000
  O   O36       1.0  0.14339  0.14566999999999994  0.71378  1.0000
  O   O37       1.0  0.4877699999999999  0.8287299999999997  0.8533500000000003  1.0000
  O   O38       1.0  0.58786  0.94594  0.8304300000000002  1.0000
  O   O39       1.0  0.74968  0.7993  0.8304600000000002  1.0000
  O   O40       1.0  0.7433899999999999  0.35856  0.38797000000000004  1.0000
  O   O41       1.0  0.8447999999999999  0.24826999999999994  0.4272200000000001  1.0000
  O   O42       1.0  0.17555  0.4078199999999999  0.59843  1.0000
  O   O43       1.0  0.07246  0.2838  0.58314  1.0000
  O   O44       1.0  0.9245799999999998  0.6497  0.43229000000000006  1.0000
  O   O45       1.0  0.08739  0.65491  0.4897200000000001  1.0000
  O   O46       1.0  0.4750299999999999  0.19995  0.31693  1.0000
  O   O47       1.0  0.57477  0.10776  0.2633  1.0000
  O   O48       1.0  0.16022  0.81809  0.24228  1.0000
  O   O49       1.0  0.3568699999999999  0.85332  0.21106000000000005  1.0000
  O   O50       1.0  0.0113  0.16781999999999994  0.35153  1.0000
  O   O51       1.0  0.91174  0.05038999999999998  0.32813  1.0000
  O   O52       1.0  0.75619  0.20026  0.3279700000000001  1.0000
