data_image0
_chemical_formula_structural       Zn12H92C168N20O48
_chemical_formula_sum              "Zn12 H92 C168 N20 O48"
_cell_length_a       10.18044
_cell_length_b       23.23318
_cell_length_c       26.803030000000003
_cell_angle_alpha    90.0
_cell_angle_beta     95.59805
_cell_angle_gamma    90.0

_space_group_name_H-M_alt    "P 1"
_space_group_IT_number       1

loop_
  _space_group_symop_operation_xyz
  'x, y, z'

loop_
  _atom_site_type_symbol
  _atom_site_label
  _atom_site_symmetry_multiplicity
  _atom_site_fract_x
  _atom_site_fract_y
  _atom_site_fract_z
  _atom_site_occupancy
  Zn  Zn1       1.0  0.3508  0.19247  0.27394  1.0000
  Zn  Zn2       1.0  0.03732  0.24677  0.1814  1.0000
  Zn  Zn3       1.0  0.37719  0.50688  0.0066  1.0000
  Zn  Zn4       1.0  0.1492  0.6924699999999999  0.22606000000000004  1.0000
  Zn  Zn5       1.0  0.46268  0.74677  0.31861  1.0000
  Zn  Zn6       1.0  0.12281  0.00688  0.49341000000000007  1.0000
  Zn  Zn7       1.0  0.6492000000000001  0.80753  0.7260600000000001  1.0000
  Zn  Zn8       1.0  0.96268  0.75323  0.8186100000000002  1.0000
  Zn  Zn9       1.0  0.62281  0.49312  0.9934100000000002  1.0000
  Zn  Zn10      1.0  0.8507999999999999  0.30753  0.7739500000000002  1.0000
  Zn  Zn11      1.0  0.53732  0.25323  0.6814000000000001  1.0000
  Zn  Zn12      1.0  0.87719  0.9931199999999999  0.5066  1.0000
  H   H1        1.0  0.3084799999999999  0.36654999999999993  0.10886  1.0000
  H   H2        1.0  0.72772  0.3565  0.09815000000000003  1.0000
  H   H3        1.0  0.54574  0.24395999999999998  0.19836000000000004  1.0000
  H   H4        1.0  0.7946  0.20811999999999997  0.2692  1.0000
  H   H5        1.0  0.68058  0.10653000000000001  0.39202  1.0000
  H   H6        1.0  0.09012000000000002  0.11674  0.36430000000000007  1.0000
  H   H7        1.0  0.4772600000000001  0.83966  0.8151000000000003  1.0000
  H   H8        1.0  0.73108  0.95186  0.7472600000000001  1.0000
  H   H9        1.0  0.61593  0.012469999999999998  0.82077  1.0000
  H   H10       1.0  0.33166  0.85962  0.86088  1.0000
  H   H11       1.0  0.21786  0.8721900000000001  0.93552  1.0000
  H   H12       1.0  0.41543  0.03428  0.9664300000000002  1.0000
  H   H13       1.0  0.5361  0.02157  0.89225  1.0000
  H   H14       1.0  0.21034000000000003  0.04929  0.0018700000000000001  1.0000
  H   H15       1.0  0.27451  0.86781  0.022310000000000003  1.0000
  H   H16       1.0  0.17312  0.21241000000000002  0.09296  1.0000
  H   H17       1.0  0.23139999999999997  0.12368  0.04846  1.0000
  H   H18       1.0  0.012479999999999998  0.026799999999999997  0.14993  1.0000
  H   H19       1.0  0.95888  0.12091999999999999  0.18982000000000002  1.0000
  H   H20       1.0  0.12983000000000003  0.8262200000000001  0.23502000000000006  1.0000
  H   H21       1.0  0.13812  0.9128199999999999  0.17930000000000004  1.0000
  H   H22       1.0  0.21743  0.79648  0.06018000000000001  1.0000
  H   H23       1.0  0.20748999999999998  0.7160400000000001  0.12058000000000003  1.0000
  H   H24       1.0  0.19152000000000002  0.86655  0.39114  1.0000
  H   H25       1.0  0.77228  0.8565000000000002  0.40186000000000005  1.0000
  H   H26       1.0  0.95426  0.7439600000000001  0.30164  1.0000
  H   H27       1.0  0.7053999999999999  0.70812  0.23080000000000003  1.0000
  H   H28       1.0  0.81942  0.60653  0.10798  1.0000
  H   H29       1.0  0.40988  0.61674  0.13570000000000004  1.0000
  H   H30       1.0  0.02273999999999999  0.33966  0.68491  1.0000
  H   H31       1.0  0.76891  0.45186  0.75274  1.0000
  H   H32       1.0  0.88407  0.51247  0.6792300000000002  1.0000
  H   H33       1.0  0.16833999999999996  0.35962  0.63913  1.0000
  H   H34       1.0  0.28213  0.37219  0.56449  1.0000
  H   H35       1.0  0.08457000000000003  0.53428  0.5335800000000002  1.0000
  H   H36       1.0  0.9638999999999999  0.52157  0.6077500000000001  1.0000
  H   H37       1.0  0.28966  0.54929  0.49814  1.0000
  H   H38       1.0  0.22548999999999997  0.36780999999999997  0.47769  1.0000
  H   H39       1.0  0.32688  0.71241  0.4070400000000001  1.0000
  H   H40       1.0  0.2686  0.62368  0.45154  1.0000
  H   H41       1.0  0.48752  0.5268  0.35007  1.0000
  H   H42       1.0  0.54112  0.62092  0.3101800000000001  1.0000
  H   H43       1.0  0.37016999999999994  0.32622  0.2649800000000001  1.0000
  H   H44       1.0  0.36187  0.41282  0.3207  1.0000
  H   H45       1.0  0.28257  0.29648  0.43982  1.0000
  H   H46       1.0  0.29251  0.21603999999999998  0.37942  1.0000
  H   H47       1.0  0.69152  0.63345  0.8911400000000003  1.0000
  H   H48       1.0  0.27227  0.6435  0.90186  1.0000
  H   H49       1.0  0.45426  0.75604  0.8016500000000002  1.0000
  H   H50       1.0  0.20539999999999997  0.79188  0.7308  1.0000
  H   H51       1.0  0.31941  0.8934699999999999  0.60798  1.0000
  H   H52       1.0  0.9098800000000001  0.88326  0.6357  1.0000
  H   H53       1.0  0.5227400000000002  0.16034  0.18491000000000005  1.0000
  H   H54       1.0  0.26891  0.04814000000000001  0.25274  1.0000
  H   H55       1.0  0.3840700000000001  0.9875300000000001  0.17923000000000006  1.0000
  H   H56       1.0  0.66834  0.14038  0.13913000000000006  1.0000
  H   H57       1.0  0.78214  0.12781  0.06449  1.0000
  H   H58       1.0  0.58457  0.96572  0.03357  1.0000
  H   H59       1.0  0.4639  0.97843  0.10775  1.0000
  H   H60       1.0  0.7896599999999999  0.95071  0.9981400000000002  1.0000
  H   H61       1.0  0.72548  0.13219  0.9776900000000002  1.0000
  H   H62       1.0  0.82688  0.7875900000000001  0.9070400000000002  1.0000
  H   H63       1.0  0.76859  0.87632  0.9515400000000002  1.0000
  H   H64       1.0  0.98752  0.9732  0.8500700000000002  1.0000
  H   H65       1.0  0.04112000000000003  0.87908  0.8101800000000002  1.0000
  H   H66       1.0  0.8701699999999999  0.17377999999999996  0.76498  1.0000
  H   H67       1.0  0.8618699999999999  0.08718  0.8207000000000002  1.0000
  H   H68       1.0  0.78257  0.20352  0.9398200000000001  1.0000
  H   H69       1.0  0.7925099999999999  0.28396  0.8794200000000002  1.0000
  H   H70       1.0  0.8084799999999999  0.13345  0.6088600000000002  1.0000
  H   H71       1.0  0.22772000000000003  0.1435  0.5981500000000001  1.0000
  H   H72       1.0  0.04574000000000006  0.25604  0.6983600000000002  1.0000
  H   H73       1.0  0.29460000000000003  0.29188  0.7692000000000002  1.0000
  H   H74       1.0  0.18058  0.39347  0.89203  1.0000
  H   H75       1.0  0.5901200000000001  0.38326  0.8643000000000002  1.0000
  H   H76       1.0  0.97726  0.66034  0.3151  1.0000
  H   H77       1.0  0.23109  0.54814  0.24726  1.0000
  H   H78       1.0  0.11593000000000002  0.48753  0.32077000000000006  1.0000
  H   H79       1.0  0.8316599999999998  0.64039  0.36087  1.0000
  H   H80       1.0  0.71786  0.62781  0.43552000000000013  1.0000
  H   H81       1.0  0.91543  0.4657200000000001  0.46643  1.0000
  H   H82       1.0  0.036100000000000035  0.47843  0.3922500000000001  1.0000
  H   H83       1.0  0.71034  0.45071  0.5018700000000001  1.0000
  H   H84       1.0  0.77451  0.63219  0.52232  1.0000
  H   H85       1.0  0.6731199999999999  0.28759  0.5929600000000002  1.0000
  H   H86       1.0  0.7314  0.37632  0.54846  1.0000
  H   H87       1.0  0.51248  0.4732  0.64993  1.0000
  H   H88       1.0  0.45887999999999995  0.37908  0.68982  1.0000
  H   H89       1.0  0.62983  0.67378  0.7350200000000001  1.0000
  H   H90       1.0  0.6381200000000001  0.58718  0.6793000000000002  1.0000
  H   H91       1.0  0.71743  0.7035199999999999  0.5601800000000001  1.0000
  H   H92       1.0  0.7074900000000001  0.78396  0.6205800000000002  1.0000
  C   C1        1.0  0.2935700000000001  0.27725  0.17489000000000005  1.0000
  C   C2        1.0  0.50736  0.4154  0.0635  1.0000
  C   C3        1.0  0.7763  0.2639  0.16093000000000005  1.0000
  C   C4        1.0  0.41348  0.30226  0.15544  1.0000
  C   C5        1.0  0.40377  0.3472199999999999  0.12052  1.0000
  C   C6        1.0  0.51728  0.36699999999999994  0.10028000000000002  1.0000
  C   C7        1.0  0.64  0.34116  0.11413000000000002  1.0000
  C   C8        1.0  0.64906  0.2954  0.14816000000000001  1.0000
  C   C9        1.0  0.53653  0.27717  0.16967000000000004  1.0000
  C   C10       1.0  0.05905000000000003  0.18743000000000004  0.28317000000000003  1.0000
  C   C11       1.0  0.58244  0.17521000000000003  0.315  1.0000
  C   C12       1.0  0.92769  0.06934  0.4264500000000001  1.0000
  C   C13       1.0  0.9542199999999998  0.16572  0.31394000000000005  1.0000
  C   C14       1.0  0.82186  0.18087  0.30154  1.0000
  C   C15       1.0  0.72353  0.15978  0.32982  1.0000
  C   C16       1.0  0.75742  0.12324  0.37051  1.0000
  C   C17       1.0  0.88993  0.10818000000000001  0.38313000000000014  1.0000
  C   C18       1.0  0.9878700000000001  0.12918  0.3547  1.0000
  C   C19       1.0  0.5317400000000001  0.87775  0.8065000000000002  1.0000
  C   C20       1.0  0.66151  0.9376700000000001  0.7727400000000001  1.0000
  C   C21       1.0  0.6052500000000001  0.96813  0.8090100000000002  1.0000
  C   C22       1.0  0.44643000000000005  0.93917  0.8718100000000002  1.0000
  C   C23       1.0  0.35427999999999993  0.8977  0.88399  1.0000
  C   C24       1.0  0.2885599999999999  0.90492  0.92669  1.0000
  C   C25       1.0  0.30946000000000007  0.95368  0.9575500000000002  1.0000
  C   C26       1.0  0.39639  0.99626  0.9431700000000002  1.0000
  C   C27       1.0  0.46540999999999993  0.989  0.9011400000000003  1.0000
  C   C28       1.0  0.16225  0.01204  0.07216  1.0000
  C   C29       1.0  0.20788000000000004  0.01046  0.024410000000000008  1.0000
  C   C30       1.0  0.24944  0.95798  0.0053500000000000015  1.0000
  C   C31       1.0  0.23891  0.90883  0.03511000000000001  1.0000
  C   C32       1.0  0.18914  0.9134  0.08192000000000003  1.0000
  C   C33       1.0  0.1383  0.17045  0.10402  1.0000
  C   C34       1.0  0.16979  0.12048  0.07927  1.0000
  C   C35       1.0  0.12561  0.06704  0.09547  1.0000
  C   C36       1.0  0.04849  0.06726  0.13614  1.0000
  C   C37       1.0  0.019790000000000012  0.11909999999999998  0.15866000000000005  1.0000
  C   C38       1.0  0.15036  0.82198  0.19612000000000004  1.0000
  C   C39       1.0  0.15459  0.86985  0.16516000000000006  1.0000
  C   C40       1.0  0.18069  0.86253  0.11508  1.0000
  C   C41       1.0  0.19953  0.80598  0.09864  1.0000
  C   C42       1.0  0.19407  0.76041  0.13208000000000003  1.0000
  C   C43       1.0  0.20642999999999997  0.77725  0.32512000000000013  1.0000
  C   C44       1.0  0.9926400000000001  0.9154  0.4365000000000001  1.0000
  C   C45       1.0  0.72369  0.7639  0.33907000000000004  1.0000
  C   C46       1.0  0.08652  0.80226  0.34456  1.0000
  C   C47       1.0  0.09623  0.84722  0.37948  1.0000
  C   C48       1.0  0.98272  0.867  0.39972  1.0000
  C   C49       1.0  0.8599999999999999  0.84116  0.3858700000000001  1.0000
  C   C50       1.0  0.85094  0.7954000000000001  0.35185  1.0000
  C   C51       1.0  0.96347  0.77717  0.3303300000000001  1.0000
  C   C52       1.0  0.44095  0.68743  0.21683  1.0000
  C   C53       1.0  0.91756  0.67521  0.185  1.0000
  C   C54       1.0  0.57231  0.56934  0.07355  1.0000
  C   C55       1.0  0.54578  0.66572  0.18606000000000006  1.0000
  C   C56       1.0  0.67814  0.68087  0.19846000000000003  1.0000
  C   C57       1.0  0.77647  0.65978  0.17018000000000005  1.0000
  C   C58       1.0  0.74258  0.62324  0.12949  1.0000
  C   C59       1.0  0.61007  0.60818  0.11687000000000003  1.0000
  C   C60       1.0  0.51213  0.62918  0.14531  1.0000
  C   C61       1.0  0.96825  0.37775000000000003  0.6935100000000002  1.0000
  C   C62       1.0  0.8384799999999999  0.43767  0.72726  1.0000
  C   C63       1.0  0.89475  0.46813  0.6910000000000002  1.0000
  C   C64       1.0  0.053570000000000055  0.43917000000000006  0.6281900000000002  1.0000
  C   C65       1.0  0.14571  0.39770000000000005  0.61602  1.0000
  C   C66       1.0  0.21143  0.40492  0.57332  1.0000
  C   C67       1.0  0.1905300000000001  0.45368  0.5424500000000002  1.0000
  C   C68       1.0  0.10361  0.4962599999999999  0.55684  1.0000
  C   C69       1.0  0.03459000000000003  0.489  0.5988600000000001  1.0000
  C   C70       1.0  0.33775  0.51204  0.42784  1.0000
  C   C71       1.0  0.29212  0.51046  0.4755900000000001  1.0000
  C   C72       1.0  0.25056000000000006  0.45798  0.4946500000000001  1.0000
  C   C73       1.0  0.26109000000000004  0.40883  0.46489000000000014  1.0000
  C   C74       1.0  0.3108600000000001  0.4134  0.4180800000000001  1.0000
  C   C75       1.0  0.3617  0.67045  0.39598  1.0000
  C   C76       1.0  0.33021000000000006  0.62048  0.4207400000000001  1.0000
  C   C77       1.0  0.37438  0.56704  0.4045300000000001  1.0000
  C   C78       1.0  0.45151  0.56726  0.36386000000000013  1.0000
  C   C79       1.0  0.48020999999999997  0.6191  0.34134  1.0000
  C   C80       1.0  0.3496399999999999  0.32198  0.30389  1.0000
  C   C81       1.0  0.34541  0.36985  0.33484  1.0000
  C   C82       1.0  0.31931  0.36252999999999996  0.38492  1.0000
  C   C83       1.0  0.30047000000000007  0.30598  0.4013600000000001  1.0000
  C   C84       1.0  0.30593000000000004  0.26041  0.3679200000000001  1.0000
  C   C85       1.0  0.70643  0.72275  0.82512  1.0000
  C   C86       1.0  0.49264  0.5846  0.9365000000000002  1.0000
  C   C87       1.0  0.22369000000000003  0.7361  0.8390700000000002  1.0000
  C   C88       1.0  0.5865200000000002  0.69774  0.8445700000000003  1.0000
  C   C89       1.0  0.5962300000000001  0.65278  0.8794800000000002  1.0000
  C   C90       1.0  0.4827199999999999  0.633  0.89972  1.0000
  C   C91       1.0  0.36000000000000004  0.65884  0.8858700000000003  1.0000
  C   C92       1.0  0.35094000000000003  0.7046  0.8518500000000002  1.0000
  C   C93       1.0  0.46346000000000004  0.72283  0.8303300000000002  1.0000
  C   C94       1.0  0.94095  0.81257  0.7168300000000001  1.0000
  C   C95       1.0  0.4175600000000001  0.82479  0.6850000000000003  1.0000
  C   C96       1.0  0.07231000000000001  0.93066  0.57355  1.0000
  C   C97       1.0  0.04576999999999999  0.83428  0.68606  1.0000
  C   C98       1.0  0.17814000000000005  0.81913  0.6984600000000002  1.0000
  C   C99       1.0  0.27647  0.84022  0.67018  1.0000
  C   C100      1.0  0.24258  0.8767600000000001  0.6295  1.0000
  C   C101      1.0  0.11006000000000005  0.89182  0.6168700000000003  1.0000
  C   C102      1.0  0.012130000000000063  0.87082  0.6453100000000003  1.0000
  C   C103      1.0  0.4682500000000001  0.12225  0.19350000000000006  1.0000
  C   C104      1.0  0.33849  0.06233  0.22726000000000005  1.0000
  C   C105      1.0  0.39475  0.03187  0.19100000000000006  1.0000
  C   C106      1.0  0.55357  0.06083  0.12819  1.0000
  C   C107      1.0  0.64571  0.1023  0.11602  1.0000
  C   C108      1.0  0.71143  0.09508  0.07332  1.0000
  C   C109      1.0  0.69054  0.04632  0.042450000000000015  1.0000
  C   C110      1.0  0.60361  0.0037399999999999994  0.05684000000000001  1.0000
  C   C111      1.0  0.53459  0.011  0.09886  1.0000
  C   C112      1.0  0.83775  0.98796  0.9278500000000002  1.0000
  C   C113      1.0  0.79212  0.9895399999999999  0.9756000000000001  1.0000
  C   C114      1.0  0.7505600000000001  0.04202  0.9946500000000003  1.0000
  C   C115      1.0  0.76109  0.09116999999999999  0.9648900000000002  1.0000
  C   C116      1.0  0.81086  0.0866  0.91808  1.0000
  C   C117      1.0  0.8617  0.82955  0.8959800000000001  1.0000
  C   C118      1.0  0.8301999999999999  0.8795199999999999  0.92074  1.0000
  C   C119      1.0  0.8743799999999999  0.9329599999999999  0.9045300000000002  1.0000
  C   C120      1.0  0.9515099999999999  0.93274  0.8638600000000001  1.0000
  C   C121      1.0  0.98021  0.8809  0.8413400000000001  1.0000
  C   C122      1.0  0.8496399999999998  0.17802000000000004  0.8038900000000002  1.0000
  C   C123      1.0  0.84541  0.13015  0.8348400000000002  1.0000
  C   C124      1.0  0.81931  0.13747  0.8849200000000003  1.0000
  C   C125      1.0  0.80046  0.19402  0.90136  1.0000
  C   C126      1.0  0.80593  0.23959  0.8679300000000002  1.0000
  C   C127      1.0  0.79357  0.22275  0.67489  1.0000
  C   C128      1.0  0.00736000000000006  0.0846  0.5635000000000002  1.0000
  C   C129      1.0  0.2763  0.2361  0.6609400000000002  1.0000
  C   C130      1.0  0.91348  0.19774  0.6554400000000002  1.0000
  C   C131      1.0  0.9037699999999999  0.15278  0.62052  1.0000
  C   C132      1.0  0.017280000000000004  0.133  0.60029  1.0000
  C   C133      1.0  0.13999  0.15884  0.61413  1.0000
  C   C134      1.0  0.14906000000000005  0.2046  0.6481600000000001  1.0000
  C   C135      1.0  0.03653000000000004  0.22282999999999997  0.6696700000000002  1.0000
  C   C136      1.0  0.55905  0.31257  0.78317  1.0000
  C   C137      1.0  0.08243999999999996  0.32479  0.815  1.0000
  C   C138      1.0  0.42768999999999996  0.43066  0.9264600000000001  1.0000
  C   C139      1.0  0.45422000000000007  0.33428  0.8139400000000002  1.0000
  C   C140      1.0  0.32186000000000003  0.31913  0.8015400000000003  1.0000
  C   C141      1.0  0.22353  0.34022  0.8298200000000001  1.0000
  C   C142      1.0  0.25741  0.37676  0.87051  1.0000
  C   C143      1.0  0.38993  0.39182  0.8831300000000002  1.0000
  C   C144      1.0  0.4878700000000001  0.37082  0.8547000000000001  1.0000
  C   C145      1.0  0.03174000000000002  0.62225  0.30650000000000005  1.0000
  C   C146      1.0  0.16151  0.56233  0.27274  1.0000
  C   C147      1.0  0.10525000000000002  0.53187  0.3090100000000001  1.0000
  C   C148      1.0  0.94643  0.56083  0.3718100000000001  1.0000
  C   C149      1.0  0.85428  0.6023  0.3839900000000001  1.0000
  C   C150      1.0  0.78857  0.59508  0.42668  1.0000
  C   C151      1.0  0.8094599999999998  0.54632  0.4575500000000001  1.0000
  C   C152      1.0  0.8963899999999999  0.50374  0.4431700000000001  1.0000
  C   C153      1.0  0.9654100000000001  0.511  0.40114  1.0000
  C   C154      1.0  0.66225  0.48795999999999995  0.5721600000000001  1.0000
  C   C155      1.0  0.70788  0.48954  0.5244100000000002  1.0000
  C   C156      1.0  0.7494399999999999  0.54202  0.50536  1.0000
  C   C157      1.0  0.7389099999999998  0.59117  0.53511  1.0000
  C   C158      1.0  0.6891300000000001  0.5866  0.5819300000000001  1.0000
  C   C159      1.0  0.63829  0.32955  0.60402  1.0000
  C   C160      1.0  0.6697899999999999  0.37951999999999997  0.57927  1.0000
  C   C161      1.0  0.6256100000000001  0.43296  0.5954700000000003  1.0000
  C   C162      1.0  0.54849  0.43273999999999996  0.63615  1.0000
  C   C163      1.0  0.51978  0.3809  0.65866  1.0000
  C   C164      1.0  0.65036  0.67802  0.6961200000000002  1.0000
  C   C165      1.0  0.65459  0.63015  0.66516  1.0000
  C   C166      1.0  0.68069  0.63747  0.6150800000000002  1.0000
  C   C167      1.0  0.6995300000000001  0.6940200000000001  0.59864  1.0000
  C   C168      1.0  0.69406  0.73959  0.6320800000000002  1.0000
  N   N1        1.0  0.52179  0.9295599999999999  0.8306300000000002  1.0000
  N   N2        1.0  0.61524  0.88157  0.7717600000000002  1.0000
  N   N3        1.0  0.15227  0.96439  0.10020000000000003  1.0000
  N   N4        1.0  0.06477000000000001  0.17015  0.14327000000000004  1.0000
  N   N5        1.0  0.17083000000000004  0.7680600000000001  0.18022000000000005  1.0000
  N   N6        1.0  0.9782100000000002  0.42956  0.6693700000000002  1.0000
  N   N7        1.0  0.88476  0.38157  0.7282400000000002  1.0000
  N   N8        1.0  0.34773  0.46439  0.3998000000000001  1.0000
  N   N9        1.0  0.43523  0.67015  0.3567300000000001  1.0000
  N   N10       1.0  0.32916  0.26806  0.31978  1.0000
  N   N11       1.0  0.4782100000000001  0.07044  0.16937  1.0000
  N   N12       1.0  0.38476000000000005  0.11843  0.22824000000000005  1.0000
  N   N13       1.0  0.8477299999999999  0.03561  0.8998000000000003  1.0000
  N   N14       1.0  0.93523  0.82985  0.8567300000000002  1.0000
  N   N15       1.0  0.8291599999999999  0.23194  0.8197800000000002  1.0000
  N   N16       1.0  0.021790000000000018  0.57044  0.3306300000000001  1.0000
  N   N17       1.0  0.11524000000000001  0.61843  0.2717600000000001  1.0000
  N   N18       1.0  0.65226  0.53561  0.6002  1.0000
  N   N19       1.0  0.56476  0.32985  0.6432700000000002  1.0000
  N   N20       1.0  0.6708300000000001  0.73194  0.6802200000000003  1.0000
  O   O1        1.0  0.30642  0.23699  0.20675000000000004  1.0000
  O   O2        1.0  0.17985  0.2955  0.15628  1.0000
  O   O3        1.0  0.3949099999999999  0.4401  0.055320000000000015  1.0000
  O   O4        1.0  0.6123  0.4283699999999999  0.043150000000000015  1.0000
  O   O5        1.0  0.88291  0.29403  0.15907000000000004  1.0000
  O   O6        1.0  0.7736199999999999  0.21136  0.17192  1.0000
  O   O7        1.0  0.17145  0.16294  0.28999  1.0000
  O   O8        1.0  0.026770000000000006  0.22872  0.25282000000000004  1.0000
  O   O9        1.0  0.55864  0.20876000000000003  0.27709  1.0000
  O   O10       1.0  0.4906600000000001  0.15415  0.3383200000000001  1.0000
  O   O11       1.0  0.05133  0.05982  0.43717  1.0000
  O   O12       1.0  0.8340100000000001  0.048519999999999994  0.4495300000000001  1.0000
  O   O13       1.0  0.19358  0.73699  0.29325  1.0000
  O   O14       1.0  0.32014  0.7955  0.34372000000000014  1.0000
  O   O15       1.0  0.10508999999999999  0.9401  0.4446800000000001  1.0000
  O   O16       1.0  0.8877  0.92837  0.45685  1.0000
  O   O17       1.0  0.61708  0.79403  0.3409300000000001  1.0000
  O   O18       1.0  0.72638  0.71136  0.3280800000000001  1.0000
  O   O19       1.0  0.32855000000000006  0.66294  0.21001000000000006  1.0000
  O   O20       1.0  0.47323  0.7287199999999999  0.24718  1.0000
  O   O21       1.0  0.94136  0.70876  0.22291000000000005  1.0000
  O   O22       1.0  0.00934  0.65415  0.16168  1.0000
  O   O23       1.0  0.44866999999999996  0.55982  0.06283  1.0000
  O   O24       1.0  0.66599  0.54852  0.050470000000000015  1.0000
  O   O25       1.0  0.69358  0.7630099999999999  0.79325  1.0000
  O   O26       1.0  0.82014  0.7045000000000001  0.8437200000000002  1.0000
  O   O27       1.0  0.60508  0.5599  0.94468  1.0000
  O   O28       1.0  0.38769000000000003  0.57164  0.9568500000000002  1.0000
  O   O29       1.0  0.11708000000000002  0.70597  0.8409300000000002  1.0000
  O   O30       1.0  0.22637000000000004  0.78864  0.8280900000000002  1.0000
  O   O31       1.0  0.8285499999999999  0.83706  0.7100100000000001  1.0000
  O   O32       1.0  0.9732199999999999  0.77128  0.7471800000000002  1.0000
  O   O33       1.0  0.44135  0.79124  0.72291  1.0000
  O   O34       1.0  0.50934  0.84585  0.6616800000000003  1.0000
  O   O35       1.0  0.9486599999999998  0.94018  0.5628300000000002  1.0000
  O   O36       1.0  0.16599  0.9514799999999999  0.55047  1.0000
  O   O37       1.0  0.80642  0.26301  0.7067500000000002  1.0000
  O   O38       1.0  0.67985  0.20449999999999996  0.65628  1.0000
  O   O39       1.0  0.89491  0.0599  0.5553300000000001  1.0000
  O   O40       1.0  0.11230000000000004  0.07163  0.5431500000000001  1.0000
  O   O41       1.0  0.38291  0.20597000000000001  0.6590800000000001  1.0000
  O   O42       1.0  0.27362000000000003  0.28864  0.6719200000000001  1.0000
  O   O43       1.0  0.67145  0.33706  0.78999  1.0000
  O   O44       1.0  0.5267700000000001  0.27128  0.7528200000000003  1.0000
  O   O45       1.0  0.058640000000000074  0.29124  0.7770900000000002  1.0000
  O   O46       1.0  0.99065  0.34585  0.8383200000000002  1.0000
  O   O47       1.0  0.5513300000000001  0.44018  0.9371700000000002  1.0000
  O   O48       1.0  0.334  0.45148  0.94953  1.0000
