data_image0
_chemical_formula_structural       Cu8H128C192S8N32
_chemical_formula_sum              "Cu8 H128 C192 S8 N32"
_cell_length_a       22.73272
_cell_length_b       22.73308
_cell_length_c       23.21027
_cell_angle_alpha    119.36154000000002
_cell_angle_beta     119.36447
_cell_angle_gamma    89.95204999999999

_space_group_name_H-M_alt    "P 1"
_space_group_IT_number       1

loop_
  _space_group_symop_operation_xyz
  'x, y, z'

loop_
  _atom_site_type_symbol
  _atom_site_label
  _atom_site_symmetry_multiplicity
  _atom_site_fract_x
  _atom_site_fract_y
  _atom_site_fract_z
  _atom_site_occupancy
  Cu  Cu1       1.0  0.94686  0.69682  0.24972  1.0000
  Cu  Cu2       1.0  0.3031899999999999  0.05314000000000002  0.25027  1.0000
  Cu  Cu3       1.0  0.05298000000000009  0.9470400000000001  0.75  1.0000
  Cu  Cu4       1.0  0.69696  0.30303  0.74999  1.0000
  Cu  Cu5       1.0  0.053140000000000014  0.30318  0.75027  1.0000
  Cu  Cu6       1.0  0.6968199999999998  0.94686  0.74972  1.0000
  Cu  Cu7       1.0  0.9470199999999999  0.05295999999999998  0.24999  1.0000
  Cu  Cu8       1.0  0.30304  0.69697  0.25  1.0000
  H   H1        1.0  0.94703  0.82481  0.3827299999999999  1.0000
  H   H2        1.0  0.8686399999999999  0.85739  0.42959999999999987  1.0000
  H   H3        1.0  0.7165099999999998  0.6473399999999999  0.22913  1.0000
  H   H4        1.0  0.8030200000000001  0.62333  0.19279  1.0000
  H   H5        1.0  0.8302299999999999  0.7547500000000001  0.48776  1.0000
  H   H6        1.0  0.94662  0.80914  0.61947  1.0000
  H   H7        1.0  0.9478799999999998  0.012719999999999987  0.67492  1.0000
  H   H8        1.0  0.8293699999999999  0.96663  0.54816  1.0000
  H   H9        1.0  0.43599999999999994  0.05809000000000001  0.38291  1.0000
  H   H10       1.0  0.5612399999999999  0.0722  0.42957  1.0000
  H   H11       1.0  0.51282  0.08178999999999999  0.22929  1.0000
  H   H12       1.0  0.38994  0.06967999999999996  0.19301999999999994  1.0000
  H   H13       1.0  0.65746  0.23327  0.48816  1.0000
  H   H14       1.0  0.6731399999999998  0.3104199999999999  0.6199799999999998  1.0000
  H   H15       1.0  0.7273  0.16223  0.6750499999999999  1.0000
  H   H16       1.0  0.71875  0.08154000000000003  0.54815  1.0000
  H   H17       1.0  0.05813000000000001  0.9470899999999999  0.88266  1.0000
  H   H18       1.0  0.07218999999999995  0.8686  0.92943  1.0000
  H   H19       1.0  0.08182000000000002  0.71636  0.7292  1.0000
  H   H20       1.0  0.06977999999999997  0.8029500000000002  0.69293  1.0000
  H   H21       1.0  0.23302999999999996  0.83044  0.9879200000000001  1.0000
  H   H22       1.0  0.31022  0.94684  0.11957000000000001  1.0000
  H   H23       1.0  0.16219  0.94801  0.17496  1.0000
  H   H24       1.0  0.08162  0.82949  0.04829  1.0000
  H   H25       1.0  0.8247599999999998  0.43576  0.8827899999999999  1.0000
  H   H26       1.0  0.85743  0.56104  0.9297  1.0000
  H   H27       1.0  0.64754  0.51301  0.72941  1.0000
  H   H28       1.0  0.6233  0.39005999999999996  0.69294  1.0000
  H   H29       1.0  0.75473  0.6573399999999999  0.98773  1.0000
  H   H30       1.0  0.8092399999999998  0.67312  0.1196  1.0000
  H   H31       1.0  0.012749999999999994  0.72737  0.17522  1.0000
  H   H32       1.0  0.96663  0.71873  0.04829  1.0000
  H   H33       1.0  0.05289999999999999  0.94186  0.6173  1.0000
  H   H34       1.0  0.13138000000000002  0.92782  0.57055  1.0000
  H   H35       1.0  0.28365  0.91818  0.77081  1.0000
  H   H36       1.0  0.19706999999999988  0.93019  0.80704  1.0000
  H   H37       1.0  0.16955999999999993  0.76696  0.51207  1.0000
  H   H38       1.0  0.05315000000000001  0.68976  0.38039  1.0000
  H   H39       1.0  0.05199999999999999  0.8378200000000001  0.325  1.0000
  H   H40       1.0  0.17053999999999994  0.9184  0.45173  1.0000
  H   H41       1.0  0.56426  0.17526  0.6172499999999999  1.0000
  H   H42       1.0  0.43897  0.14258000000000007  0.5703  1.0000
  H   H43       1.0  0.48699000000000003  0.35244  0.77057  1.0000
  H   H44       1.0  0.60996  0.37670000000000003  0.80709  1.0000
  H   H45       1.0  0.34268  0.24529  0.51228  1.0000
  H   H46       1.0  0.3269  0.19083  0.38045  1.0000
  H   H47       1.0  0.27265  0.9872699999999999  0.32479  1.0000
  H   H48       1.0  0.28127  0.033339999999999974  0.45168  1.0000
  H   H49       1.0  0.94194  0.56399  0.11708  1.0000
  H   H50       1.0  0.9277899999999998  0.43876  0.07043  1.0000
  H   H51       1.0  0.9181999999999999  0.48719  0.27069  1.0000
  H   H52       1.0  0.9303499999999998  0.61006  0.30695  1.0000
  H   H53       1.0  0.76676  0.34253  0.01185  1.0000
  H   H54       1.0  0.6895699999999999  0.32685  0.88  1.0000
  H   H55       1.0  0.83772  0.27269  0.82493  1.0000
  H   H56       1.0  0.9184399999999998  0.28125  0.95186  1.0000
  H   H57       1.0  0.17522  0.052980000000000006  0.11727  1.0000
  H   H58       1.0  0.14261  0.13139  0.07039999999999999  1.0000
  H   H59       1.0  0.35265999999999986  0.28351  0.27087  1.0000
  H   H60       1.0  0.3766999999999999  0.19698000000000002  0.30722  1.0000
  H   H61       1.0  0.24523000000000003  0.16975  0.01221  1.0000
  H   H62       1.0  0.19082  0.053360000000000025  0.88053  1.0000
  H   H63       1.0  0.9872599999999998  0.05212000000000003  0.82511  1.0000
  H   H64       1.0  0.033380000000000035  0.17062000000000008  0.95183  1.0000
  H   H65       1.0  0.052979999999999985  0.17519000000000007  0.61726  1.0000
  H   H66       1.0  0.13137  0.14261  0.5704  1.0000
  H   H67       1.0  0.2834999999999999  0.35266  0.77086  1.0000
  H   H68       1.0  0.19698  0.37667  0.80721  1.0000
  H   H69       1.0  0.16976999999999995  0.24525  0.51224  1.0000
  H   H70       1.0  0.053380000000000025  0.19086  0.38053  1.0000
  H   H71       1.0  0.05212000000000001  0.98728  0.32507  1.0000
  H   H72       1.0  0.17064  0.03337  0.45183  1.0000
  H   H73       1.0  0.564  0.94191  0.61709  1.0000
  H   H74       1.0  0.43876999999999994  0.9278  0.57042  1.0000
  H   H75       1.0  0.48718999999999996  0.91821  0.7707  1.0000
  H   H76       1.0  0.61007  0.9303200000000001  0.80697  1.0000
  H   H77       1.0  0.34254  0.76673  0.51183  1.0000
  H   H78       1.0  0.32687  0.68958  0.38002  1.0000
  H   H79       1.0  0.2727  0.8377700000000001  0.32495  1.0000
  H   H80       1.0  0.28126  0.91846  0.45185  1.0000
  H   H81       1.0  0.94188  0.05291  0.11734  1.0000
  H   H82       1.0  0.92781  0.1314  0.07055999999999997  1.0000
  H   H83       1.0  0.91818  0.28364  0.2708  1.0000
  H   H84       1.0  0.93023  0.19705  0.30707  1.0000
  H   H85       1.0  0.76697  0.16956  0.01207  1.0000
  H   H86       1.0  0.6897799999999998  0.05316000000000003  0.88043  1.0000
  H   H87       1.0  0.8378099999999998  0.05198999999999995  0.82503  1.0000
  H   H88       1.0  0.91839  0.17051000000000008  0.95171  1.0000
  H   H89       1.0  0.17523999999999998  0.56424  0.11720999999999997  1.0000
  H   H90       1.0  0.14257  0.4389600000000001  0.0703  1.0000
  H   H91       1.0  0.35245999999999994  0.48699000000000003  0.27058  1.0000
  H   H92       1.0  0.37671  0.6099399999999999  0.30706  1.0000
  H   H93       1.0  0.24528  0.34266  0.01227  1.0000
  H   H94       1.0  0.19077000000000002  0.32688  0.8804  1.0000
  H   H95       1.0  0.98725  0.27262999999999993  0.82477  1.0000
  H   H96       1.0  0.03338000000000003  0.28127000000000013  0.95171  1.0000
  H   H97       1.0  0.9471  0.05813999999999999  0.38269  1.0000
  H   H98       1.0  0.86862  0.07217999999999997  0.42944  1.0000
  H   H99       1.0  0.71636  0.08181999999999998  0.22919  1.0000
  H   H100      1.0  0.80294  0.06980999999999998  0.19294999999999995  1.0000
  H   H101      1.0  0.83045  0.23304  0.48792  1.0000
  H   H102      1.0  0.94685  0.31024  0.61961  1.0000
  H   H103      1.0  0.948  0.16217999999999994  0.67499  1.0000
  H   H104      1.0  0.8294699999999999  0.0816  0.54827  1.0000
  H   H105      1.0  0.43573999999999996  0.82474  0.38275  1.0000
  H   H106      1.0  0.56103  0.85742  0.4297  1.0000
  H   H107      1.0  0.51302  0.64755  0.22942  1.0000
  H   H108      1.0  0.39005  0.62329  0.19290999999999994  1.0000
  H   H109      1.0  0.65733  0.75471  0.4877099999999999  1.0000
  H   H110      1.0  0.6730999999999999  0.8091699999999998  0.6195499999999998  1.0000
  H   H111      1.0  0.72735  0.01273000000000002  0.67521  1.0000
  H   H112      1.0  0.7187399999999999  0.96666  0.54832  1.0000
  H   H113      1.0  0.05806999999999987  0.43600999999999995  0.8829199999999998  1.0000
  H   H114      1.0  0.07221000000000002  0.5612400000000001  0.92957  1.0000
  H   H115      1.0  0.08180000000000001  0.51281  0.7293  1.0000
  H   H116      1.0  0.06965999999999997  0.38994  0.69304  1.0000
  H   H117      1.0  0.23324999999999987  0.65747  0.98815  1.0000
  H   H118      1.0  0.31043  0.67315  0.11999  1.0000
  H   H119      1.0  0.16228  0.7273100000000001  0.17506  1.0000
  H   H120      1.0  0.08156  0.71875  0.04813  1.0000
  H   H121      1.0  0.8247899999999999  0.94702  0.88272  1.0000
  H   H122      1.0  0.85739  0.86861  0.92959  1.0000
  H   H123      1.0  0.6473399999999998  0.7164900000000001  0.72912  1.0000
  H   H124      1.0  0.62331  0.8030199999999998  0.69278  1.0000
  H   H125      1.0  0.7547799999999998  0.8302499999999999  0.9877899999999998  1.0000
  H   H126      1.0  0.80918  0.94664  0.11945999999999998  1.0000
  H   H127      1.0  0.012739999999999996  0.94788  0.17489  1.0000
  H   H128      1.0  0.9666300000000002  0.82938  0.04817  1.0000
  C   C1        1.0  0.89581  0.78665  0.35102  1.0000
  C   C2        1.0  0.85151  0.80446  0.37719999999999987  1.0000
  C   C3        1.0  0.7836999999999997  0.75511  0.3346  1.0000
  C   C4        1.0  0.7669199999999999  0.68869  0.2653499999999999  1.0000
  C   C5        1.0  0.8150599999999999  0.67494  0.24433  1.0000
  C   C6        1.0  0.7343999999999999  0.77116  0.3571  1.0000
  C   C7        1.0  0.7472299999999997  0.82252  0.43221  1.0000
  C   C8        1.0  0.8186899999999998  0.8560600000000002  0.50728  1.0000
  C   C9        1.0  0.8545499999999999  0.81225  0.52831  1.0000
  C   C10       1.0  0.9194199999999999  0.8422  0.60099  1.0000
  C   C11       1.0  0.9194  0.95584  0.63271  1.0000
  C   C12       1.0  0.8532299999999999  0.9298200000000001  0.5617599999999999  1.0000
  C   C13       1.0  0.45542  0.06452  0.35115  1.0000
  C   C14       1.0  0.52584  0.07273999999999999  0.37722  1.0000
  C   C15       1.0  0.55095  0.07937  0.33456  1.0000
  C   C16       1.0  0.49854  0.07669999999999998  0.26544  1.0000
  C   C17       1.0  0.42941  0.06955999999999998  0.24450999999999998  1.0000
  C   C18       1.0  0.62273  0.08580999999999996  0.35709  1.0000
  C   C19       1.0  0.68497  0.10976000000000004  0.43228  1.0000
  C   C20       1.0  0.68852  0.15128000000000005  0.50734  1.0000
  C   C21       1.0  0.6736999999999999  0.21613  0.52852  1.0000
  C   C22       1.0  0.6815199999999998  0.25875  0.60121  1.0000
  C   C23       1.0  0.71324  0.17677  0.63272  1.0000
  C   C24       1.0  0.70843  0.1319299999999999  0.5617499999999997  1.0000
  C   C25       1.0  0.06451999999999997  0.8958200000000001  0.85097  1.0000
  C   C26       1.0  0.07279000000000001  0.85152  0.87711  1.0000
  C   C27       1.0  0.07951  0.78366  0.83458  1.0000
  C   C28       1.0  0.07675999999999991  0.76685  0.7654  1.0000
  C   C29       1.0  0.06959000000000003  0.815  0.74438  1.0000
  C   C30       1.0  0.08590000000000006  0.7344200000000001  0.85715  1.0000
  C   C31       1.0  0.10975  0.7473000000000001  0.9323  1.0000
  C   C32       1.0  0.15128  0.81877  0.007409999999999998  1.0000
  C   C33       1.0  0.21604999999999996  0.8546799999999999  0.028439999999999993  1.0000
  C   C34       1.0  0.25877  0.91957  0.10110999999999998  1.0000
  C   C35       1.0  0.17691999999999994  0.91951  0.13281999999999997  1.0000
  C   C36       1.0  0.132  0.85334  0.06187000000000001  1.0000
  C   C37       1.0  0.78661  0.45530999999999994  0.85112  1.0000
  C   C38       1.0  0.8045299999999999  0.52574  0.87728  1.0000
  C   C39       1.0  0.7552299999999997  0.5509399999999999  0.8346299999999999  1.0000
  C   C40       1.0  0.6887699999999999  0.4986099999999999  0.7654799999999999  1.0000
  C   C41       1.0  0.67491  0.42949  0.7445  1.0000
  C   C42       1.0  0.77126  0.6226699999999997  0.85707  1.0000
  C   C43       1.0  0.82255  0.6849  0.93221  1.0000
  C   C44       1.0  0.8560299999999998  0.68842  0.00723  1.0000
  C   C45       1.0  0.8122399999999997  0.6736  0.02825  1.0000
  C   C46       1.0  0.84223  0.68146  0.10094  1.0000
  C   C47       1.0  0.9558499999999999  0.7132200000000001  0.13275  1.0000
  C   C48       1.0  0.9297999999999998  0.70839  0.061799999999999994  1.0000
  C   C49       1.0  0.10417999999999987  0.9354599999999998  0.6490099999999998  1.0000
  C   C50       1.0  0.14847999999999997  0.9272100000000001  0.62287  1.0000
  C   C51       1.0  0.21635000000000001  0.92051  0.66542  1.0000
  C   C52       1.0  0.23314999999999994  0.9232300000000001  0.73459  1.0000
  C   C53       1.0  0.18500000000000005  0.93039  0.7556  1.0000
  C   C54       1.0  0.2655799999999999  0.9141100000000001  0.64285  1.0000
  C   C55       1.0  0.25268999999999997  0.89024  0.56769  1.0000
  C   C56       1.0  0.18122  0.84872  0.49259000000000003  1.0000
  C   C57       1.0  0.14531  0.7839400000000001  0.47156  1.0000
  C   C58       1.0  0.08044000000000003  0.74123  0.39887  1.0000
  C   C59       1.0  0.08050000000000002  0.8231  0.36716  1.0000
  C   C60       1.0  0.14666  0.86802  0.43812  1.0000
  C   C61       1.0  0.54471  0.21341  0.6489  1.0000
  C   C62       1.0  0.4742699999999999  0.1954799999999999  0.6227199999999999  1.0000
  C   C63       1.0  0.44905  0.24477000000000002  0.66535  1.0000
  C   C64       1.0  0.50139  0.31122  0.73451  1.0000
  C   C65       1.0  0.5705299999999998  0.3251  0.75552  1.0000
  C   C66       1.0  0.37732  0.22873999999999997  0.64292  1.0000
  C   C67       1.0  0.31509999999999994  0.17743  0.56778  1.0000
  C   C68       1.0  0.31156999999999996  0.14395999999999998  0.49274999999999997  1.0000
  C   C69       1.0  0.3264  0.18777  0.47176  1.0000
  C   C70       1.0  0.31854  0.1578  0.39907  1.0000
  C   C71       1.0  0.28678  0.04417000000000004  0.36725  1.0000
  C   C72       1.0  0.29159  0.07019000000000003  0.43819  1.0000
  C   C73       1.0  0.9355  0.54458  0.14883  1.0000
  C   C74       1.0  0.92726  0.47416  0.12278  1.0000
  C   C75       1.0  0.92063  0.44904  0.16543  1.0000
  C   C76       1.0  0.92331  0.50146  0.23454  1.0000
  C   C77       1.0  0.93045  0.57058  0.25546  1.0000
  C   C78       1.0  0.9141799999999999  0.37727  0.14291  1.0000
  C   C79       1.0  0.8902599999999999  0.31504  0.06773  1.0000
  C   C80       1.0  0.84874  0.3115  0.99267  1.0000
  C   C81       1.0  0.7838799999999998  0.32631  0.97148  1.0000
  C   C82       1.0  0.7412499999999999  0.31848  0.89878  1.0000
  C   C83       1.0  0.82321  0.28677  0.86729  1.0000
  C   C84       1.0  0.8680699999999997  0.29159  0.9382599999999998  1.0000
  C   C85       1.0  0.21336  0.1042  0.14898  1.0000
  C   C86       1.0  0.19554  0.14849  0.1228  1.0000
  C   C87       1.0  0.2449  0.21630000000000002  0.1654  1.0000
  C   C88       1.0  0.31132  0.23309  0.23466  1.0000
  C   C89       1.0  0.32508  0.18495  0.25569  1.0000
  C   C90       1.0  0.22884999999999997  0.2656  0.14289  1.0000
  C   C91       1.0  0.17749  0.25278  0.06779  1.0000
  C   C92       1.0  0.14393999999999993  0.18132000000000004  0.9927099999999999  1.0000
  C   C93       1.0  0.1877300000000001  0.14545  0.9716700000000001  1.0000
  C   C94       1.0  0.15776999999999997  0.08057  0.89899  1.0000
  C   C95       1.0  0.04414999999999997  0.08060000000000002  0.86729  1.0000
  C   C96       1.0  0.07018000000000002  0.14676999999999993  0.93823  1.0000
  C   C97       1.0  0.10419999999999999  0.21335  0.64897  1.0000
  C   C98       1.0  0.14849  0.19553999999999996  0.6228  1.0000
  C   C99       1.0  0.2162999999999999  0.24489  0.66539  1.0000
  C   C100      1.0  0.23308  0.3113100000000001  0.73465  1.0000
  C   C101      1.0  0.18494  0.32506  0.75567  1.0000
  C   C102      1.0  0.26561  0.22883999999999993  0.6429  1.0000
  C   C103      1.0  0.25276999999999983  0.17747999999999986  0.5677899999999998  1.0000
  C   C104      1.0  0.18130999999999994  0.14393999999999998  0.49271999999999994  1.0000
  C   C105      1.0  0.14545999999999995  0.18775  0.47168  1.0000
  C   C106      1.0  0.08057999999999996  0.15780000000000005  0.399  1.0000
  C   C107      1.0  0.08060999999999997  0.04415999999999997  0.3672799999999999  1.0000
  C   C108      1.0  0.14677  0.07018000000000003  0.43824  1.0000
  C   C109      1.0  0.54459  0.9354800000000001  0.64885  1.0000
  C   C110      1.0  0.47417  0.92726  0.62277  1.0000
  C   C111      1.0  0.44905  0.92063  0.66544  1.0000
  C   C112      1.0  0.5014699999999997  0.9233  0.7345499999999998  1.0000
  C   C113      1.0  0.57059  0.93044  0.75548  1.0000
  C   C114      1.0  0.37728  0.9141900000000001  0.64291  1.0000
  C   C115      1.0  0.3150299999999999  0.89024  0.56771  1.0000
  C   C116      1.0  0.3114799999999999  0.84872  0.49266  1.0000
  C   C117      1.0  0.32631  0.78387  0.47147  1.0000
  C   C118      1.0  0.3184799999999999  0.74125  0.39878  1.0000
  C   C119      1.0  0.28676999999999997  0.82323  0.3672799999999999  1.0000
  C   C120      1.0  0.29158  0.86807  0.43825  1.0000
  C   C121      1.0  0.9354799999999998  0.10418  0.14902999999999997  1.0000
  C   C122      1.0  0.9272099999999999  0.14848  0.12287999999999999  1.0000
  C   C123      1.0  0.9205  0.21634  0.16541  1.0000
  C   C124      1.0  0.92324  0.23315  0.23459999999999995  1.0000
  C   C125      1.0  0.9304199999999998  0.18500000000000003  0.25562  1.0000
  C   C126      1.0  0.9141  0.26558  0.14284  1.0000
  C   C127      1.0  0.8902599999999999  0.2527  0.0677  1.0000
  C   C128      1.0  0.8487199999999998  0.18122999999999997  0.9925899999999999  1.0000
  C   C129      1.0  0.7839499999999998  0.1453200000000001  0.97156  1.0000
  C   C130      1.0  0.7412399999999998  0.08042999999999989  0.8988799999999998  1.0000
  C   C131      1.0  0.8230899999999999  0.08049000000000003  0.86717  1.0000
  C   C132      1.0  0.8680099999999997  0.1466599999999999  0.9381199999999997  1.0000
  C   C133      1.0  0.21339999999999995  0.54469  0.14887  1.0000
  C   C134      1.0  0.19548  0.47426  0.12270999999999999  1.0000
  C   C135      1.0  0.24476999999999993  0.44906  0.16536  1.0000
  C   C136      1.0  0.31123999999999996  0.50139  0.23451  1.0000
  C   C137      1.0  0.3251  0.57051  0.2554999999999999  1.0000
  C   C138      1.0  0.22874  0.37732999999999994  0.14291999999999996  1.0000
  C   C139      1.0  0.17744999999999997  0.31510000000000005  0.06778  1.0000
  C   C140      1.0  0.14396999999999988  0.31158  0.99276  1.0000
  C   C141      1.0  0.1877599999999999  0.3264  0.97175  1.0000
  C   C142      1.0  0.15777  0.31853999999999993  0.89905  1.0000
  C   C143      1.0  0.04414999999999986  0.28677999999999987  0.8672499999999997  1.0000
  C   C144      1.0  0.07020000000000004  0.2916100000000001  0.9382  1.0000
  C   C145      1.0  0.8958299999999999  0.06454  0.35099  1.0000
  C   C146      1.0  0.8515299999999999  0.07278999999999994  0.3771299999999999  1.0000
  C   C147      1.0  0.78366  0.07949  0.33458  1.0000
  C   C148      1.0  0.76686  0.07677000000000003  0.26541  1.0000
  C   C149      1.0  0.81501  0.06961  0.2444  1.0000
  C   C150      1.0  0.7344199999999999  0.08588999999999997  0.35714999999999997  1.0000
  C   C151      1.0  0.7473099999999999  0.10976000000000001  0.4323  1.0000
  C   C152      1.0  0.81878  0.15127999999999991  0.5074099999999998  1.0000
  C   C153      1.0  0.85469  0.21606000000000003  0.52843  1.0000
  C   C154      1.0  0.91957  0.25877  0.60112  1.0000
  C   C155      1.0  0.9195  0.1769  0.63284  1.0000
  C   C156      1.0  0.85334  0.13198000000000004  0.56187  1.0000
  C   C157      1.0  0.4553  0.78659  0.3511  1.0000
  C   C158      1.0  0.5257399999999999  0.80452  0.3772699999999999  1.0000
  C   C159      1.0  0.55095  0.75523  0.3346399999999999  1.0000
  C   C160      1.0  0.49861  0.68878  0.26548  1.0000
  C   C161      1.0  0.42948  0.6749  0.24446999999999997  1.0000
  C   C162      1.0  0.62269  0.77126  0.35708  1.0000
  C   C163      1.0  0.6849099999999999  0.82257  0.43221  1.0000
  C   C164      1.0  0.6884399999999999  0.85604  0.50724  1.0000
  C   C165      1.0  0.67361  0.81223  0.52824  1.0000
  C   C166      1.0  0.6814599999999998  0.8422  0.60092  1.0000
  C   C167      1.0  0.7132299999999999  0.95583  0.63275  1.0000
  C   C168      1.0  0.7084099999999999  0.92981  0.56181  1.0000
  C   C169      1.0  0.06450999999999997  0.4554199999999999  0.8511599999999999  1.0000
  C   C170      1.0  0.07274000000000003  0.52584  0.87722  1.0000
  C   C171      1.0  0.07936999999999993  0.55096  0.83456  1.0000
  C   C172      1.0  0.0767  0.49854  0.76545  1.0000
  C   C173      1.0  0.06956000000000002  0.42942  0.74454  1.0000
  C   C174      1.0  0.08582  0.6227299999999998  0.85708  1.0000
  C   C175      1.0  0.10974999999999999  0.68496  0.93227  1.0000
  C   C176      1.0  0.15127  0.6885  0.00732  1.0000
  C   C177      1.0  0.21613  0.67369  0.02852  1.0000
  C   C178      1.0  0.25876  0.68152  0.10121  1.0000
  C   C179      1.0  0.17679  0.71323  0.1327  1.0000
  C   C180      1.0  0.13192999999999996  0.70841  0.061739999999999996  1.0000
  C   C181      1.0  0.7866399999999998  0.8958000000000002  0.8510099999999998  1.0000
  C   C182      1.0  0.8044599999999998  0.85151  0.87719  1.0000
  C   C183      1.0  0.75511  0.7837  0.8346  1.0000
  C   C184      1.0  0.6886799999999998  0.7669100000000001  0.7653299999999998  1.0000
  C   C185      1.0  0.67492  0.81505  0.74431  1.0000
  C   C186      1.0  0.77116  0.7344000000000002  0.85711  1.0000
  C   C187      1.0  0.82252  0.7472200000000001  0.93221  1.0000
  C   C188      1.0  0.8560599999999998  0.81868  0.00728  1.0000
  C   C189      1.0  0.81227  0.8545500000000001  0.02833  1.0000
  C   C190      1.0  0.84223  0.91943  0.101  1.0000
  C   C191      1.0  0.9558599999999999  0.9194  0.13270999999999994  1.0000
  C   C192      1.0  0.92982  0.8532300000000002  0.06176  1.0000
  S   S1        1.0  0.6430699999999999  0.7241  0.28619  1.0000
  S   S2        1.0  0.6430899999999998  0.06193999999999996  0.28619999999999995  1.0000
  S   S3        1.0  0.06197000000000001  0.6431  0.7862  1.0000
  S   S4        1.0  0.72412  0.6430799999999999  0.7862  1.0000
  S   S5        1.0  0.35690999999999995  0.9380600000000001  0.7138  1.0000
  S   S6        1.0  0.35692999999999997  0.2759000000000001  0.71381  1.0000
  S   S7        1.0  0.9380399999999998  0.35690000000000005  0.21379  1.0000
  S   S8        1.0  0.27589  0.35692  0.21379  1.0000
  N   N1        1.0  0.8797499999999998  0.7224200000000001  0.28538  1.0000
  N   N2        1.0  0.95279  0.9136200000000001  0.65387  1.0000
  N   N3        1.0  0.4057799999999999  0.06306  0.2855  1.0000
  N   N4        1.0  0.701  0.24014999999999995  0.65399  1.0000
  N   N5        1.0  0.06311999999999998  0.87971  0.78536  1.0000
  N   N6        1.0  0.24028  0.9529  0.15402  1.0000
  N   N7        1.0  0.72236  0.4057799999999999  0.7855  1.0000
  N   N8        1.0  0.91365  0.70093  0.15383  1.0000
  N   N9        1.0  0.12028  0.93686  0.71462  1.0000
  N   N10       1.0  0.04712000000000001  0.7597399999999999  0.34597  1.0000
  N   N11       1.0  0.59424  0.27766  0.71453  1.0000
  N   N12       1.0  0.29907  0.08639000000000002  0.34617  1.0000
  N   N13       1.0  0.93695  0.59422  0.21447  1.0000
  N   N14       1.0  0.7598499999999999  0.2990199999999999  0.84601  1.0000
  N   N15       1.0  0.27759999999999996  0.12027  0.21463  1.0000
  N   N16       1.0  0.08634999999999987  0.04719999999999984  0.8461099999999998  1.0000
  N   N17       1.0  0.12024999999999997  0.27758  0.71461  1.0000
  N   N18       1.0  0.047209999999999995  0.08638000000000003  0.34613  1.0000
  N   N19       1.0  0.59423  0.93694  0.71449  1.0000
  N   N20       1.0  0.29899999999999993  0.75985  0.34599999999999986  1.0000
  N   N21       1.0  0.9368799999999999  0.12029  0.21464  1.0000
  N   N22       1.0  0.7597199999999998  0.04709999999999988  0.8459699999999998  1.0000
  N   N23       1.0  0.27765  0.59422  0.2145  1.0000
  N   N24       1.0  0.08636  0.29907  0.84616  1.0000
  N   N25       1.0  0.8797199999999998  0.06314  0.28537  1.0000
  N   N26       1.0  0.95288  0.24026  0.65403  1.0000
  N   N27       1.0  0.40577  0.7223400000000001  0.28547  1.0000
  N   N28       1.0  0.7009299999999999  0.91361  0.65383  1.0000
  N   N29       1.0  0.06305000000000008  0.4057799999999999  0.78553  1.0000
  N   N30       1.0  0.24015999999999998  0.70098  0.15398  1.0000
  N   N31       1.0  0.7224099999999999  0.8797300000000001  0.78537  1.0000
  N   N32       1.0  0.91365  0.9528  0.15387999999999993  1.0000
