data_image0
_chemical_formula_structural       Zn16H80C176O64
_chemical_formula_sum              "Zn16 H80 C176 O64"
_cell_length_a       24.77979
_cell_length_b       24.682989999999997
_cell_length_c       24.68143
_cell_angle_alpha    96.37824999999998
_cell_angle_beta     116.29004
_cell_angle_gamma    116.28824999999999

_space_group_name_H-M_alt    "P 1"
_space_group_IT_number       1

loop_
  _space_group_symop_operation_xyz
  'x, y, z'

loop_
  _atom_site_type_symbol
  _atom_site_label
  _atom_site_symmetry_multiplicity
  _atom_site_fract_x
  _atom_site_fract_y
  _atom_site_fract_z
  _atom_site_occupancy
  Zn  Zn1       1.0  0.53419  0.30944  0.30034  1.0000
  Zn  Zn2       1.0  0.9913999999999997  0.22477000000000008  0.6907600000000003  1.0000
  Zn  Zn3       1.0  0.44963  0.24906  0.16089  1.0000
  Zn  Zn4       1.0  0.91324  0.2005  0.7522  1.0000
  Zn  Zn5       1.0  0.07756000000000003  0.58261  0.18153000000000005  1.0000
  Zn  Zn6       1.0  0.59839  0.49481  0.41659  1.0000
  Zn  Zn7       1.0  0.008750000000000032  0.69959  0.23343000000000003  1.0000
  Zn  Zn8       1.0  0.40157  0.81816  0.8964500000000001  1.0000
  Zn  Zn9       1.0  0.08695000000000012  0.83909  0.28736  1.0000
  Zn  Zn10      1.0  0.9224699999999999  0.10389000000000001  0.50499  1.0000
  Zn  Zn11      1.0  0.97837  0.013150000000000012  0.53027  1.0000
  Zn  Zn12      1.0  0.02177000000000004  0.55198  0.03499  1.0000
  Zn  Zn13      1.0  0.4658800000000001  0.76637  0.7753000000000002  1.0000
  Zn  Zn14      1.0  0.55037  0.71131  0.79929  1.0000
  Zn  Zn15      1.0  0.51648  0.9651900000000001  0.98663  1.0000
  Zn  Zn16      1.0  0.4837099999999999  0.47027  0.44906  1.0000
  H   H1        1.0  0.36415000000000003  0.33042000000000005  0.5147700000000001  1.0000
  H   H2        1.0  0.3019  0.37643000000000004  3e-05  1.0000
  H   H3        1.0  0.25207000000000007  0.9416200000000001  0.09267000000000003  1.0000
  H   H4        1.0  0.08994  0.68919  0.43015  1.0000
  H   H5        1.0  0.71463  0.3622000000000001  0.49277  1.0000
  H   H6        1.0  0.20393999999999998  0.7379  0.09539000000000002  1.0000
  H   H7        1.0  0.5827499999999999  0.27814000000000005  0.10710000000000001  1.0000
  H   H8        1.0  0.3214999999999999  0.40651  0.64083  1.0000
  H   H9        1.0  0.43849  0.11661000000000002  0.31539  1.0000
  H   H10       1.0  0.85906  0.35219  0.06655  1.0000
  H   H11       1.0  0.27446999999999994  0.27749  0.54432  1.0000
  H   H12       1.0  0.91011  0.34026000000000006  0.59905  1.0000
  H   H13       1.0  0.2594600000000001  0.5705000000000001  0.6600700000000002  1.0000
  H   H14       1.0  0.16695  0.4660300000000001  0.21688000000000002  1.0000
  H   H15       1.0  0.15260999999999997  0.3109  0.0598  1.0000
  H   H16       1.0  0.60208  0.7843000000000002  0.53756  1.0000
  H   H17       1.0  0.28435000000000005  0.44984000000000013  0.45473000000000013  1.0000
  H   H18       1.0  0.7600999999999999  0.9864  0.17926  1.0000
  H   H19       1.0  0.23988  0.41925  0.22653  1.0000
  H   H20       1.0  0.7340099999999998  0.45604  0.73077  1.0000
  H   H21       1.0  0.7498899999999997  0.70028  0.53361  1.0000
  H   H22       1.0  0.99415  0.54503  0.82854  1.0000
  H   H23       1.0  0.8693399999999999  0.50698  0.22191  1.0000
  H   H24       1.0  0.62407  0.92597  0.62325  1.0000
  H   H25       1.0  0.81652  0.4857400000000002  0.8500600000000003  1.0000
  H   H26       1.0  0.7660600000000001  0.35899000000000003  0.6810300000000001  1.0000
  H   H27       1.0  0.76215  0.012719999999999988  0.67503  1.0000
  H   H28       1.0  0.7405699999999998  0.40094  0.31099  1.0000
  H   H29       1.0  0.2660799999999998  0.99682  0.72224  1.0000
  H   H30       1.0  0.7155399999999998  0.17044000000000004  0.1656  1.0000
  H   H31       1.0  0.14106999999999997  0.20746000000000003  0.4932  1.0000
  H   H32       1.0  0.08780000000000014  0.7966200000000001  0.6026000000000001  1.0000
  H   H33       1.0  0.17026000000000022  0.8932900000000003  0.4749600000000001  1.0000
  H   H34       1.0  0.37594000000000005  0.9994100000000001  0.30181  1.0000
  H   H35       1.0  0.005970000000000025  0.83433  0.55088  1.0000
  H   H36       1.0  0.64231  0.9045200000000001  0.10842000000000002  1.0000
  H   H37       1.0  0.80626  0.82003  0.58073  1.0000
  H   H38       1.0  0.5475900000000001  0.6643900000000001  0.4942600000000001  1.0000
  H   H39       1.0  0.2859600000000001  0.9336200000000002  0.7926600000000001  1.0000
  H   H40       1.0  0.2853900000000001  0.7781700000000001  0.6476400000000001  1.0000
  H   H41       1.0  0.2503499999999999  0.7835600000000001  0.95061  1.0000
  H   H42       1.0  0.8303199999999997  0.88304  0.33593  1.0000
  H   H43       1.0  0.23419  0.91523  0.5931  1.0000
  H   H44       1.0  0.19504000000000002  0.39828000000000013  0.48492000000000013  1.0000
  H   H45       1.0  0.31276  0.05820000000000001  0.10671  1.0000
  H   H46       1.0  0.7140000000000001  0.5065500000000001  0.6476400000000001  1.0000
  H   H47       1.0  0.8379299999999997  0.44146  0.28924000000000005  1.0000
  H   H48       1.0  0.13076000000000007  0.35259000000000007  0.6376300000000001  1.0000
  H   H49       1.0  0.41729000000000005  0.5244900000000001  0.6951300000000001  1.0000
  H   H50       1.0  0.5614999999999999  0.8772500000000001  0.6778400000000002  1.0000
  H   H51       1.0  0.18358000000000013  0.03357000000000011  0.6693100000000002  1.0000
  H   H52       1.0  0.15263999999999997  0.71086  0.54946  1.0000
  H   H53       1.0  0.16209  0.45133  0.60327  1.0000
  H   H54       1.0  0.7961799999999998  0.8914000000000002  0.53407  1.0000
  H   H55       1.0  0.74776  0.8407400000000002  0.6895400000000002  1.0000
  H   H56       1.0  0.6983  0.69813  0.07446000000000001  1.0000
  H   H57       1.0  0.19386000000000003  0.7742700000000001  0.01389  1.0000
  H   H58       1.0  0.24639000000000003  0.46258000000000005  0.06426  1.0000
  H   H59       1.0  0.91239  0.51484  0.70899  1.0000
  H   H60       1.0  0.75354  0.81762  0.21621  1.0000
  H   H61       1.0  0.05016999999999995  0.2549600000000001  0.9436000000000001  1.0000
  H   H62       1.0  0.80496  0.28995  0.20338000000000003  1.0000
  H   H63       1.0  0.6618200000000001  0.7486900000000001  0.98751  1.0000
  H   H64       1.0  0.16978  0.50568  0.052910000000000006  1.0000
  H   H65       1.0  0.6871  0.79421  0.74545  1.0000
  H   H66       1.0  0.19850999999999996  0.32157  0.88317  1.0000
  H   H67       1.0  0.7256399999999998  0.2698400000000001  0.00311  1.0000
  H   H68       1.0  0.45252  0.9467  0.11698  1.0000
  H   H69       1.0  0.23792999999999995  0.91303  0.2506  1.0000
  H   H70       1.0  0.6786299999999998  0.31961  0.085  1.0000
  H   H71       1.0  0.63591  0.15062000000000003  0.9663600000000001  1.0000
  H   H72       1.0  0.8017899999999998  0.6847700000000001  0.12307  1.0000
  H   H73       1.0  0.3575900000000001  0.4659200000000001  0.26241  1.0000
  H   H74       1.0  0.39801  0.93556  0.18235  1.0000
  H   H75       1.0  0.84746  0.90722  0.15834  1.0000
  H   H76       1.0  0.33815  0.32579  0.08697  1.0000
  H   H77       1.0  0.83001  0.3047600000000001  0.72293  1.0000
  H   H78       1.0  0.8331699999999999  0.04980000000000004  0.29900000000000004  1.0000
  H   H79       1.0  0.9499699999999998  0.8936000000000001  0.20489  1.0000
  H   H80       1.0  0.84737  0.39684  0.55801  1.0000
  C   C1        1.0  0.8685199999999997  0.47256000000000004  0.18942  1.0000
  C   C2        1.0  0.18294000000000007  0.89417  0.6654900000000002  1.0000
  C   C3        1.0  0.8824299999999998  0.7883900000000001  0.16689000000000007  1.0000
  C   C4        1.0  0.62545  0.39506  0.42949  1.0000
  C   C5        1.0  0.13165000000000002  0.3209400000000001  0.60409  1.0000
  C   C6        1.0  0.7072499999999999  0.8489400000000001  0.68707  1.0000
  C   C7        1.0  0.18902000000000002  0.31919  0.92211  1.0000
  C   C8        1.0  0.6042799999999999  0.79473  0.9796600000000002  1.0000
  C   C9        1.0  0.20901000000000003  0.96106  0.68527  1.0000
  C   C10       1.0  0.7637  0.41465000000000013  0.5944500000000001  1.0000
  C   C11       1.0  0.23241000000000014  0.8749000000000002  0.21777000000000005  1.0000
  C   C12       1.0  0.7165399999999998  0.39579  0.5271700000000001  1.0000
  C   C13       1.0  0.30970000000000003  0.9624300000000002  0.19626  1.0000
  C   C14       1.0  0.2926099999999999  0.9797300000000001  0.14139000000000002  1.0000
  C   C15       1.0  0.29406  0.37678  0.10775  1.0000
  C   C16       1.0  0.75353  0.7409200000000002  0.10302000000000003  1.0000
  C   C17       1.0  0.18144000000000002  0.30797000000000013  0.54161  1.0000
  C   C18       1.0  0.56388  0.76671  0.90719  1.0000
  C   C19       1.0  0.34421  0.55481  0.68003  1.0000
  C   C20       1.0  0.19702999999999984  0.81441  0.57957  1.0000
  C   C21       1.0  0.10895000000000009  0.8485500000000002  0.61753  1.0000
  C   C22       1.0  0.27227  0.53415  0.65513  1.0000
  C   C23       1.0  0.76518  0.38259000000000004  0.18577000000000005  1.0000
  C   C24       1.0  0.22911000000000004  0.33481  0.51747  1.0000
  C   C25       1.0  0.9458500000000001  0.7833600000000001  0.19745  1.0000
  C   C26       1.0  0.21808999999999995  0.46746  0.62385  1.0000
  C   C27       1.0  0.60404  0.69917  0.51299  1.0000
  C   C28       1.0  0.58496  0.80209  0.74825  1.0000
  C   C29       1.0  0.64748  0.8706  0.08225000000000002  1.0000
  C   C30       1.0  0.39606999999999987  0.9089700000000001  0.09528000000000003  1.0000
  C   C31       1.0  0.7709299999999998  0.28841  0.10580000000000003  1.0000
  C   C32       1.0  0.7819400000000001  0.40598000000000006  0.24936000000000003  1.0000
  C   C33       1.0  0.39574  0.3754500000000001  0.19056000000000006  1.0000
  C   C34       1.0  0.8031700000000002  0.38264  0.61734  1.0000
  C   C35       1.0  0.17456000000000002  0.7597600000000001  0.16000000000000006  1.0000
  C   C36       1.0  0.81409  0.90483  0.30098  1.0000
  C   C37       1.0  0.3524  0.43466000000000005  0.22326000000000001  1.0000
  C   C38       1.0  0.13879  0.24045  0.524  1.0000
  C   C39       1.0  0.04244000000000007  0.95931  0.5736800000000001  1.0000
  C   C40       1.0  0.2688800000000001  0.8924600000000003  0.18624000000000004  1.0000
  C   C41       1.0  0.61059  0.60344  0.48091  1.0000
  C   C42       1.0  0.8255599999999997  0.9854099999999999  0.5852  1.0000
  C   C43       1.0  0.09268  0.21192  0.54503  1.0000
  C   C44       1.0  0.74198  0.8823700000000001  0.58414  1.0000
  C   C45       1.0  0.8356999999999999  0.97008  0.32468  1.0000
  C   C46       1.0  0.12235000000000004  0.51884  0.12982  1.0000
  C   C47       1.0  0.706  0.8136100000000002  0.08263  1.0000
  C   C48       1.0  0.95768  0.53131  0.9170400000000002  1.0000
  C   C49       1.0  0.9370699999999997  0.52545  0.80636  1.0000
  C   C50       1.0  0.33103  0.83364  0.74729  1.0000
  C   C51       1.0  0.4043900000000001  0.6243300000000002  0.7140200000000001  1.0000
  C   C52       1.0  0.87885  0.34507  0.61695  1.0000
  C   C53       1.0  0.34333  0.3582  0.12517  1.0000
  C   C54       1.0  0.8171799999999998  0.48252000000000006  0.7113  1.0000
  C   C55       1.0  0.81581  0.99914  0.28033  1.0000
  C   C56       1.0  0.70786  0.8107800000000001  0.56128  1.0000
  C   C57       1.0  0.83675  0.49236  0.81859  1.0000
  C   C58       1.0  0.06306000000000002  0.86927  0.58843  1.0000
  C   C59       1.0  0.8948199999999997  0.8511  0.17651  1.0000
  C   C60       1.0  0.16439000000000004  0.4890900000000001  0.13460000000000003  1.0000
  C   C61       1.0  0.23427999999999996  0.3475  0.037940000000000015  1.0000
  C   C62       1.0  0.66894  0.41613  0.5026  1.0000
  C   C63       1.0  0.9099799999999998  0.51642  0.8462000000000001  1.0000
  C   C64       1.0  0.05821999999999999  0.13948  0.52884  1.0000
  C   C65       1.0  0.8717  0.015989999999999973  0.55981  1.0000
  C   C66       1.0  0.37928999999999996  0.09468  0.2118  1.0000
  C   C67       1.0  0.28389000000000003  0.89835  0.7597900000000002  1.0000
  C   C68       1.0  0.7742399999999998  0.9632  0.2134  1.0000
  C   C69       1.0  0.7714699999999999  0.86858  0.23395  1.0000
  C   C70       1.0  0.5956699999999999  0.30992000000000003  0.21991  1.0000
  C   C71       1.0  0.71619  0.47582  0.6145  1.0000
  C   C72       1.0  0.22577000000000005  0.43922  0.18917000000000006  1.0000
  C   C73       1.0  0.8432299999999998  0.37623  0.5938000000000001  1.0000
  C   C74       1.0  0.6558199999999997  0.33607  0.21055  1.0000
  C   C75       1.0  0.18594  0.48694  0.09092  1.0000
  C   C76       1.0  0.13943000000000003  0.7968300000000001  0.23234  1.0000
  C   C77       1.0  0.5435299999999998  0.85526  0.9841100000000002  1.0000
  C   C78       1.0  0.15686000000000003  0.7508  0.53301  1.0000
  C   C79       1.0  0.9135500000000002  0.4971600000000001  0.1665  1.0000
  C   C80       1.0  0.24962  0.43875  0.14692  1.0000
  C   C81       1.0  0.30755999999999994  0.44214  0.6443  1.0000
  C   C82       1.0  0.7658500000000001  0.8036700000000001  0.11316  1.0000
  C   C83       1.0  0.18425999999999995  0.46463  0.18356  1.0000
  C   C84       1.0  0.3334600000000001  0.8808000000000001  0.7882700000000001  1.0000
  C   C85       1.0  0.054400000000000205  0.25187000000000015  0.8376000000000002  1.0000
  C   C86       1.0  0.6902499999999998  0.88671  0.65265  1.0000
  C   C87       1.0  0.7885800000000001  0.9176700000000001  0.56548  1.0000
  C   C88       1.0  0.12844  0.68827  0.14451000000000003  1.0000
  C   C89       1.0  0.2284899999999999  0.46248  0.09729  1.0000
  C   C90       1.0  0.25087  0.8113400000000001  0.037000000000000005  1.0000
  C   C91       1.0  0.81863  0.36024  0.12661  1.0000
  C   C92       1.0  0.10534999999999997  0.28183  0.95634  1.0000
  C   C93       1.0  0.96553  0.57019  0.19615  1.0000
  C   C94       1.0  0.1841700000000001  0.80943  0.20465000000000005  1.0000
  C   C95       1.0  0.4563999999999999  0.4405  0.31182  1.0000
  C   C96       1.0  0.8159299999999998  0.020490000000000015  0.62521  1.0000
  C   C97       1.0  0.18011000000000002  0.34923  0.5853  1.0000
  C   C98       1.0  0.7183799999999999  0.19294  0.13064000000000003  1.0000
  C   C99       1.0  0.38604  0.42664  0.4689  1.0000
  C   C100      1.0  0.6452100000000001  0.6752200000000003  0.51072  1.0000
  C   C101      1.0  0.39729  0.07801000000000004  0.2669500000000001  1.0000
  C   C102      1.0  0.16337000000000004  0.9818600000000001  0.6557100000000001  1.0000
  C   C103      1.0  0.60267  0.86992  0.68058  1.0000
  C   C104      1.0  0.3744800000000001  0.8040100000000003  0.7696600000000001  1.0000
  C   C105      1.0  0.36136  0.50809  0.6747700000000001  1.0000
  C   C106      1.0  0.86065  0.09293999999999998  0.65738  1.0000
  C   C107      1.0  0.2114999999999999  0.77692  0.12922  1.0000
  C   C108      1.0  0.61041  0.47077  0.52925  1.0000
  C   C109      1.0  0.16274  0.31322000000000005  0.02128  1.0000
  C   C110      1.0  0.29220999999999997  0.8533900000000001  0.10301000000000003  1.0000
  C   C111      1.0  0.2819499999999999  0.8168  0.00114  1.0000
  C   C112      1.0  0.12125  0.7383800000000001  0.46622  1.0000
  C   C113      1.0  0.66657  0.4547000000000001  0.54736  1.0000
  C   C114      1.0  0.8373899999999999  0.85858  0.15047  1.0000
  C   C115      1.0  0.08658  0.25295  0.58359  1.0000
  C   C116      1.0  0.23488999999999993  0.42064  0.61732  1.0000
  C   C117      1.0  0.7661099999999998  0.45829  0.6394900000000001  1.0000
  C   C118      1.0  0.4150399999999999  0.16325  0.21671000000000004  1.0000
  C   C119      1.0  0.7311000000000001  0.9174000000000001  0.6235100000000001  1.0000
  C   C120      1.0  0.23641999999999994  0.83087  0.65105  1.0000
  C   C121      1.0  0.67348  0.8229  0.7184400000000001  1.0000
  C   C122      1.0  0.74925  0.7861400000000002  0.5607000000000001  1.0000
  C   C123      1.0  0.3264100000000001  0.04485000000000002  0.14905000000000002  1.0000
  C   C124      1.0  0.72777  0.38311  0.26185  1.0000
  C   C125      1.0  0.6924999999999998  0.33695  0.13456  1.0000
  C   C126      1.0  0.81121  0.73318  0.13015000000000002  1.0000
  C   C127      1.0  0.71823  0.7192  0.53511  1.0000
  C   C128      1.0  0.36211  0.012370000000000042  0.25906000000000007  1.0000
  C   C129      1.0  0.33007999999999993  0.3937  0.48368  1.0000
  C   C130      1.0  0.38947  0.8701900000000002  0.9928900000000002  1.0000
  C   C131      1.0  0.79807  0.3555800000000002  0.6634800000000001  1.0000
  C   C132      1.0  0.38963999999999993  0.91883  0.8605  1.0000
  C   C133      1.0  0.09016000000000009  0.93621  0.6065000000000002  1.0000
  C   C134      1.0  0.63488  0.76623  0.53757  1.0000
  C   C135      1.0  0.87783  0.007400000000000033  0.39650000000000013  1.0000
  C   C136      1.0  0.63785  0.8971  0.65011  1.0000
  C   C137      1.0  0.24667000000000008  0.34976000000000007  0.9875600000000001  1.0000
  C   C138      1.0  0.27591  0.3147  0.52403  1.0000
  C   C139      1.0  0.6138499999999999  0.08281  0.04059000000000001  1.0000
  C   C140      1.0  0.63869  0.31364  0.14668  1.0000
  C   C141      1.0  0.6567  0.78175  0.014770000000000004  1.0000
  C   C142      1.0  0.70159  0.8595400000000002  0.11756  1.0000
  C   C143      1.0  0.9074799999999997  0.45246  0.11941  1.0000
  C   C144      1.0  0.7676799999999999  0.9854  0.64243  1.0000
  C   C145      1.0  0.66986  0.15359  0.06369  1.0000
  C   C146      1.0  0.75034  0.89708  0.18908  1.0000
  C   C147      1.0  0.9108199999999999  0.2861100000000001  0.6907600000000003  1.0000
  C   C148      1.0  0.40051999999999993  0.41516000000000003  0.24033000000000002  1.0000
  C   C149      1.0  0.8200199999999999  0.40529  0.16924  1.0000
  C   C150      1.0  0.2834799999999999  0.81068  0.67933  1.0000
  C   C151      1.0  0.8911800000000001  0.5086  0.7397200000000003  1.0000
  C   C152      1.0  0.23400000000000012  0.8734600000000001  0.6923200000000002  1.0000
  C   C153      1.0  0.12517  0.78973  0.44510000000000005  1.0000
  C   C154      1.0  0.7911  0.4762100000000001  0.7521100000000001  1.0000
  C   C155      1.0  0.6207099999999999  0.83288  0.7154200000000001  1.0000
  C   C156      1.0  0.6737699999999998  0.18170000000000003  0.01806  1.0000
  C   C157      1.0  0.43617999999999996  0.34342000000000006  0.2029  1.0000
  C   C158      1.0  0.36519000000000007  0.9027100000000001  0.13147  1.0000
  C   C159      1.0  0.76821  0.25954  0.15142000000000005  1.0000
  C   C160      1.0  0.83374  0.3251800000000001  0.6870300000000001  1.0000
  C   C161      1.0  0.7241499999999998  0.24813000000000002  0.03889  1.0000
  C   C162      1.0  0.29836  0.41599  0.15809  1.0000
  C   C163      1.0  0.86134  0.38529  0.10180000000000003  1.0000
  C   C164      1.0  0.0892900000000001  0.7802400000000003  0.37534  1.0000
  C   C165      1.0  0.25803999999999994  0.8421600000000001  0.14043  1.0000
  C   C166      1.0  0.8750200000000001  0.32006  0.66442  1.0000
  C   C167      1.0  0.59939  0.83962  0.01458  1.0000
  C   C168      1.0  0.32627000000000006  0.34424000000000005  0.5079800000000001  1.0000
  C   C169      1.0  0.20216000000000006  0.8656700000000002  0.55764  1.0000
  C   C170      1.0  0.16648000000000007  0.85361  0.49157  1.0000
  C   C171      1.0  0.034589999999999975  0.23059  0.60461  1.0000
  C   C172      1.0  0.35496  0.8654700000000001  0.030170000000000002  1.0000
  C   C173      1.0  0.23179000000000005  0.38310000000000016  0.49127000000000004  1.0000
  C   C174      1.0  0.94193  0.47068000000000004  0.08144  1.0000
  C   C175      1.0  0.28157  0.41211000000000003  0.4744700000000001  1.0000
  C   C176      1.0  0.11780000000000021  0.28467000000000003  0.9060600000000001  1.0000
  O   O1        1.0  0.39486000000000004  0.6686800000000002  0.7303500000000002  1.0000
  O   O2        1.0  0.9011499999999998  0.98135  0.43449  1.0000
  O   O3        1.0  0.09909  0.53353  0.08045  1.0000
  O   O4        1.0  0.8578799999999998  0.05159000000000003  0.52922  1.0000
  O   O5        1.0  0.9168599999999998  0.001310000000000007  0.56846  1.0000
  O   O6        1.0  0.43501  0.31796  0.15317  1.0000
  O   O7        1.0  0.5220600000000001  0.47099  0.32802000000000003  1.0000
  O   O8        1.0  0.43966  0.90504  0.88647  1.0000
  O   O9        1.0  0.93901  0.27021000000000006  0.6648400000000001  1.0000
  O   O10       1.0  0.60525  0.33586  0.27381  1.0000
  O   O11       1.0  0.07941000000000005  0.7420300000000001  0.20631000000000002  1.0000
  O   O12       1.0  0.07082999999999998  0.02166999999999997  0.59351  1.0000
  O   O13       1.0  0.56037  0.4467200000000001  0.46542  1.0000
  O   O14       1.0  0.47102  0.20957000000000003  0.27074  1.0000
  O   O15       1.0  0.9206299999999998  0.12696000000000005  0.6625800000000001  1.0000
  O   O16       1.0  0.9663  0.19377  0.56285  1.0000
  O   O17       1.0  0.57132  0.04942  0.97819  1.0000
  O   O18       1.0  0.39223  0.47262  0.4484  1.0000
  O   O19       1.0  0.14229000000000003  0.6714900000000001  0.19392000000000006  1.0000
  O   O20       1.0  0.4530899999999999  0.91949  0.01879  1.0000
  O   O21       1.0  0.023669999999999945  0.55144  0.9433  1.0000
  O   O22       1.0  0.5348499999999999  0.79265  0.8729400000000002  1.0000
  O   O23       1.0  0.9383499999999999  0.7292000000000002  0.19953000000000007  1.0000
  O   O24       1.0  0.16334000000000012  0.8463600000000002  0.28082  1.0000
  O   O25       1.0  0.11465000000000002  0.5286  0.17782  1.0000
  O   O26       1.0  0.018729999999999997  0.11358000000000004  0.55325  1.0000
  O   O27       1.0  0.061119999999999945  0.72613  0.33125000000000004  1.0000
  O   O28       1.0  0.5290300000000001  0.8002000000000001  0.7385800000000002  1.0000
  O   O29       1.0  0.08321000000000003  0.65173  0.08464  1.0000
  O   O30       1.0  0.6140700000000001  0.7768900000000001  0.7854700000000001  1.0000
  O   O31       1.0  0.06784000000000003  0.10738000000000002  0.4965800000000001  1.0000
  O   O32       1.0  0.58864  0.33373000000000014  0.39534000000000014  1.0000
  O   O33       1.0  0.38586999999999994  0.17130000000000006  0.16237  1.0000
  O   O34       1.0  0.9764899999999996  0.91952  0.5277700000000001  1.0000
  O   O35       1.0  0.9097899999999999  0.2733900000000001  0.7399500000000001  1.0000
  O   O36       1.0  0.007740000000000017  0.83764  0.22217000000000003  1.0000
  O   O37       1.0  0.9813899999999999  0.5346  0.09501  1.0000
  O   O38       1.0  0.43362000000000006  0.43198000000000003  0.34885  1.0000
  O   O39       1.0  0.061430000000000026  0.25507  0.66594  1.0000
  O   O40       1.0  0.3697  0.77217  0.8066400000000001  1.0000
  O   O41       1.0  0.9322899999999998  0.42878000000000005  0.03972  1.0000
  O   O42       1.0  0.56648  0.9151300000000001  0.9984100000000002  1.0000
  O   O43       1.0  0.46572999999999987  0.63551  0.72633  1.0000
  O   O44       1.0  0.9925299999999999  0.21479  0.83006  1.0000
  O   O45       1.0  0.47783  0.80588  0.94905  1.0000
  O   O46       1.0  0.5469900000000001  0.5658300000000003  0.46667000000000003  1.0000
  O   O47       1.0  0.41121000000000024  0.8066800000000003  0.7450700000000001  1.0000
  O   O48       1.0  0.03380000000000001  0.59673  0.22755  1.0000
  O   O49       1.0  0.6103299999999999  0.50261  0.57126  1.0000
  O   O50       1.0  0.63027  0.43687  0.40249  1.0000
  O   O51       1.0  0.53431  0.2608800000000001  0.16977  1.0000
  O   O52       1.0  0.06186000000000003  0.26138  0.79091  1.0000
  O   O53       1.0  0.3897500000000001  0.9609600000000001  0.8924200000000002  1.0000
  O   O54       1.0  0.42860999999999994  0.40681000000000006  0.47818  1.0000
  O   O55       1.0  0.9291899999999998  0.5226500000000001  0.9509000000000002  1.0000
  O   O56       1.0  0.35160000000000013  0.8222600000000002  0.9373900000000001  1.0000
  O   O57       1.0  0.6482999999999999  0.5857  0.4707  1.0000
  O   O58       1.0  0.56511  0.71823  0.8828300000000002  1.0000
  O   O59       1.0  0.09023  0.83042  0.36364  1.0000
  O   O60       1.0  0.88553  0.06311000000000003  0.4139500000000001  1.0000
  O   O61       1.0  0.83681  0.11751999999999996  0.68307  1.0000
  O   O62       1.0  0.46514999999999995  0.33805  0.2578  1.0000
  O   O63       1.0  0.93873  0.60468  0.1939  1.0000
  O   O64       1.0  0.6076699999999999  0.056170000000000005  0.08041000000000001  1.0000
