data_image0
_chemical_formula_structural       Cd8H120C196N16O20F24
_chemical_formula_sum              "Cd8 H120 C196 N16 O20 F24"
_cell_length_a       13.74188
_cell_length_b       13.87574
_cell_length_c       33.25135
_cell_angle_alpha    89.99397
_cell_angle_beta     90.11329
_cell_angle_gamma    112.59678

_symmetry_space_group_name_H-M    'P 1'
_symmetry_Int_Tables_number       1

loop_
  _symmetry_equiv_pos_as_xyz
  'x,y,z'

loop_
  _atom_site_type_symbol
  _atom_site_label
  _atom_site_symmetry_multiplicity
  _atom_site_fract_x
  _atom_site_fract_y
  _atom_site_fract_z
  _atom_site_occupancy
  Cd  Cd1       1.0  0.9297  0.52446  0.020770000000000004  1.0000
  Cd  Cd2       1.0  0.34947  0.81896  0.28925  1.0000
  Cd  Cd3       1.0  0.57051  0.9756800000000001  0.52074  1.0000
  Cd  Cd4       1.0  0.1478500000000001  0.6759300000000003  0.78919  1.0000
  Cd  Cd5       1.0  0.07030999999999997  0.47555  0.97923  1.0000
  Cd  Cd6       1.0  0.65054  0.18105000000000002  0.71076  1.0000
  Cd  Cd7       1.0  0.4295  0.024330000000000008  0.47926  1.0000
  Cd  Cd8       1.0  0.85216  0.3240800000000001  0.21081  1.0000
  H   H1        1.0  0.83647  0.52128  0.11268  1.0000
  H   H2        1.0  0.8333300000000001  0.6398800000000002  0.16894  1.0000
  H   H3        1.0  0.03236000000000001  0.8980700000000001  0.09602000000000001  1.0000
  H   H4        1.0  0.025050000000000093  0.7691500000000001  0.04294  1.0000
  H   H5        1.0  0.76749  0.78651  0.1802  1.0000
  H   H6        1.0  0.94081  0.060690000000000015  0.25066  1.0000
  H   H7        1.0  0.10300000000000008  0.9475600000000001  0.16399  1.0000
  H   H8        1.0  0.66735  0.7452800000000003  0.23247  1.0000
  H   H9        1.0  0.50603  0.73352  0.26837  1.0000
  H   H10       1.0  0.61963  0.054050000000000015  0.28566  1.0000
  H   H11       1.0  0.7842900000000002  0.08065  0.25058  1.0000
  H   H12       1.0  0.06439000000000002  0.15605000000000002  0.15378  1.0000
  H   H13       1.0  0.37966  0.3662500000000001  0.12328999999999998  1.0000
  H   H14       1.0  0.32539  0.17003000000000004  0.22815  1.0000
  H   H15       1.0  0.020600000000000025  0.2748300000000001  0.12155999999999999  1.0000
  H   H16       1.0  0.95836  0.3226  0.05728  1.0000
  H   H17       1.0  0.2454  0.3816  0.0018500000000000003  1.0000
  H   H18       1.0  0.47991  0.32918000000000003  0.24685000000000004  1.0000
  H   H19       1.0  0.67457  0.3831  0.25317  1.0000
  H   H20       1.0  0.7070100000000001  0.34547000000000005  0.13075  1.0000
  H   H21       1.0  0.51621  0.30036  0.11879  1.0000
  H   H22       1.0  0.54934  0.3693900000000001  0.01085  1.0000
  H   H23       1.0  0.37379  0.22438  0.00989  1.0000
  H   H24       1.0  0.49693  0.04025  0.08262  1.0000
  H   H25       1.0  0.67205  0.18667000000000003  0.0832  1.0000
  H   H26       1.0  0.25377  0.80778  0.0658  1.0000
  H   H27       1.0  0.25221  0.73465  0.13359  1.0000
  H   H28       1.0  0.33985000000000004  0.03859  0.18531  1.0000
  H   H29       1.0  0.3373900000000001  0.11399000000000002  0.11815  1.0000
  H   H30       1.0  0.32044000000000006  0.33642  0.06367000000000002  1.0000
  H   H31       1.0  0.664  0.97939  0.61312  1.0000
  H   H32       1.0  0.66614  0.8605700000000001  0.66944  1.0000
  H   H33       1.0  0.4685  0.60261  0.59588  1.0000
  H   H34       1.0  0.47699  0.73172  0.54265  1.0000
  H   H35       1.0  0.73268  0.71374  0.6801  1.0000
  H   H36       1.0  0.5605100000000001  0.4402100000000001  0.75084  1.0000
  H   H37       1.0  0.39674  0.55305  0.66444  1.0000
  H   H38       1.0  0.83417  0.75519  0.73223  1.0000
  H   H39       1.0  0.99572  0.7666200000000001  0.76815  1.0000
  H   H40       1.0  0.88112  0.44609000000000004  0.78572  1.0000
  H   H41       1.0  0.7163300000000001  0.41984000000000005  0.75053  1.0000
  H   H42       1.0  0.4369200000000001  0.3457100000000001  0.6541  1.0000
  H   H43       1.0  0.12200000000000001  0.13427  0.62307  1.0000
  H   H44       1.0  0.17554000000000003  0.32960000000000006  0.7282  1.0000
  H   H45       1.0  0.48101  0.22672000000000006  0.62137  1.0000
  H   H46       1.0  0.54217  0.17819  0.55715  1.0000
  H   H47       1.0  0.25414  0.1182  0.5019  1.0000
  H   H48       1.0  0.022200000000000022  0.17042000000000004  0.74659  1.0000
  H   H49       1.0  0.8276700000000001  0.11823  0.75301  1.0000
  H   H50       1.0  0.7940700000000002  0.15542  0.63062  1.0000
  H   H51       1.0  0.98462  0.19949  0.61858  1.0000
  H   H52       1.0  0.9509200000000001  0.13174  0.51129  1.0000
  H   H53       1.0  0.12654  0.27674  0.51035  1.0000
  H   H54       1.0  0.0032300000000000106  0.46171000000000006  0.58246  1.0000
  H   H55       1.0  0.8286300000000002  0.3149000000000001  0.5833400000000001  1.0000
  H   H56       1.0  0.24844  0.69366  0.56645  1.0000
  H   H57       1.0  0.24899  0.76523  0.63467  1.0000
  H   H58       1.0  0.16066  0.45943000000000006  0.68489  1.0000
  H   H59       1.0  0.16464000000000006  0.38656000000000007  0.6174400000000001  1.0000
  H   H60       1.0  0.17998  0.16368  0.56368  1.0000
  H   H61       1.0  0.16354000000000005  0.4787200000000001  0.88732  1.0000
  H   H62       1.0  0.16668000000000008  0.3601300000000001  0.8310600000000002  1.0000
  H   H63       1.0  0.96765  0.10193000000000003  0.9039800000000002  1.0000
  H   H64       1.0  0.97497  0.23086000000000007  0.95706  1.0000
  H   H65       1.0  0.23252  0.21349  0.81981  1.0000
  H   H66       1.0  0.05920000000000013  0.9393200000000003  0.74934  1.0000
  H   H67       1.0  0.89701  0.05244  0.83601  1.0000
  H   H68       1.0  0.33266  0.25473  0.76753  1.0000
  H   H69       1.0  0.4939800000000001  0.26649  0.73163  1.0000
  H   H70       1.0  0.38038  0.94596  0.71434  1.0000
  H   H71       1.0  0.21572000000000013  0.9193600000000002  0.74942  1.0000
  H   H72       1.0  0.93562  0.84396  0.84622  1.0000
  H   H73       1.0  0.62035  0.6337600000000002  0.8767200000000002  1.0000
  H   H74       1.0  0.6746200000000002  0.8299800000000003  0.77185  1.0000
  H   H75       1.0  0.97941  0.7251700000000001  0.87845  1.0000
  H   H76       1.0  0.041650000000000006  0.67741  0.94272  1.0000
  H   H77       1.0  0.75461  0.61841  0.99816  1.0000
  H   H78       1.0  0.5201  0.67083  0.75315  1.0000
  H   H79       1.0  0.32544  0.61691  0.74683  1.0000
  H   H80       1.0  0.29300000000000015  0.6545300000000002  0.86925  1.0000
  H   H81       1.0  0.4838  0.69965  0.88121  1.0000
  H   H82       1.0  0.45067000000000007  0.6306200000000002  0.9891500000000001  1.0000
  H   H83       1.0  0.6262200000000001  0.7756200000000001  0.9901100000000002  1.0000
  H   H84       1.0  0.50308  0.95976  0.91738  1.0000
  H   H85       1.0  0.32796  0.81333  0.9168  1.0000
  H   H86       1.0  0.74624  0.19222  0.9342  1.0000
  H   H87       1.0  0.7478000000000001  0.26535  0.86642  1.0000
  H   H88       1.0  0.66017  0.9614200000000003  0.81469  1.0000
  H   H89       1.0  0.6626200000000001  0.88602  0.88185  1.0000
  H   H90       1.0  0.67957  0.66359  0.93634  1.0000
  H   H91       1.0  0.33601  0.02061  0.38688  1.0000
  H   H92       1.0  0.33387  0.13944  0.33056  1.0000
  H   H93       1.0  0.53151  0.3974  0.40412  1.0000
  H   H94       1.0  0.52302  0.26829  0.45735  1.0000
  H   H95       1.0  0.2673299999999999  0.28626  0.3199  1.0000
  H   H96       1.0  0.4395  0.55979  0.24916000000000002  1.0000
  H   H97       1.0  0.60327  0.4469500000000001  0.33556  1.0000
  H   H98       1.0  0.16584  0.24481  0.26777  1.0000
  H   H99       1.0  0.0042900000000000065  0.23339  0.23186  1.0000
  H   H100      1.0  0.11889000000000008  0.5539200000000001  0.21429  1.0000
  H   H101      1.0  0.28368000000000004  0.5801700000000001  0.24946999999999997  1.0000
  H   H102      1.0  0.5630900000000001  0.6542900000000001  0.3459  1.0000
  H   H103      1.0  0.87801  0.8657400000000001  0.37693  1.0000
  H   H104      1.0  0.8244700000000003  0.6704000000000002  0.27181  1.0000
  H   H105      1.0  0.5190000000000002  0.77329  0.37863  1.0000
  H   H106      1.0  0.45784  0.82182  0.44285  1.0000
  H   H107      1.0  0.7458800000000001  0.8818  0.49811  1.0000
  H   H108      1.0  0.97781  0.8295800000000001  0.25341  1.0000
  H   H109      1.0  0.17234  0.88178  0.24699000000000002  1.0000
  H   H110      1.0  0.2059400000000001  0.84458  0.36938  1.0000
  H   H111      1.0  0.015390000000000043  0.8005200000000002  0.38142  1.0000
  H   H112      1.0  0.04909000000000012  0.8682700000000001  0.48871  1.0000
  H   H113      1.0  0.87347  0.7232600000000001  0.48966  1.0000
  H   H114      1.0  0.9967800000000001  0.53829  0.41754  1.0000
  H   H115      1.0  0.17138000000000003  0.68511  0.4166700000000001  1.0000
  H   H116      1.0  0.75157  0.30634000000000006  0.43355  1.0000
  H   H117      1.0  0.75102  0.23477000000000006  0.36533  1.0000
  H   H118      1.0  0.83935  0.54058  0.31511000000000006  1.0000
  H   H119      1.0  0.83538  0.61345  0.38256  1.0000
  H   H120      1.0  0.82003  0.8363300000000002  0.43632  1.0000
  C   C1        1.0  0.87802  0.60563  0.11042  1.0000
  C   C2        1.0  0.87643  0.6726  0.14148  1.0000
  C   C3        1.0  0.9325800000000001  0.78075  0.13723000000000002  1.0000
  C   C4        1.0  0.98814  0.8154300000000002  0.10122  1.0000
  C   C5        1.0  0.98456  0.74361  0.07147  1.0000
  C   C6        1.0  0.93415  0.8572500000000002  0.16866  1.0000
  C   C7        1.0  0.8412500000000002  0.8491500000000001  0.1886  1.0000
  C   C8        1.0  0.8410500000000001  0.92305  0.21754  1.0000
  C   C9        1.0  0.9369800000000001  0.00486  0.22717  1.0000
  C   C10       1.0  0.02925  0.01181  0.20778  1.0000
  C   C11       1.0  0.02919000000000006  0.9403400000000001  0.17822  1.0000
  C   C12       1.0  0.74236  0.9143000000000002  0.23798000000000002  1.0000
  C   C13       1.0  0.66032  0.8163900000000002  0.24302999999999997  1.0000
  C   C14       1.0  0.5698300000000002  0.8091700000000002  0.26345  1.0000
  C   C15       1.0  0.63207  0.98671  0.2735600000000001  1.0000
  C   C16       1.0  0.72621  0.0011  0.25378  1.0000
  C   C17       1.0  0.18858  0.15821  0.19379000000000002  1.0000
  C   C18       1.0  0.14834  0.19061000000000006  0.16021  1.0000
  C   C19       1.0  0.21719  0.26658  0.13449  1.0000
  C   C20       1.0  0.32554  0.30675  0.1427  1.0000
  C   C21       1.0  0.36579  0.27289  0.17618  1.0000
  C   C22       1.0  0.29625  0.19933  0.2024  1.0000
  C   C23       1.0  0.17655  0.29992  0.0982  1.0000
  C   C24       1.0  0.07299000000000001  0.29593  0.09564  1.0000
  C   C25       1.0  0.03753000000000002  0.32222000000000006  0.05965  1.0000
  C   C26       1.0  0.19808000000000003  0.3561600000000001  0.02894  1.0000
  C   C27       1.0  0.48073000000000005  0.30934000000000006  0.18211000000000005  1.0000
  C   C28       1.0  0.52729  0.33241  0.22034  1.0000
  C   C29       1.0  0.63559  0.36198  0.22413  1.0000
  C   C30       1.0  0.65467  0.3440400000000001  0.15563  1.0000
  C   C31       1.0  0.54762  0.31824  0.14916  1.0000
  C   C32       1.0  0.72969  0.3737100000000001  0.04711  1.0000
  C   C33       1.0  0.62162  0.28759  0.04743000000000001  1.0000
  C   C34       1.0  0.53659  0.29728  0.026950000000000005  1.0000
  C   C35       1.0  0.43763  0.21528  0.02657  1.0000
  C   C36       1.0  0.42179000000000005  0.12165000000000002  0.04674  1.0000
  C   C37       1.0  0.50738  0.11246000000000003  0.06718  1.0000
  C   C38       1.0  0.6056600000000001  0.19422  0.06761  1.0000
  C   C39       1.0  0.31781  0.024010000000000007  0.04524  1.0000
  C   C40       1.0  0.33252000000000015  0.9550400000000002  0.010540000000000004  1.0000
  C   C41       1.0  0.21921  0.049410000000000016  0.035640000000000005  1.0000
  C   C42       1.0  0.29927000000000004  0.9676900000000003  0.08643  1.0000
  C   C43       1.0  0.27211  0.8599900000000001  0.09151  1.0000
  C   C44       1.0  0.27127  0.81787  0.1299  1.0000
  C   C45       1.0  0.29870000000000013  0.8825900000000002  0.16382  1.0000
  C   C46       1.0  0.31961  0.98898  0.15885  1.0000
  C   C47       1.0  0.31849  0.03074  0.12097  1.0000
  C   C48       1.0  0.31074  0.8436  0.20528  1.0000
  C   C49       1.0  0.24008000000000002  0.33302000000000004  0.06387  1.0000
  C   C50       1.0  0.6225100000000001  0.8950700000000001  0.6107  1.0000
  C   C51       1.0  0.62352  0.82801  0.64182  1.0000
  C   C52       1.0  0.5674500000000002  0.7199100000000003  0.63741  1.0000
  C   C53       1.0  0.51254  0.68525  0.6012  1.0000
  C   C54       1.0  0.51677  0.7571300000000001  0.57138  1.0000
  C   C55       1.0  0.56585  0.6435  0.66887  1.0000
  C   C56       1.0  0.6590199999999999  0.65144  0.68871  1.0000
  C   C57       1.0  0.65961  0.5777  0.71764  1.0000
  C   C58       1.0  0.56382  0.4959600000000001  0.72737  1.0000
  C   C59       1.0  0.4714  0.48909  0.70798  1.0000
  C   C60       1.0  0.47097  0.56055  0.6785  1.0000
  C   C61       1.0  0.75863  0.5862500000000002  0.7379300000000001  1.0000
  C   C62       1.0  0.84104  0.68404  0.74286  1.0000
  C   C63       1.0  0.9316  0.69111  0.76329  1.0000
  C   C64       1.0  0.86884  0.51347  0.77354  1.0000
  C   C65       1.0  0.77464  0.4993400000000001  0.75372  1.0000
  C   C66       1.0  0.31236  0.3424800000000001  0.6938  1.0000
  C   C67       1.0  0.3529  0.31057  0.66026  1.0000
  C   C68       1.0  0.28425  0.23451  0.63441  1.0000
  C   C69       1.0  0.17594  0.19384  0.64257  1.0000
  C   C70       1.0  0.13551  0.22710000000000002  0.67607  1.0000
  C   C71       1.0  0.20481000000000002  0.30072000000000004  0.70241  1.0000
  C   C72       1.0  0.32463  0.20129  0.5981  1.0000
  C   C73       1.0  0.42822  0.20548000000000005  0.59549  1.0000
  C   C74       1.0  0.46308  0.1787  0.55951  1.0000
  C   C75       1.0  0.30198  0.14410000000000003  0.52891  1.0000
  C   C76       1.0  0.02062000000000001  0.19046000000000005  0.6819  1.0000
  C   C77       1.0  0.97452  0.16757000000000005  0.72014  1.0000
  C   C78       1.0  0.8663799999999999  0.13891  0.72396  1.0000
  C   C79       1.0  0.84664  0.15673000000000006  0.65548  1.0000
  C   C80       1.0  0.9535100000000002  0.18184000000000006  0.64896  1.0000
  C   C81       1.0  0.77047  0.12768000000000004  0.5472  1.0000
  C   C82       1.0  0.87874  0.21376  0.54767  1.0000
  C   C83       1.0  0.96373  0.20398000000000005  0.5273  1.0000
  C   C84       1.0  0.06269  0.28605  0.52689  1.0000
  C   C85       1.0  0.07851000000000001  0.38002000000000014  0.54682  1.0000
  C   C86       1.0  0.9930300000000001  0.38935  0.56716  1.0000
  C   C87       1.0  0.8948700000000002  0.30733000000000005  0.56774  1.0000
  C   C88       1.0  0.18272000000000005  0.4775800000000001  0.54533  1.0000
  C   C89       1.0  0.16764  0.5467  0.5108  1.0000
  C   C90       1.0  0.2807700000000001  0.4518800000000001  0.5354500000000001  1.0000
  C   C91       1.0  0.20202  0.53341  0.58655  1.0000
  C   C92       1.0  0.22957000000000002  0.64101  0.59201  1.0000
  C   C93       1.0  0.23008000000000003  0.6821700000000002  0.63055  1.0000
  C   C94       1.0  0.20194  0.6165  0.66417  1.0000
  C   C95       1.0  0.18137  0.51025  0.65881  1.0000
  C   C96       1.0  0.18301000000000003  0.46958000000000005  0.62079  1.0000
  C   C97       1.0  0.18809  0.65436  0.70557  1.0000
  C   C98       1.0  0.26052  0.16759  0.56383  1.0000
  C   C99       1.0  0.12199000000000004  0.3943800000000001  0.88958  1.0000
  C   C100      1.0  0.12358  0.32741  0.85852  1.0000
  C   C101      1.0  0.06743000000000003  0.21926000000000004  0.86277  1.0000
  C   C102      1.0  0.011870000000000004  0.18458  0.8987800000000001  1.0000
  C   C103      1.0  0.01544999999999999  0.25639  0.92853  1.0000
  C   C104      1.0  0.06586000000000002  0.14276000000000003  0.83134  1.0000
  C   C105      1.0  0.15876  0.15086  0.8114  1.0000
  C   C106      1.0  0.15896  0.07696000000000001  0.78247  1.0000
  C   C107      1.0  0.06303  0.9951500000000001  0.7728300000000002  1.0000
  C   C108      1.0  0.9707600000000001  0.9881900000000001  0.79222  1.0000
  C   C109      1.0  0.97082  0.05966000000000001  0.8217800000000002  1.0000
  C   C110      1.0  0.25765  0.08571  0.76202  1.0000
  C   C111      1.0  0.33969  0.18362000000000006  0.7569700000000001  1.0000
  C   C112      1.0  0.43018  0.19083  0.73655  1.0000
  C   C113      1.0  0.36794  0.01329  0.72644  1.0000
  C   C114      1.0  0.27380000000000004  0.9989100000000001  0.74623  1.0000
  C   C115      1.0  0.81143  0.84179  0.80621  1.0000
  C   C116      1.0  0.85167  0.80939  0.83979  1.0000
  C   C117      1.0  0.78282  0.73342  0.86552  1.0000
  C   C118      1.0  0.67447  0.6932500000000003  0.8573  1.0000
  C   C119      1.0  0.6342200000000001  0.7271200000000002  0.82382  1.0000
  C   C120      1.0  0.70376  0.80068  0.7976  1.0000
  C   C121      1.0  0.82346  0.7000800000000003  0.9018  1.0000
  C   C122      1.0  0.9270200000000001  0.70408  0.90436  1.0000
  C   C123      1.0  0.96248  0.67779  0.9403600000000002  1.0000
  C   C124      1.0  0.8019300000000001  0.6438500000000003  0.97106  1.0000
  C   C125      1.0  0.51929  0.69067  0.81789  1.0000
  C   C126      1.0  0.47272  0.6676  0.77966  1.0000
  C   C127      1.0  0.36442  0.63803  0.77587  1.0000
  C   C128      1.0  0.34534000000000004  0.6559700000000002  0.8443700000000002  1.0000
  C   C129      1.0  0.45239  0.68177  0.8508400000000002  1.0000
  C   C130      1.0  0.2703200000000001  0.6263000000000002  0.95289  1.0000
  C   C131      1.0  0.37839  0.71242  0.95258  1.0000
  C   C132      1.0  0.46342000000000017  0.7027300000000002  0.9730500000000001  1.0000
  C   C133      1.0  0.56238  0.78472  0.97343  1.0000
  C   C134      1.0  0.57822  0.8783500000000001  0.95326  1.0000
  C   C135      1.0  0.49263  0.88755  0.93282  1.0000
  C   C136      1.0  0.3943500000000001  0.8057900000000001  0.93239  1.0000
  C   C137      1.0  0.6822  0.976  0.95476  1.0000
  C   C138      1.0  0.66749  0.04497  0.9894599999999999  1.0000
  C   C139      1.0  0.7808000000000002  0.9506000000000002  0.9643600000000001  1.0000
  C   C140      1.0  0.70074  0.03232  0.91357  1.0000
  C   C141      1.0  0.7279  0.14002  0.9084900000000002  1.0000
  C   C142      1.0  0.72874  0.18213000000000001  0.8701  1.0000
  C   C143      1.0  0.70131  0.11741000000000001  0.83618  1.0000
  C   C144      1.0  0.6804  0.01102  0.84115  1.0000
  C   C145      1.0  0.6815200000000001  0.96927  0.87903  1.0000
  C   C146      1.0  0.6892700000000002  0.15640000000000007  0.79472  1.0000
  C   C147      1.0  0.75993  0.66698  0.93613  1.0000
  C   C148      1.0  0.37750000000000006  0.10494  0.3893  1.0000
  C   C149      1.0  0.37649  0.17199000000000006  0.35819  1.0000
  C   C150      1.0  0.43256000000000006  0.2801  0.36259  1.0000
  C   C151      1.0  0.48747000000000007  0.31476000000000004  0.39881  1.0000
  C   C152      1.0  0.48325000000000007  0.24288000000000007  0.42862  1.0000
  C   C153      1.0  0.4341599999999999  0.3565  0.33113  1.0000
  C   C154      1.0  0.34099  0.34856  0.3113  1.0000
  C   C155      1.0  0.34040000000000004  0.42231000000000013  0.28236  1.0000
  C   C156      1.0  0.43619  0.50404  0.27263  1.0000
  C   C157      1.0  0.52861  0.5109200000000002  0.29203  1.0000
  C   C158      1.0  0.52904  0.43945  0.3215  1.0000
  C   C159      1.0  0.24138  0.41376  0.26208  1.0000
  C   C160      1.0  0.15897000000000006  0.3159700000000001  0.25715  1.0000
  C   C161      1.0  0.06841  0.3089  0.23671  1.0000
  C   C162      1.0  0.13117  0.48654  0.22646  1.0000
  C   C163      1.0  0.22537  0.50067  0.24628  1.0000
  C   C164      1.0  0.6876500000000001  0.6575300000000002  0.30621  1.0000
  C   C165      1.0  0.6471100000000001  0.68944  0.33974  1.0000
  C   C166      1.0  0.71577  0.7655  0.36559  1.0000
  C   C167      1.0  0.82407  0.8061700000000002  0.35743  1.0000
  C   C168      1.0  0.8645  0.77291  0.32393  1.0000
  C   C169      1.0  0.7952  0.69928  0.2976  1.0000
  C   C170      1.0  0.67538  0.7987100000000001  0.4019000000000001  1.0000
  C   C171      1.0  0.5717900000000001  0.7945200000000002  0.40451  1.0000
  C   C172      1.0  0.53693  0.8213100000000002  0.44049  1.0000
  C   C173      1.0  0.6980300000000003  0.8559000000000001  0.47109  1.0000
  C   C174      1.0  0.97939  0.8095400000000003  0.3181  1.0000
  C   C175      1.0  0.025490000000000013  0.83244  0.27986  1.0000
  C   C176      1.0  0.1336300000000001  0.8611000000000002  0.27604  1.0000
  C   C177      1.0  0.15337000000000003  0.8432700000000001  0.34452  1.0000
  C   C178      1.0  0.046500000000000125  0.8181700000000002  0.35104  1.0000
  C   C179      1.0  0.22953999999999997  0.87232  0.4528  1.0000
  C   C180      1.0  0.12126999999999996  0.78625  0.45233  1.0000
  C   C181      1.0  0.03628000000000006  0.79602  0.4727000000000001  1.0000
  C   C182      1.0  0.93732  0.71395  0.47311  1.0000
  C   C183      1.0  0.9215  0.61998  0.45318  1.0000
  C   C184      1.0  0.006980000000000015  0.61065  0.43284  1.0000
  C   C185      1.0  0.10513999999999998  0.69268  0.43226000000000003  1.0000
  C   C186      1.0  0.81729  0.5224300000000001  0.45467  1.0000
  C   C187      1.0  0.8323700000000003  0.4533100000000001  0.4892  1.0000
  C   C188      1.0  0.71924  0.54813  0.46455  1.0000
  C   C189      1.0  0.79799  0.4665900000000001  0.41345  1.0000
  C   C190      1.0  0.77044  0.359  0.40799  1.0000
  C   C191      1.0  0.76993  0.3178400000000001  0.36945  1.0000
  C   C192      1.0  0.79807  0.3835000000000001  0.33583  1.0000
  C   C193      1.0  0.81864  0.48975  0.34119  1.0000
  C   C194      1.0  0.817  0.53043  0.37921  1.0000
  C   C195      1.0  0.81192  0.34565000000000007  0.29443  1.0000
  C   C196      1.0  0.73949  0.83242  0.43617  1.0000
  N   N1        1.0  0.9306900000000002  0.6400200000000003  0.07571  1.0000
  N   N2        1.0  0.55433  0.89201  0.27863  1.0000
  N   N3        1.0  0.09823  0.35061  0.02646  1.0000
  N   N4        1.0  0.69905  0.366  0.19258  1.0000
  N   N5        1.0  0.5705400000000003  0.8607300000000002  0.57576  1.0000
  N   N6        1.0  0.94678  0.60813  0.77857  1.0000
  N   N7        1.0  0.40185000000000004  0.14978  0.52639  1.0000
  N   N8        1.0  0.80275  0.13540000000000002  0.69244  1.0000
  N   N9        1.0  0.06933  0.35998  0.9243  1.0000
  N   N10       1.0  0.44568  0.10799  0.72137  1.0000
  N   N11       1.0  0.90178  0.6494  0.97354  1.0000
  N   N12       1.0  0.30096  0.63401  0.80743  1.0000
  N   N13       1.0  0.42947  0.13927  0.42424  1.0000
  N   N14       1.0  0.05323  0.39187  0.22143  1.0000
  N   N15       1.0  0.59816  0.85023  0.47361  1.0000
  N   N16       1.0  0.19726  0.8646  0.30756  1.0000
  O   O1        1.0  0.74458  0.4480100000000001  0.02192  1.0000
  O   O2        1.0  0.79953  0.36739000000000005  0.07078  1.0000
  O   O3        1.0  0.35207  0.91557  0.23179  1.0000
  O   O4        1.0  0.28087  0.74685  0.21197  1.0000
  O   O5        1.0  0.12392000000000002  0.08728000000000001  0.22148  1.0000
  O   O6        1.0  0.75469  0.0547  0.52129  1.0000
  O   O7        1.0  0.70142  0.13293  0.57145  1.0000
  O   O8        1.0  0.14332  0.58125  0.73126  1.0000
  O   O9        1.0  0.21945  0.75097  0.71303  1.0000
  O   O10       1.0  0.37668  0.4137700000000001  0.72146  1.0000
  O   O11       1.0  0.25543  0.55199  0.97808  1.0000
  O   O12       1.0  0.20048  0.63262  0.92922  1.0000
  O   O13       1.0  0.64794  0.08444  0.76821  1.0000
  O   O14       1.0  0.71914  0.25315  0.78803  1.0000
  O   O15       1.0  0.87609  0.9127200000000001  0.77852  1.0000
  O   O16       1.0  0.2453200000000001  0.9453100000000002  0.47871  1.0000
  O   O17       1.0  0.2986000000000001  0.8670700000000001  0.4285500000000001  1.0000
  O   O18       1.0  0.85669  0.4187600000000001  0.26874  1.0000
  O   O19       1.0  0.78057  0.24904000000000007  0.28697  1.0000
  O   O20       1.0  0.62333  0.5862400000000001  0.27854  1.0000
  F   F1        1.0  0.36195  0.00983  0.97571  1.0000
  F   F2        1.0  0.24249000000000012  0.8707100000000002  0.00202  1.0000
  F   F3        1.0  0.40858  0.91894  0.020190000000000007  1.0000
  F   F4        1.0  0.21911000000000003  0.09014000000000004  0.9981800000000001  1.0000
  F   F5        1.0  0.1286100000000001  0.9620200000000002  0.03829  1.0000
  F   F6        1.0  0.20963  0.11890000000000003  0.06264  1.0000
  F   F7        1.0  0.13331000000000004  0.49024000000000006  0.47659  1.0000
  F   F8        1.0  0.25792  0.6291  0.5009800000000002  1.0000
  F   F9        1.0  0.095  0.58607  0.5212400000000003  1.0000
  F   F10       1.0  0.28089  0.41434  0.49740000000000006  1.0000
  F   F11       1.0  0.37168  0.53833  0.53922  1.0000
  F   F12       1.0  0.29012  0.38067000000000006  0.56164  1.0000
  F   F13       1.0  0.63806  0.99018  0.02429  1.0000
  F   F14       1.0  0.75752  0.12929  0.9979800000000001  1.0000
  F   F15       1.0  0.59143  0.08107  0.9798099999999998  1.0000
  F   F16       1.0  0.7809000000000001  0.9098700000000002  0.00182  1.0000
  F   F17       1.0  0.8714  0.03799  0.96172  1.0000
  F   F18       1.0  0.79038  0.8811100000000001  0.93736  1.0000
  F   F19       1.0  0.8667  0.50977  0.52341  1.0000
  F   F20       1.0  0.74209  0.3709  0.49901999999999996  1.0000
  F   F21       1.0  0.90501  0.41394000000000003  0.47876  1.0000
  F   F22       1.0  0.7191200000000001  0.58566  0.5026  1.0000
  F   F23       1.0  0.62833  0.46168  0.46078  1.0000
  F   F24       1.0  0.70989  0.61933  0.4383600000000001  1.0000
