data_image0
_chemical_formula_structural       Cd6H104C156N16O26
_chemical_formula_sum              "Cd6 H104 C156 N16 O26"
_cell_length_a       14.85972
_cell_length_b       15.65707
_cell_length_c       19.331840000000003
_cell_angle_alpha    112.86329999999998
_cell_angle_beta     111.59006999999998
_cell_angle_gamma    92.50807

_symmetry_space_group_name_H-M    'P 1'
_symmetry_Int_Tables_number       1

loop_
  _symmetry_equiv_pos_as_xyz
  'x,y,z'

loop_
  _atom_site_type_symbol
  _atom_site_label
  _atom_site_symmetry_multiplicity
  _atom_site_fract_x
  _atom_site_fract_y
  _atom_site_fract_z
  _atom_site_occupancy
  Cd  Cd1       1.0  0.7535  0.26394  0.0636  1.0000
  Cd  Cd2       1.0  0.9658099999999997  0.81426  0.18176000000000006  1.0000
  Cd  Cd3       1.0  0.0384  0.27309  0.07525  1.0000
  Cd  Cd4       1.0  0.18888999999999995  0.20002999999999993  0.9365  1.0000
  Cd  Cd5       1.0  0.28548  0.6326900000000001  0.8188700000000002  1.0000
  Cd  Cd6       1.0  0.46248  0.19830000000000003  0.92457  1.0000
  H   H1        1.0  0.81113  0.9744799999999998  0.14432  1.0000
  H   H2        1.0  0.80215  0.44844  0.02929  1.0000
  H   H3        1.0  0.09541999999999998  0.64212  0.16244  1.0000
  H   H4        1.0  0.05313  0.06879  0.08913  1.0000
  H   H5        1.0  0.9331099999999998  0.33772  0.19801  1.0000
  H   H6        1.0  0.9395299999999998  0.22642  0.15864  1.0000
  H   H7        1.0  0.5337699999999997  0.19516999999999995  0.79023  1.0000
  H   H8        1.0  0.48161999999999994  0.15076000000000006  0.64251  1.0000
  H   H9        1.0  0.78682  0.23162999999999997  0.68772  1.0000
  H   H10       1.0  0.8372199999999997  0.28105999999999975  0.83752  1.0000
  H   H11       1.0  0.4623899999999999  0.21259999999999998  0.54939  1.0000
  H   H12       1.0  0.51194  0.08432  0.32958  1.0000
  H   H13       1.0  0.7262099999999998  0.10423  0.55988  1.0000
  H   H14       1.0  0.64728  0.11340000000000003  0.31501  1.0000
  H   H15       1.0  0.7497599999999999  0.04015  0.24218  1.0000
  H   H16       1.0  0.8476500000000001  0.89393  0.39472  1.0000
  H   H17       1.0  0.7455999999999998  0.9681399999999999  0.46949  1.0000
  H   H18       1.0  0.34286999999999995  0.03262999999999998  0.27794  1.0000
  H   H19       1.0  0.21207  0.07562  0.18255  1.0000
  H   H20       1.0  0.26829  0.35272  0.37822  1.0000
  H   H21       1.0  0.40334  0.31164  0.47479  1.0000
  H   H22       1.0  0.015429999999999985  0.09902000000000001  0.78972  1.0000
  H   H23       1.0  0.9261800000000001  0.98914  0.6417400000000002  1.0000
  H   H24       1.0  0.6683199999999998  0.9290599999999998  0.68208  1.0000
  H   H25       1.0  0.76166  0.03628999999999998  0.83188  1.0000
  H   H26       1.0  0.85608  0.8200999999999998  0.54931  1.0000
  H   H27       1.0  0.58318  0.7178  0.32989  1.0000
  H   H28       1.0  0.6021099999999999  0.9385299999999998  0.55623  1.0000
  H   H29       1.0  0.43234999999999996  0.6798799999999999  0.31236  1.0000
  H   H30       1.0  0.25605  0.6792099999999998  0.24486  1.0000
  H   H31       1.0  0.3126  0.97856  0.39707  1.0000
  H   H32       1.0  0.49093999999999993  0.9800899999999998  0.46677  1.0000
  H   H33       1.0  0.6817299999999997  0.6940799999999998  0.27133  1.0000
  H   H34       1.0  0.7339799999999997  0.5583699999999998  0.18619  1.0000
  H   H35       1.0  0.9192  0.5317099999999999  0.4031900000000001  1.0000
  H   H36       1.0  0.8625600000000001  0.66231  0.48838  1.0000
  H   H37       1.0  0.7967  0.14658  0.18862  1.0000
  H   H38       1.0  0.69827  0.027199999999999985  0.93005  1.0000
  H   H39       1.0  0.71937  0.8703399999999998  0.85651  1.0000
  H   H40       1.0  0.7113  0.69956  0.7771200000000003  1.0000
  H   H41       1.0  0.7444999999999998  0.59376  0.84632  1.0000
  H   H42       1.0  0.77387  0.82295  0.07271  1.0000
  H   H43       1.0  0.71486  0.4896299999999998  0.91146  1.0000
  H   H44       1.0  0.8973700000000001  0.5995700000000003  0.16680000000000006  1.0000
  H   H45       1.0  0.10267  0.50793  0.20589  1.0000
  H   H46       1.0  0.009440000000000002  0.37718  0.94756  1.0000
  H   H47       1.0  0.98918  0.47118  0.8702  1.0000
  H   H48       1.0  0.9543400000000001  0.5702799999999999  0.7932600000000001  1.0000
  H   H49       1.0  0.95957  0.74059  0.86499  1.0000
  H   H50       1.0  0.06808  0.72285  0.0968  1.0000
  H   H51       1.0  0.03692000000000001  0.92005  0.95971  1.0000
  H   H52       1.0  0.01876999999999999  0.022459999999999994  0.19019  1.0000
  H   H53       1.0  0.16722999999999993  0.8297099999999997  0.85527  1.0000
  H   H54       1.0  0.27262999999999993  0.41850999999999994  0.97028  1.0000
  H   H55       1.0  0.43418999999999996  0.4803600000000001  0.8375900000000002  1.0000
  H   H56       1.0  0.46428  0.9802200000000002  0.9111500000000002  1.0000
  H   H57       1.0  0.23435  0.13930999999999996  0.80218  1.0000
  H   H58       1.0  0.28087  0.06780000000000004  0.84156  1.0000
  H   H59       1.0  0.24329999999999993  0.4059099999999999  0.20935  1.0000
  H   H60       1.0  0.33858  0.50968  0.35698  1.0000
  H   H61       1.0  0.59953  0.5442699999999998  0.31284  1.0000
  H   H62       1.0  0.50033  0.44338  0.16307  1.0000
  H   H63       1.0  0.41339  0.66418  0.45078  1.0000
  H   H64       1.0  0.68285  0.75484  0.67103  1.0000
  H   H65       1.0  0.6667  0.54536  0.4404800000000001  1.0000
  H   H66       1.0  0.83352  0.7986799999999998  0.68611  1.0000
  H   H67       1.0  0.00880000000000014  0.7973300000000001  0.7590900000000003  1.0000
  H   H68       1.0  0.9527600000000002  0.49867999999999996  0.60575  1.0000
  H   H69       1.0  0.7761499999999999  0.4989299999999999  0.53053  1.0000
  H   H70       1.0  0.5644499999999997  0.7546799999999998  0.72218  1.0000
  H   H71       1.0  0.52942  0.89306  0.81752  1.0000
  H   H72       1.0  0.38958  0.97439  0.62179  1.0000
  H   H73       1.0  0.4280299999999999  0.8369399999999998  0.52543  1.0000
  H   H74       1.0  0.7262899999999998  0.31059999999999993  0.21121  1.0000
  H   H75       1.0  0.7842699999999998  0.3481899999999999  0.359  1.0000
  H   H76       1.0  0.48552  0.24677999999999997  0.31679  1.0000
  H   H77       1.0  0.42951  0.20495  0.16726  1.0000
  H   H78       1.0  0.80618  0.27095  0.45044  1.0000
  H   H79       1.0  0.75292  0.3877899999999999  0.66959  1.0000
  H   H80       1.0  0.54523  0.38244  0.44329  1.0000
  H   H81       1.0  0.61965  0.36720999999999987  0.6868  1.0000
  H   H82       1.0  0.51143  0.43449  0.75462  1.0000
  H   H83       1.0  0.41481999999999997  0.5810099999999998  0.60213  1.0000
  H   H84       1.0  0.5236300000000002  0.51322  0.5327500000000002  1.0000
  H   H85       1.0  0.9101199999999998  0.4229400000000001  0.7284800000000002  1.0000
  H   H86       1.0  0.04695  0.3717799999999999  0.81397  1.0000
  H   H87       1.0  0.015540000000000012  0.12850999999999996  0.59692  1.0000
  H   H88       1.0  0.8742  0.17441  0.5113  1.0000
  H   H89       1.0  0.1084299999999999  0.95761  0.81115  1.0000
  H   H90       1.0  0.2679800000000001  0.09660999999999997  0.06984  1.0000
  H   H91       1.0  0.36247  0.013629999999999982  0.14322  1.0000
  H   H92       1.0  0.43406999999999984  0.92253  0.22287  1.0000
  H   H93       1.0  0.39866  0.7475099999999996  0.15381  1.0000
  H   H94       1.0  0.2015599999999999  0.74952  0.92692  1.0000
  H   H95       1.0  0.30319  0.57756  0.08817  1.0000
  H   H96       1.0  0.23083999999999988  0.4322899999999999  0.83301  1.0000
  H   H97       1.0  0.39717  0.30266  0.79376  1.0000
  H   H98       1.0  0.56066  0.4297699999999999  0.05239  1.0000
  H   H99       1.0  0.61891  0.6015800000000001  0.13020000000000007  1.0000
  H   H100      1.0  0.6609  0.7776299999999998  0.2073  1.0000
  H   H101      1.0  0.59472  0.8763  0.13553  1.0000
  H   H102      1.0  0.47246  0.62665  0.90349  1.0000
  H   H103      1.0  0.5773099999999998  0.96153  0.04119  1.0000
  H   H104      1.0  0.3295699999999999  0.8324699999999999  0.80965  1.0000
  C   C1        1.0  0.7171899999999998  0.26255  0.91206  1.0000
  C   C2        1.0  0.68857  0.24267  0.82401  1.0000
  C   C3        1.0  0.58865  0.20614  0.76825  1.0000
  C   C4        1.0  0.55952  0.18053  0.68465  1.0000
  C   C5        1.0  0.6299599999999999  0.18870000000000012  0.6537500000000002  1.0000
  C   C6        1.0  0.7306800000000001  0.22471  0.7099400000000002  1.0000
  C   C7        1.0  0.75952  0.2530300000000001  0.7943400000000003  1.0000
  C   C8        1.0  0.5972399999999998  0.15994  0.56429  1.0000
  C   C9        1.0  0.50718  0.17668000000000003  0.51835  1.0000
  C   C10       1.0  0.47560999999999987  0.14938  0.43346  1.0000
  C   C11       1.0  0.53551  0.10481999999999994  0.39518  1.0000
  C   C12       1.0  0.6259499999999999  0.08855000000000007  0.43958000000000014  1.0000
  C   C13       1.0  0.65596  0.11598999999999994  0.5243  1.0000
  C   C14       1.0  0.6881599999999998  0.04514  0.39704  1.0000
  C   C15       1.0  0.6900499999999998  0.06460000000000003  0.33226  1.0000
  C   C16       1.0  0.7483  0.023950000000000003  0.29159  1.0000
  C   C17       1.0  0.80502  0.96187  0.31366  1.0000
  C   C18       1.0  0.8039499999999999  0.9427399999999998  0.37855  1.0000
  C   C19       1.0  0.74683  0.9844499999999998  0.42006  1.0000
  C   C20       1.0  0.8639899999999998  0.9141699999999998  0.2682  1.0000
  C   C21       1.0  0.38533000000000006  0.17008000000000006  0.3824800000000001  1.0000
  C   C22       1.0  0.32815  0.10347999999999997  0.30011  1.0000
  C   C23       1.0  0.25349  0.12723  0.24645  1.0000
  C   C24       1.0  0.23285  0.21807999999999989  0.27397  1.0000
  C   C25       1.0  0.2855500000000001  0.28284  0.3574100000000001  1.0000
  C   C26       1.0  0.36057  0.2591599999999999  0.41118  1.0000
  C   C27       1.0  0.16076000000000001  0.24877  0.21550000000000005  1.0000
  C   C28       1.0  0.9465199999999998  0.14102  0.91003  1.0000
  C   C29       1.0  0.89491  0.07307999999999995  0.82098  1.0000
  C   C30       1.0  0.9404999999999999  0.05953  0.76669  1.0000
  C   C31       1.0  0.8899199999999999  0.99791  0.68307  1.0000
  C   C32       1.0  0.79088  0.95027  0.65104  1.0000
  C   C33       1.0  0.7448799999999997  0.96518  0.70557  1.0000
  C   C34       1.0  0.79663  0.024720000000000127  0.7894600000000003  1.0000
  C   C35       1.0  0.7352099999999999  0.8866399999999998  0.56199  1.0000
  C   C36       1.0  0.77947  0.8227  0.51764  1.0000
  C   C37       1.0  0.7251899999999998  0.76064  0.43366  1.0000
  C   C38       1.0  0.6264100000000001  0.7657899999999999  0.39467000000000013  1.0000
  C   C39       1.0  0.58058  0.8292100000000001  0.4372600000000001  1.0000
  C   C40       1.0  0.63604  0.88927  0.52141  1.0000
  C   C41       1.0  0.47528  0.8300999999999997  0.39496  1.0000
  C   C42       1.0  0.40734  0.74602  0.33093  1.0000
  C   C43       1.0  0.30731  0.74537  0.29309  1.0000
  C   C44       1.0  0.27225  0.82905  0.31719  1.0000
  C   C45       1.0  0.33992  0.91354  0.37982  1.0000
  C   C46       1.0  0.43967  0.9138799999999998  0.41856  1.0000
  C   C47       1.0  0.16537  0.8304199999999997  0.27742  1.0000
  C   C48       1.0  0.76675  0.68766  0.38609  1.0000
  C   C49       1.0  0.7326  0.65804  0.30044  1.0000
  C   C50       1.0  0.76189  0.5829899999999998  0.25259  1.0000
  C   C51       1.0  0.82826  0.53578  0.28856  1.0000
  C   C52       1.0  0.86683  0.56732  0.3745  1.0000
  C   C53       1.0  0.8357200000000001  0.64177  0.42246  1.0000
  C   C54       1.0  0.85085  0.45072  0.23267  1.0000
  C   C55       1.0  0.7766  0.096  0.12526  1.0000
  C   C56       1.0  0.7267200000000001  0.03073999999999996  0.9915400000000001  1.0000
  C   C57       1.0  0.75075  0.9597  0.01685  1.0000
  C   C58       1.0  0.7475  0.85945  0.97067  1.0000
  C   C59       1.0  0.72938  0.8232400000000001  0.8865900000000002  1.0000
  C   C60       1.0  0.7255999999999999  0.72748  0.84216  1.0000
  C   C61       1.0  0.7433000000000001  0.66721  0.8808400000000002  1.0000
  C   C62       1.0  0.76386  0.70223  0.96519  1.0000
  C   C63       1.0  0.76291  0.7975900000000001  0.008620000000000003  1.0000
  C   C64       1.0  0.78845  0.64041  0.0069  1.0000
  C   C65       1.0  0.76124  0.5424999999999998  0.97342  1.0000
  C   C66       1.0  0.8557499999999998  0.5982599999999999  0.10713  1.0000
  C   C67       1.0  0.08162  0.4983399999999998  0.14299  1.0000
  C   C68       1.0  0.03331  0.4341599999999999  0.00903  1.0000
  C   C69       1.0  0.04811999999999998  0.5317099999999998  0.03522  1.0000
  C   C70       1.0  0.02941  0.5892499999999998  0.9893500000000001  1.0000
  C   C71       1.0  0.9976500000000003  0.5472000000000002  0.9030600000000002  1.0000
  C   C72       1.0  0.9766499999999998  0.60259  0.85973  1.0000
  C   C73       1.0  0.98154  0.69945  0.90027  1.0000
  C   C74       1.0  0.01143999999999999  0.74264  0.98621  1.0000
  C   C75       1.0  0.03883  0.68757  0.02987  1.0000
  C   C76       1.0  0.014189999999999994  0.8429899999999998  0.03088  1.0000
  C   C77       1.0  0.02697999999999999  0.9176499999999997  0.01154  1.0000
  C   C78       1.0  0.01819  0.9730299999999998  0.13234  1.0000
  C   C79       1.0  0.3052  0.35061  0.08796000000000002  1.0000
  C   C80       1.0  0.36475  0.4190299999999999  0.17603  1.0000
  C   C81       1.0  0.3203  0.43879  0.23151  1.0000
  C   C82       1.0  0.37469  0.497  0.31516  1.0000
  C   C83       1.0  0.4763199999999999  0.5357399999999998  0.34641  1.0000
  C   C84       1.0  0.5210299999999998  0.51524  0.29045  1.0000
  C   C85       1.0  0.4655699999999999  0.4589199999999999  0.20602000000000006  1.0000
  C   C86       1.0  0.53321  0.5964799999999998  0.43593  1.0000
  C   C87       1.0  0.4891899999999999  0.65908  0.48191  1.0000
  C   C88       1.0  0.5425099999999998  0.7164199999999997  0.56692  1.0000
  C   C89       1.0  0.64075  0.70999  0.60533  1.0000
  C   C90       1.0  0.68681  0.64954  0.56085  1.0000
  C   C91       1.0  0.63201  0.59255  0.47604  1.0000
  C   C92       1.0  0.79162  0.64843  0.60342  1.0000
  C   C93       1.0  0.85859  0.7324299999999999  0.66858  1.0000
  C   C94       1.0  0.95745  0.7320500000000001  0.7093700000000002  1.0000
  C   C95       1.0  0.9917999999999999  0.64778  0.68714  1.0000
  C   C96       1.0  0.9255799999999998  0.56389  0.622  1.0000
  C   C97       1.0  0.827  0.5645299999999998  0.58028  1.0000
  C   C98       1.0  0.09647000000000013  0.64603  0.7328500000000002  1.0000
  C   C99       1.0  0.50303  0.7879599999999998  0.6178  1.0000
  C   C100      1.0  0.52801  0.8036099999999998  0.70007  1.0000
  C   C101      1.0  0.50696  0.88097  0.75371  1.0000
  C   C102      1.0  0.45861  0.9442899999999997  0.7263  1.0000
  C   C103      1.0  0.4279200000000001  0.9256000000000001  0.6428500000000003  1.0000
  C   C104      1.0  0.4493  0.84827  0.58912  1.0000
  C   C105      1.0  0.44386  0.032939999999999955  0.78451  1.0000
  C   C106      1.0  0.53768  0.23320999999999997  0.09012000000000003  1.0000
  C   C107      1.0  0.57413  0.25329  0.17893000000000006  1.0000
  C   C108      1.0  0.67408  0.2938200000000001  0.23374000000000006  1.0000
  C   C109      1.0  0.7067  0.31549  0.31723  1.0000
  C   C110      1.0  0.63934  0.29953  0.3487  1.0000
  C   C111      1.0  0.5388000000000001  0.2597200000000001  0.2936600000000001  1.0000
  C   C112      1.0  0.50703  0.23578  0.20986  1.0000
  C   C113      1.0  0.67261  0.3247799999999999  0.43766  1.0000
  C   C114      1.0  0.7613  0.3051699999999999  0.48207  1.0000
  C   C115      1.0  0.79122  0.32715  0.56604  1.0000
  C   C116      1.0  0.73136  0.37110000000000004  0.60487  1.0000
  C   C117      1.0  0.64285  0.39190999999999987  0.56223  1.0000
  C   C118      1.0  0.61401  0.3679  0.47813  1.0000
  C   C119      1.0  0.58004  0.43513999999999997  0.60455  1.0000
  C   C120      1.0  0.57618  0.4149599999999999  0.66843  1.0000
  C   C121      1.0  0.5141999999999998  0.45225  0.70632  1.0000
  C   C122      1.0  0.455  0.51183  0.68228  1.0000
  C   C123      1.0  0.45962  0.53346  0.61952  1.0000
  C   C124      1.0  0.52069  0.49521  0.5809100000000003  1.0000
  C   C125      1.0  0.3884400000000001  0.55328  0.7224300000000002  1.0000
  C   C126      1.0  0.8804300000000002  0.30179  0.61372  1.0000
  C   C127      1.0  0.93172  0.35763  0.69951  1.0000
  C   C128      1.0  0.008530000000000008  0.33012  0.74749  1.0000
  C   C129      1.0  0.038919999999999955  0.24699  0.71149  1.0000
  C   C130      1.0  0.9916999999999998  0.19275  0.62545  1.0000
  C   C131      1.0  0.91296  0.21952000000000002  0.57738  1.0000
  C   C132      1.0  0.11771  0.21770999999999993  0.76714  1.0000
  C   C133      1.0  0.1517100000000001  0.9704200000000001  0.8745200000000002  1.0000
  C   C134      1.0  0.23529  0.03875  0.00828  1.0000
  C   C135      1.0  0.23419000000000012  0.9424000000000001  0.9828200000000002  1.0000
  C   C136      1.0  0.27704  0.88828  0.02896  1.0000
  C   C137      1.0  0.3427499999999999  0.93639  0.11317  1.0000
  C   C138      1.0  0.38349  0.8852699999999998  0.15775  1.0000
  C   C139      1.0  0.36282  0.78625  0.11913  1.0000
  C   C140      1.0  0.29914  0.73667  0.0347  1.0000
  C   C141      1.0  0.25467000000000006  0.78842  0.9910700000000001  1.0000
  C   C142      1.0  0.28203  0.63307  0.9930100000000001  1.0000
  C   C143      1.0  0.28784  0.56853  0.02631  1.0000
  C   C144      1.0  0.24895999999999993  0.49065  0.89271  1.0000
  C   C145      1.0  0.4389300000000001  0.35589  0.8567900000000003  1.0000
  C   C146      1.0  0.5237399999999999  0.42546000000000006  0.9909200000000001  1.0000
  C   C147      1.0  0.51312  0.4969699999999999  0.96492  1.0000
  C   C148      1.0  0.54047  0.60045  0.01097  1.0000
  C   C149      1.0  0.5947  0.6447399999999998  0.09733  1.0000
  C   C150      1.0  0.61698  0.7435199999999997  0.14075000000000004  1.0000
  C   C151      1.0  0.58156  0.79986  0.1002  1.0000
  C   C152      1.0  0.52592  0.75707  0.01417  1.0000
  C   C153      1.0  0.50975  0.6583  0.97046  1.0000
  C   C154      1.0  0.4841199999999999  0.8127499999999999  0.96947  1.0000
  C   C155      1.0  0.51592  0.90692  0.989  1.0000
  C   C156      1.0  0.38672999999999996  0.84096  0.86768  1.0000
  N   N1        1.0  0.74307  0.11475999999999997  0.0594  1.0000
  N   N2        1.0  0.78163  0.0034600000000000004  0.10202  1.0000
  N   N3        1.0  0.84839  0.67406  0.09111  1.0000
  N   N4        1.0  0.8039  0.51774  0.03724  1.0000
  N   N5        1.0  0.05391  0.4148499999999999  0.07652  1.0000
  N   N6        1.0  0.07962  0.57009  0.12053  1.0000
  N   N7        1.0  0.007799999999999981  0.8794799999999998  0.10675  1.0000
  N   N8        1.0  0.029039999999999993  0.99849  0.07593  1.0000
  N   N9        1.0  0.1838  0.05501000000000002  0.94049  1.0000
  N   N10       1.0  0.1801100000000001  0.90113  0.8976400000000002  1.0000
  N   N11       1.0  0.25797000000000014  0.58254  0.9088700000000001  1.0000
  N   N12       1.0  0.26659  0.4799299999999999  0.96243  1.0000
  N   N13       1.0  0.47693  0.3386799999999999  0.9232  1.0000
  N   N14       1.0  0.45984000000000014  0.4501600000000001  0.8794900000000002  1.0000
  N   N15       1.0  0.4020900000000001  0.7730599999999999  0.8932700000000002  1.0000
  N   N16       1.0  0.45363  0.9231199999999998  0.9244  1.0000
  O   O1        1.0  0.7970599999999998  0.32103999999999977  0.96928  1.0000
  O   O2        1.0  0.6587499999999998  0.21585000000000004  0.92687  1.0000
  O   O3        1.0  0.90308  0.8489899999999998  0.28238  1.0000
  O   O4        1.0  0.8730099999999997  0.93941  0.2144  1.0000
  O   O5        1.0  0.14979999999999996  0.33283  0.2392  1.0000
  O   O6        1.0  0.11266  0.18537  0.13847  1.0000
  O   O7        1.0  0.9087799999999999  0.14272000000000012  0.9596100000000002  1.0000
  O   O8        1.0  0.02790000000000006  0.19979000000000008  0.9350200000000002  1.0000
  O   O9        1.0  0.13773000000000002  0.90773  0.29183  1.0000
  O   O10       1.0  0.10236999999999997  0.7489599999999997  0.227  1.0000
  O   O11       1.0  0.91979  0.4138099999999999  0.26422  1.0000
  O   O12       1.0  0.7959000000000002  0.41947  0.15486  1.0000
  O   O13       1.0  0.92662  0.27844999999999986  0.14334  1.0000
  O   O14       1.0  0.32801  0.35117  0.030730000000000007  1.0000
  O   O15       1.0  0.23148999999999995  0.28952999999999995  0.07316  1.0000
  O   O16       1.0  0.12197000000000005  0.56693  0.7187  1.0000
  O   O17       1.0  0.15919000000000005  0.72529  0.78665  1.0000
  O   O18       1.0  0.40872  0.09289999999999998  0.76052  1.0000
  O   O19       1.0  0.4723599999999999  0.046870000000000016  0.8616  1.0000
  O   O20       1.0  0.45029  0.18493  0.03985  1.0000
  O   O21       1.0  0.5944899999999997  0.26784  0.06606  1.0000
  O   O22       1.0  0.34567000000000003  0.61554  0.70761  1.0000
  O   O23       1.0  0.37728  0.52323  0.77379  1.0000
  O   O24       1.0  0.15513999999999994  0.14950999999999995  0.7353  1.0000
  O   O25       1.0  0.14099  0.26395  0.84503  1.0000
  O   O26       1.0  0.28202  0.135  0.85698  1.0000
