data_image0
_chemical_formula_structural       Cd36H24C72N96Cl12
_chemical_formula_sum              "Cd36 H24 C72 N96 Cl12"
_cell_length_a       19.66535
_cell_length_b       19.66535
_cell_length_c       19.66535
_cell_angle_alpha    90.0
_cell_angle_beta     90.0
_cell_angle_gamma    90.0

_symmetry_space_group_name_H-M    'P 1'
_symmetry_Int_Tables_number       1

loop_
  _symmetry_equiv_pos_as_xyz
  'x,y,z'

loop_
  _atom_site_type_symbol
  _atom_site_label
  _atom_site_symmetry_multiplicity
  _atom_site_fract_x
  _atom_site_fract_y
  _atom_site_fract_z
  _atom_site_occupancy
  Cd  Cd1       1.0  0.38961  0.5  0.0  1.0000
  Cd  Cd2       1.0  0.61039  0.5  0.0  1.0000
  Cd  Cd3       1.0  0.0  0.38961  0.5  1.0000
  Cd  Cd4       1.0  0.0  0.61039  0.5  1.0000
  Cd  Cd5       1.0  0.5  0.0  0.38961  1.0000
  Cd  Cd6       1.0  0.5  0.0  0.61039  1.0000
  Cd  Cd7       1.0  0.5  0.38961  0.0  1.0000
  Cd  Cd8       1.0  0.5  0.61039  0.0  1.0000
  Cd  Cd9       1.0  0.38961  0.0  0.5  1.0000
  Cd  Cd10      1.0  0.61039  0.0  0.5  1.0000
  Cd  Cd11      1.0  0.0  0.5  0.61039  1.0000
  Cd  Cd12      1.0  0.0  0.5  0.38961  1.0000
  Cd  Cd13      1.0  0.2328  0.5  0.13516  1.0000
  Cd  Cd14      1.0  0.7672099999999998  0.5  0.13516  1.0000
  Cd  Cd15      1.0  0.7672099999999998  0.5  0.86484  1.0000
  Cd  Cd16      1.0  0.2328  0.5  0.86484  1.0000
  Cd  Cd17      1.0  0.13516  0.2328  0.5  1.0000
  Cd  Cd18      1.0  0.13516  0.7672099999999998  0.5  1.0000
  Cd  Cd19      1.0  0.86484  0.7672099999999998  0.5  1.0000
  Cd  Cd20      1.0  0.86484  0.2328  0.5  1.0000
  Cd  Cd21      1.0  0.5  0.13516  0.2328  1.0000
  Cd  Cd22      1.0  0.5  0.13516  0.7672099999999998  1.0000
  Cd  Cd23      1.0  0.5  0.86484  0.7672099999999998  1.0000
  Cd  Cd24      1.0  0.5  0.86484  0.2328  1.0000
  Cd  Cd25      1.0  0.5  0.2328  0.86484  1.0000
  Cd  Cd26      1.0  0.5  0.7672099999999998  0.86484  1.0000
  Cd  Cd27      1.0  0.5  0.7672099999999998  0.13516  1.0000
  Cd  Cd28      1.0  0.5  0.2328  0.13516  1.0000
  Cd  Cd29      1.0  0.2328  0.13516  0.5  1.0000
  Cd  Cd30      1.0  0.7672099999999998  0.13516  0.5  1.0000
  Cd  Cd31      1.0  0.7672099999999998  0.86484  0.5  1.0000
  Cd  Cd32      1.0  0.2328  0.86484  0.5  1.0000
  Cd  Cd33      1.0  0.13516  0.5  0.7672099999999998  1.0000
  Cd  Cd34      1.0  0.13516  0.5  0.2328  1.0000
  Cd  Cd35      1.0  0.86484  0.5  0.2328  1.0000
  Cd  Cd36      1.0  0.86484  0.5  0.7672099999999998  1.0000
  H   H1        1.0  0.23598  0.39086  0.23598  1.0000
  H   H2        1.0  0.76403  0.60914  0.23596999999999999  1.0000
  H   H3        1.0  0.7640199999999999  0.39086  0.7640199999999999  1.0000
  H   H4        1.0  0.23596999999999999  0.60914  0.76403  1.0000
  H   H5        1.0  0.23598  0.23598  0.39086  1.0000
  H   H6        1.0  0.23598  0.76403  0.60914  1.0000
  H   H7        1.0  0.7640199999999999  0.7640199999999999  0.39086  1.0000
  H   H8        1.0  0.76403  0.23598  0.60914  1.0000
  H   H9        1.0  0.39086  0.23598  0.23598  1.0000
  H   H10       1.0  0.60914  0.23598  0.76403  1.0000
  H   H11       1.0  0.39086  0.7640199999999999  0.7640199999999999  1.0000
  H   H12       1.0  0.60914  0.76403  0.23598  1.0000
  H   H13       1.0  0.39086  0.23598  0.76403  1.0000
  H   H14       1.0  0.60914  0.76403  0.76403  1.0000
  H   H15       1.0  0.39086  0.7640199999999999  0.23598  1.0000
  H   H16       1.0  0.60914  0.23598  0.23598  1.0000
  H   H17       1.0  0.23598  0.23598  0.60914  1.0000
  H   H18       1.0  0.76403  0.23598  0.39086  1.0000
  H   H19       1.0  0.7640199999999999  0.7640199999999999  0.60915  1.0000
  H   H20       1.0  0.23598  0.76403  0.39086  1.0000
  H   H21       1.0  0.23598  0.39086  0.76403  1.0000
  H   H22       1.0  0.23596999999999999  0.60914  0.23598  1.0000
  H   H23       1.0  0.7640199999999999  0.39086  0.23598  1.0000
  H   H24       1.0  0.76403  0.60914  0.76403  1.0000
  C   C1        1.0  0.34787  0.34788  0.16928  1.0000
  C   C2        1.0  0.31701  0.31701  0.22945  1.0000
  C   C3        1.0  0.65212  0.65213  0.16927  1.0000
  C   C4        1.0  0.683  0.68299  0.22945  1.0000
  C   C5        1.0  0.65213  0.34788  0.83073  1.0000
  C   C6        1.0  0.68299  0.317  0.77055  1.0000
  C   C7        1.0  0.34788  0.65213  0.83073  1.0000
  C   C8        1.0  0.317  0.68299  0.77055  1.0000
  C   C9        1.0  0.16928  0.34788  0.34787  1.0000
  C   C10       1.0  0.22945  0.31701  0.31701  1.0000
  C   C11       1.0  0.16927  0.65213  0.65212  1.0000
  C   C12       1.0  0.22945  0.68299  0.683  1.0000
  C   C13       1.0  0.83073  0.65213  0.34788  1.0000
  C   C14       1.0  0.77055  0.68298  0.317  1.0000
  C   C15       1.0  0.8307199999999999  0.34788  0.65213  1.0000
  C   C16       1.0  0.7705599999999999  0.31701  0.68299  1.0000
  C   C17       1.0  0.34788  0.16927  0.34788  1.0000
  C   C18       1.0  0.31701  0.22945  0.31701  1.0000
  C   C19       1.0  0.65213  0.16927  0.65212  1.0000
  C   C20       1.0  0.68299  0.22945  0.68299  1.0000
  C   C21       1.0  0.34787  0.83073  0.65213  1.0000
  C   C22       1.0  0.31701  0.7705599999999999  0.68299  1.0000
  C   C23       1.0  0.65213  0.8307199999999999  0.34787  1.0000
  C   C24       1.0  0.68299  0.7705599999999999  0.31701  1.0000
  C   C25       1.0  0.34787  0.34788  0.83073  1.0000
  C   C26       1.0  0.31701  0.31701  0.77055  1.0000
  C   C27       1.0  0.65212  0.65212  0.83073  1.0000
  C   C28       1.0  0.683  0.68299  0.77055  1.0000
  C   C29       1.0  0.34788  0.65213  0.16927  1.0000
  C   C30       1.0  0.317  0.68299  0.22945  1.0000
  C   C31       1.0  0.65213  0.34788  0.16928  1.0000
  C   C32       1.0  0.68298  0.317  0.22945  1.0000
  C   C33       1.0  0.34787  0.16927  0.65213  1.0000
  C   C34       1.0  0.31701  0.22945  0.683  1.0000
  C   C35       1.0  0.65213  0.16927  0.34788  1.0000
  C   C36       1.0  0.68299  0.22945  0.31701  1.0000
  C   C37       1.0  0.65213  0.8307199999999999  0.65213  1.0000
  C   C38       1.0  0.68298  0.7705599999999999  0.683  1.0000
  C   C39       1.0  0.34788  0.83073  0.34787  1.0000
  C   C40       1.0  0.317  0.77055  0.31701  1.0000
  C   C41       1.0  0.16928  0.34787  0.65213  1.0000
  C   C42       1.0  0.22945  0.31701  0.68299  1.0000
  C   C43       1.0  0.16927  0.65213  0.34788  1.0000
  C   C44       1.0  0.22945  0.68299  0.31701  1.0000
  C   C45       1.0  0.8307199999999999  0.34788  0.34787  1.0000
  C   C46       1.0  0.7705599999999999  0.317  0.31702  1.0000
  C   C47       1.0  0.83073  0.65213  0.65212  1.0000
  C   C48       1.0  0.77055  0.68298  0.683  1.0000
  C   C49       1.0  0.25864  0.34585  0.25864  1.0000
  C   C50       1.0  0.7413599999999999  0.65417  0.25865  1.0000
  C   C51       1.0  0.7413599999999999  0.34585  0.7413599999999999  1.0000
  C   C52       1.0  0.25865  0.65417  0.74135  1.0000
  C   C53       1.0  0.25864  0.25865  0.3458399999999999  1.0000
  C   C54       1.0  0.25864  0.7413599999999999  0.65415  1.0000
  C   C55       1.0  0.7413599999999999  0.7413599999999999  0.34585  1.0000
  C   C56       1.0  0.7413599999999999  0.25865  0.65416  1.0000
  C   C57       1.0  0.3458399999999999  0.25865  0.25864  1.0000
  C   C58       1.0  0.65416  0.25865  0.7413599999999999  1.0000
  C   C59       1.0  0.34585  0.7413599999999999  0.7413599999999999  1.0000
  C   C60       1.0  0.65416  0.7413599999999999  0.25864  1.0000
  C   C61       1.0  0.3458399999999999  0.25864  0.7413599999999999  1.0000
  C   C62       1.0  0.65416  0.7413599999999999  0.74135  1.0000
  C   C63       1.0  0.34585  0.7413599999999999  0.25864  1.0000
  C   C64       1.0  0.65416  0.25865  0.25864  1.0000
  C   C65       1.0  0.25864  0.25864  0.65416  1.0000
  C   C66       1.0  0.7413599999999999  0.25865  0.3458399999999999  1.0000
  C   C67       1.0  0.7413599999999999  0.74137  0.65415  1.0000
  C   C68       1.0  0.25865  0.7413599999999999  0.3458399999999999  1.0000
  C   C69       1.0  0.25864  0.3458399999999999  0.7413599999999999  1.0000
  C   C70       1.0  0.25865  0.65416  0.25864  1.0000
  C   C71       1.0  0.7413599999999999  0.34585  0.25864  1.0000
  C   C72       1.0  0.7413599999999999  0.65417  0.74135  1.0000
  N   N1        1.0  0.36729999999999996  0.41476  0.08562  1.0000
  N   N2        1.0  0.32436  0.40437  0.13729  1.0000
  N   N3        1.0  0.63271  0.58524  0.08562  1.0000
  N   N4        1.0  0.6756499999999999  0.5956299999999999  0.13729  1.0000
  N   N5        1.0  0.63271  0.41476  0.9143799999999999  1.0000
  N   N6        1.0  0.67564  0.40437  0.8627099999999999  1.0000
  N   N7        1.0  0.36729999999999996  0.58524  0.9143799999999999  1.0000
  N   N8        1.0  0.32434999999999997  0.5956299999999999  0.8627099999999999  1.0000
  N   N9        1.0  0.08562  0.36729999999999996  0.41476  1.0000
  N   N10       1.0  0.13729  0.32436  0.40438  1.0000
  N   N11       1.0  0.08562  0.63271  0.58524  1.0000
  N   N12       1.0  0.13729  0.67564  0.5956299999999999  1.0000
  N   N13       1.0  0.9143799999999999  0.63271  0.41476  1.0000
  N   N14       1.0  0.8627099999999999  0.67564  0.40437  1.0000
  N   N15       1.0  0.9143799999999999  0.36729999999999996  0.58524  1.0000
  N   N16       1.0  0.8627099999999999  0.32436  0.5956299999999999  1.0000
  N   N17       1.0  0.41476  0.08562  0.36729999999999996  1.0000
  N   N18       1.0  0.40437  0.13729  0.32436  1.0000
  N   N19       1.0  0.58524  0.08562  0.63271  1.0000
  N   N20       1.0  0.5956299999999999  0.13729  0.6756499999999999  1.0000
  N   N21       1.0  0.41476  0.9143799999999999  0.63271  1.0000
  N   N22       1.0  0.40437  0.8627099999999999  0.6756499999999999  1.0000
  N   N23       1.0  0.58524  0.9143799999999999  0.36729999999999996  1.0000
  N   N24       1.0  0.5956299999999999  0.8627099999999999  0.32436  1.0000
  N   N25       1.0  0.41476  0.36729999999999996  0.9143799999999999  1.0000
  N   N26       1.0  0.40437  0.32436  0.8627099999999999  1.0000
  N   N27       1.0  0.58524  0.63271  0.9143799999999999  1.0000
  N   N28       1.0  0.5956299999999999  0.6756499999999999  0.8627099999999999  1.0000
  N   N29       1.0  0.41476  0.63271  0.08562  1.0000
  N   N30       1.0  0.40437  0.67564  0.13729  1.0000
  N   N31       1.0  0.58524  0.36729999999999996  0.08562  1.0000
  N   N32       1.0  0.5956299999999999  0.32436  0.13729  1.0000
  N   N33       1.0  0.36729999999999996  0.08562  0.58524  1.0000
  N   N34       1.0  0.32436  0.13729  0.5956299999999999  1.0000
  N   N35       1.0  0.63271  0.08562  0.41476  1.0000
  N   N36       1.0  0.6756499999999999  0.13729  0.40437  1.0000
  N   N37       1.0  0.63271  0.9143799999999999  0.58524  1.0000
  N   N38       1.0  0.67564  0.8627099999999999  0.5956299999999999  1.0000
  N   N39       1.0  0.36729999999999996  0.9143799999999999  0.41476  1.0000
  N   N40       1.0  0.32434999999999997  0.8627099999999999  0.40438  1.0000
  N   N41       1.0  0.08562  0.41476  0.63271  1.0000
  N   N42       1.0  0.13729  0.40437  0.6756499999999999  1.0000
  N   N43       1.0  0.08562  0.58524  0.36729999999999996  1.0000
  N   N44       1.0  0.13729  0.5956299999999999  0.32436  1.0000
  N   N45       1.0  0.9143799999999999  0.41476  0.36729999999999996  1.0000
  N   N46       1.0  0.8627099999999999  0.40437  0.32436  1.0000
  N   N47       1.0  0.9143799999999999  0.58524  0.6326999999999999  1.0000
  N   N48       1.0  0.8627099999999999  0.5956299999999999  0.6756499999999999  1.0000
  N   N49       1.0  0.63271  0.58524  0.9143799999999999  1.0000
  N   N50       1.0  0.6756499999999999  0.5956299999999999  0.8627099999999999  1.0000
  N   N51       1.0  0.36729999999999996  0.41476  0.9143799999999999  1.0000
  N   N52       1.0  0.32436  0.40437  0.8627099999999999  1.0000
  N   N53       1.0  0.36729999999999996  0.58524  0.08562  1.0000
  N   N54       1.0  0.32434999999999997  0.5956299999999999  0.13729  1.0000
  N   N55       1.0  0.63271  0.41476  0.08562  1.0000
  N   N56       1.0  0.67564  0.40437  0.13729  1.0000
  N   N57       1.0  0.9143799999999999  0.63271  0.58524  1.0000
  N   N58       1.0  0.8627099999999999  0.67564  0.5956299999999999  1.0000
  N   N59       1.0  0.9143799999999999  0.36729999999999996  0.41476  1.0000
  N   N60       1.0  0.8627099999999999  0.32436  0.40438  1.0000
  N   N61       1.0  0.08562  0.36729999999999996  0.58524  1.0000
  N   N62       1.0  0.13729  0.32436  0.5956299999999999  1.0000
  N   N63       1.0  0.08562  0.63271  0.41476  1.0000
  N   N64       1.0  0.13729  0.6756499999999999  0.40437  1.0000
  N   N65       1.0  0.58524  0.9143799999999999  0.6326999999999999  1.0000
  N   N66       1.0  0.5956299999999999  0.8627099999999999  0.6756499999999999  1.0000
  N   N67       1.0  0.41476  0.9143799999999999  0.36729999999999996  1.0000
  N   N68       1.0  0.40437  0.8627099999999999  0.32436  1.0000
  N   N69       1.0  0.58524  0.08562  0.36729999999999996  1.0000
  N   N70       1.0  0.5956299999999999  0.13729  0.32436  1.0000
  N   N71       1.0  0.41476  0.08562  0.63271  1.0000
  N   N72       1.0  0.40437  0.13729  0.6756499999999999  1.0000
  N   N73       1.0  0.58524  0.63271  0.08562  1.0000
  N   N74       1.0  0.5956299999999999  0.67564  0.13729  1.0000
  N   N75       1.0  0.41476  0.36729999999999996  0.08562  1.0000
  N   N76       1.0  0.40437  0.32436  0.13729  1.0000
  N   N77       1.0  0.58524  0.36729999999999996  0.9143799999999999  1.0000
  N   N78       1.0  0.5956299999999999  0.32436  0.8627099999999999  1.0000
  N   N79       1.0  0.41476  0.63271  0.9143799999999999  1.0000
  N   N80       1.0  0.40437  0.67564  0.8627099999999999  1.0000
  N   N81       1.0  0.63271  0.9143799999999999  0.41476  1.0000
  N   N82       1.0  0.67564  0.8627099999999999  0.40437  1.0000
  N   N83       1.0  0.36729999999999996  0.9143799999999999  0.58524  1.0000
  N   N84       1.0  0.32436  0.8627099999999999  0.5956299999999999  1.0000
  N   N85       1.0  0.36729999999999996  0.08562  0.41476  1.0000
  N   N86       1.0  0.32436  0.13729  0.40437  1.0000
  N   N87       1.0  0.63271  0.08562  0.58524  1.0000
  N   N88       1.0  0.67564  0.13729  0.5956299999999999  1.0000
  N   N89       1.0  0.9143799999999999  0.58524  0.36729999999999996  1.0000
  N   N90       1.0  0.8627099999999999  0.5956299999999999  0.32434999999999997  1.0000
  N   N91       1.0  0.9143799999999999  0.41476  0.63271  1.0000
  N   N92       1.0  0.8627099999999999  0.40437  0.67564  1.0000
  N   N93       1.0  0.08562  0.58524  0.63271  1.0000
  N   N94       1.0  0.13729  0.5956299999999999  0.6756499999999999  1.0000
  N   N95       1.0  0.08562  0.41476  0.36729999999999996  1.0000
  N   N96       1.0  0.13729  0.40437  0.32436  1.0000
  Cl  Cl1       1.0  0.24082  0.5  0.0  1.0000
  Cl  Cl2       1.0  0.75919  0.5  0.0  1.0000
  Cl  Cl3       1.0  0.0  0.24082  0.5  1.0000
  Cl  Cl4       1.0  0.0  0.75919  0.5  1.0000
  Cl  Cl5       1.0  0.5  0.0  0.24082  1.0000
  Cl  Cl6       1.0  0.5  0.0  0.75919  1.0000
  Cl  Cl7       1.0  0.5  0.24082  0.0  1.0000
  Cl  Cl8       1.0  0.5  0.75919  0.0  1.0000
  Cl  Cl9       1.0  0.24082  0.0  0.5  1.0000
  Cl  Cl10      1.0  0.75919  0.0  0.5  1.0000
  Cl  Cl11      1.0  0.0  0.5  0.75919  1.0000
  Cl  Cl12      1.0  0.0  0.5  0.24082  1.0000
