data_image0
_chemical_formula_structural       Zn16H64C120O56
_chemical_formula_sum              "Zn16 H64 C120 O56"
_cell_length_a       6.74916
_cell_length_b       19.183190000000003
_cell_length_c       28.227489999999996
_cell_angle_alpha    90.11582999999999
_cell_angle_beta     90.04104999999998
_cell_angle_gamma    90.14976

_symmetry_space_group_name_H-M    'P 1'
_symmetry_Int_Tables_number       1

loop_
  _symmetry_equiv_pos_as_xyz
  'x,y,z'

loop_
  _atom_site_type_symbol
  _atom_site_label
  _atom_site_symmetry_multiplicity
  _atom_site_fract_x
  _atom_site_fract_y
  _atom_site_fract_z
  _atom_site_occupancy
  Zn  Zn1       1.0  0.50932  0.78746  0.8376199999999998  1.0000
  Zn  Zn2       1.0  0.14729  0.8882000000000001  0.86259  1.0000
  Zn  Zn3       1.0  0.35701  0.38797  0.13685  1.0000
  Zn  Zn4       1.0  0.35017  0.88748  0.36294  1.0000
  Zn  Zn5       1.0  0.98625  0.7869300000000001  0.33912  1.0000
  Zn  Zn6       1.0  0.64299  0.61203  0.8631399999999998  1.0000
  Zn  Zn7       1.0  0.14424  0.39027000000000006  0.63773  1.0000
  Zn  Zn8       1.0  0.64983  0.11252  0.63705  1.0000
  Zn  Zn9       1.0  0.49013999999999996  0.71294  0.33946  1.0000
  Zn  Zn10      1.0  0.49069  0.21253000000000002  0.16237999999999994  1.0000
  Zn  Zn11      1.0  0.50986  0.28706  0.66054  1.0000
  Zn  Zn12      1.0  0.85271  0.11180000000000001  0.1374  1.0000
  Zn  Zn13      1.0  0.0045200000000000014  0.7131300000000002  0.83933  1.0000
  Zn  Zn14      1.0  0.013749999999999998  0.21307000000000006  0.6608799999999999  1.0000
  Zn  Zn15      1.0  0.99548  0.28686  0.16067  1.0000
  Zn  Zn16      1.0  0.85576  0.6097300000000001  0.36227  1.0000
  H   H1        1.0  0.21411  0.27889  0.60477  1.0000
  H   H2        1.0  0.45394  0.01116  0.15328999999999995  1.0000
  H   H3        1.0  0.84473  0.36302000000000006  0.018929999999999992  1.0000
  H   H4        1.0  0.04841999999999999  0.01245  0.65343  1.0000
  H   H5        1.0  0.04771  0.5113  0.8451799999999999  1.0000
  H   H6        1.0  0.90882  0.53355  0.23656  1.0000
  H   H7        1.0  0.65644  0.36243  0.51805  1.0000
  H   H8        1.0  0.41642  0.96705  0.23522  1.0000
  H   H9        1.0  0.18590999999999994  0.055940000000000004  0.4497  1.0000
  H   H10       1.0  0.33594  0.89034  0.54438  1.0000
  H   H11       1.0  0.9129999999999999  0.03275  0.2648  1.0000
  H   H12       1.0  0.7093  0.72465  0.89581  1.0000
  H   H13       1.0  0.30984  0.55562  0.55032  1.0000
  H   H14       1.0  0.88886  0.85572  0.19423  1.0000
  H   H15       1.0  0.10600999999999997  0.6451700000000002  0.6940699999999999  1.0000
  H   H16       1.0  0.18808  0.55562  0.0496  1.0000
  H   H17       1.0  0.89399  0.35482  0.30592  1.0000
  H   H18       1.0  0.8383099999999998  0.61022  0.54496  1.0000
  H   H19       1.0  0.38561999999999996  0.64428  0.19336999999999993  1.0000
  H   H20       1.0  0.69016  0.44437  0.44968  1.0000
  H   H21       1.0  0.7858899999999998  0.7211  0.39522  1.0000
  H   H22       1.0  0.08433  0.09461000000000001  0.8871899999999998  1.0000
  H   H23       1.0  0.54606  0.98884  0.84671  1.0000
  H   H24       1.0  0.72035  0.22401000000000001  0.6050699999999999  1.0000
  H   H25       1.0  0.66406  0.10966  0.45562  1.0000
  H   H26       1.0  0.15996  0.8896300000000001  0.04447  1.0000
  H   H27       1.0  0.65817  0.8624  0.9805999999999999  1.0000
  H   H28       1.0  0.41853  0.46743  0.26465999999999995  1.0000
  H   H29       1.0  0.58021  0.90516  0.61153  1.0000
  H   H30       1.0  0.7830499999999998  0.22349000000000002  0.10544  1.0000
  H   H31       1.0  0.11114  0.14428  0.8057699999999998  1.0000
  H   H32       1.0  0.54399  0.48769  0.65347  1.0000
  H   H33       1.0  0.15527  0.63697  0.9810699999999999  1.0000
  H   H34       1.0  0.34356  0.63757  0.4819499999999999  1.0000
  H   H35       1.0  0.09119  0.46644  0.76344  1.0000
  H   H36       1.0  0.9205199999999998  0.4054100000000001  0.38722  1.0000
  H   H37       1.0  0.95158  0.98755  0.34657  1.0000
  H   H38       1.0  0.39224  0.14558  0.30744  1.0000
  H   H39       1.0  0.83985  0.8618  0.4817299999999999  1.0000
  H   H40       1.0  0.60777  0.8544100000000001  0.6925599999999997  1.0000
  H   H41       1.0  0.07947999999999997  0.59458  0.61278  1.0000
  H   H42       1.0  0.8140899999999999  0.94405  0.5503  1.0000
  H   H43       1.0  0.95229  0.48870000000000013  0.15482  1.0000
  H   H44       1.0  0.58147  0.53257  0.7353399999999999  1.0000
  H   H45       1.0  0.21695  0.77651  0.8945499999999997  1.0000
  H   H46       1.0  0.16015  0.1382  0.51827  1.0000
  H   H47       1.0  0.087  0.9672500000000002  0.7352  1.0000
  H   H48       1.0  0.45602  0.5123  0.34653  1.0000
  H   H49       1.0  0.33718  0.3895900000000001  0.9546899999999998  1.0000
  H   H50       1.0  0.2907  0.27534  0.10418999999999999  1.0000
  H   H51       1.0  0.27965  0.7759800000000002  0.3949199999999999  1.0000
  H   H52       1.0  0.58223  0.4061000000000001  0.8878899999999997  1.0000
  H   H53       1.0  0.3134799999999999  0.056060000000000006  0.95053  1.0000
  H   H54       1.0  0.8119199999999998  0.44437  0.9503899999999997  1.0000
  H   H55       1.0  0.16169  0.38978  0.4550399999999999  1.0000
  H   H56       1.0  0.41776999999999986  0.5939  0.11211  1.0000
  H   H57       1.0  0.8400399999999999  0.11036  0.9555299999999998  1.0000
  H   H58       1.0  0.66282  0.6104  0.04531  1.0000
  H   H59       1.0  0.91567  0.9053800000000001  0.11281  1.0000
  H   H60       1.0  0.3418299999999999  0.1376  0.019399999999999994  1.0000
  H   H61       1.0  0.68652  0.9439300000000003  0.04947  1.0000
  H   H62       1.0  0.6143799999999998  0.3557100000000001  0.8066199999999999  1.0000
  H   H63       1.0  0.58358  0.03294  0.76478  1.0000
  H   H64       1.0  0.41979  0.09483  0.38846  1.0000
  C   C1        1.0  0.50797  0.60979  0.18466  1.0000
  C   C2        1.0  0.64548  0.59209  0.21998999999999996  1.0000
  C   C3        1.0  0.7180199999999999  0.38683  0.60829  1.0000
  C   C4        1.0  0.6981  0.05476000000000002  0.4607599999999999  1.0000
  C   C5        1.0  0.80595  0.04633  0.29205  1.0000
  C   C6        1.0  0.13964  0.8801  0.26878  1.0000
  C   C7        1.0  0.71701  0.9616400000000003  0.01364  1.0000
  C   C8        1.0  0.19736  0.44461  0.4602799999999999  1.0000
  C   C9        1.0  0.31297  0.46187000000000006  0.87228  1.0000
  C   C10       1.0  0.19791  0.58293  0.9755199999999998  1.0000
  C   C11       1.0  0.19405999999999995  0.9536700000000001  0.70795  1.0000
  C   C12       1.0  0.36761  0.3793000000000001  0.7311299999999997  1.0000
  C   C13       1.0  0.76813  0.03146000000000001  0.00642  1.0000
  C   C14       1.0  0.76469  0.44041  0.07066  1.0000
  C   C15       1.0  0.7364799999999999  0.43981  0.56997  1.0000
  C   C16       1.0  0.69825  0.55563  0.04001  1.0000
  C   C17       1.0  0.71387  0.07927000000000001  0.5482  1.0000
  C   C18       1.0  0.79045  0.010750000000000003  0.9212399999999997  1.0000
  C   C19       1.0  0.19705  0.45301  0.7909599999999998  1.0000
  C   C20       1.0  0.28299  0.03836  0.98636  1.0000
  C   C21       1.0  0.8139199999999998  0.03832  0.8726399999999997  1.0000
  C   C22       1.0  0.3019  0.94524  0.53923  1.0000
  C   C23       1.0  0.01061  0.89037  0.18504  1.0000
  C   C24       1.0  0.7833299999999999  0.9613800000000001  0.5144199999999999  1.0000
  C   C25       1.0  0.28199  0.6131600000000001  0.3917  1.0000
  C   C26       1.0  0.15066  0.9083800000000001  0.21982999999999994  1.0000
  C   C27       1.0  0.21599  0.61288  0.8911899999999998  1.0000
  C   C28       1.0  0.31357  0.96268  0.6269  1.0000
  C   C29       1.0  0.17509999999999998  0.47886000000000006  0.8366899999999998  1.0000
  C   C30       1.0  0.01512  0.3899400000000001  0.31495  1.0000
  C   C31       1.0  0.71976  0.8878800000000001  0.89038  1.0000
  C   C32       1.0  0.20153  0.08405  0.5237099999999999  1.0000
  C   C33       1.0  0.7840099999999998  0.38711  0.10879999999999997  1.0000
  C   C34       1.0  0.6989999999999998  0.4165500000000001  0.5237199999999999  1.0000
  C   C35       1.0  0.84934  0.09161000000000001  0.78016  1.0000
  C   C36       1.0  0.23531  0.5595900000000003  0.9293399999999998  1.0000
  C   C37       1.0  0.31086  0.45366  0.29173  1.0000
  C   C38       1.0  0.52782  0.58234  0.13912  1.0000
  C   C39       1.0  0.7775299999999999  0.8854600000000001  0.39217  1.0000
  C   C40       1.0  0.70698  0.57939  0.95228  1.0000
  C   C41       1.0  0.86036  0.11990000000000002  0.73122  1.0000
  C   C42       1.0  0.26629  0.96886  0.49317  1.0000
  C   C43       1.0  0.21698  0.53789  0.013679999999999996  1.0000
  C   C44       1.0  0.19579  0.9444800000000002  0.03953  1.0000
  C   C45       1.0  0.80421  0.05552000000000001  0.9604699999999998  1.0000
  C   C46       1.0  0.73194  0.53182  0.99382  1.0000
  C   C47       1.0  0.23097999999999994  0.46839000000000003  0.50645  1.0000
  C   C48       1.0  0.027429999999999996  0.91744  0.13938  1.0000
  C   C49       1.0  0.29941  0.08344  0.02472  1.0000
  C   C50       1.0  0.20721  0.42053  0.54777  1.0000
  C   C51       1.0  0.51251  0.11024000000000002  0.31615  1.0000
  C   C52       1.0  0.28196  0.53812  0.51428  1.0000
  C   C53       1.0  0.5297  0.08249  0.36159  1.0000
  C   C54       1.0  0.03179  0.41747  0.36058999999999997  1.0000
  C   C55       1.0  0.787  0.5103200000000001  0.5786299999999998  1.0000
  C   C56       1.0  0.48748999999999987  0.88975  0.68385  1.0000
  C   C57       1.0  0.2869899999999999  0.48925999999999986  0.92092  1.0000
  C   C58       1.0  0.28025  0.11212000000000001  0.10960999999999997  1.0000
  C   C59       1.0  0.6373299999999998  0.12084000000000002  0.23220999999999994  1.0000
  C   C60       1.0  0.35452  0.4079  0.7800099999999998  1.0000
  C   C61       1.0  0.82491  0.52114  0.1633  1.0000
  C   C62       1.0  0.34985  0.908  0.71906  1.0000
  C   C63       1.0  0.20955  0.9892400000000001  0.07874999999999997  1.0000
  C   C64       1.0  0.18608  0.96168  0.12735  1.0000
  C   C65       1.0  0.28613  0.9207200000000002  0.4518  1.0000
  C   C66       1.0  0.24038  0.060880000000000004  0.56983  1.0000
  C   C67       1.0  0.21299999999999994  0.48968  0.4213699999999999  1.0000
  C   C68       1.0  0.17477999999999996  0.9797900000000003  0.6622499999999998  1.0000
  C   C69       1.0  0.73941  0.94024  0.92926  1.0000
  C   C70       1.0  0.32961  0.47946000000000005  0.33757  1.0000
  C   C71       1.0  0.8026399999999999  0.55539  0.53971  1.0000
  C   C72       1.0  0.71035  0.00963  0.42169  1.0000
  C   C73       1.0  0.15462  0.40807  0.28011  1.0000
  C   C74       1.0  0.47218  0.41766  0.8608699999999999  1.0000
  C   C75       1.0  0.65015  0.09200000000000003  0.28094  1.0000
  C   C76       1.0  0.7690299999999998  0.5316  0.49354  1.0000
  C   C77       1.0  0.70059  0.91656  0.9752699999999997  1.0000
  C   C78       1.0  0.26352  0.56018  0.4300299999999999  1.0000
  C   C79       1.0  0.4703  0.9175  0.6384  1.0000
  C   C80       1.0  0.3081  0.95336  0.20821  1.0000
  C   C81       1.0  0.6870299999999999  0.53812  0.12771  1.0000
  C   C82       1.0  0.6891399999999998  0.5463400000000003  0.7082699999999997  1.0000
  C   C83       1.0  0.68643  0.03731  0.37309  1.0000
  C   C84       1.0  0.30175  0.44437  0.9599899999999999  1.0000
  C   C85       1.0  0.9893999999999998  0.10963  0.8149599999999998  1.0000
  C   C86       1.0  0.81031  0.53779  0.62736  1.0000
  C   C87       1.0  0.18969  0.46221000000000007  0.3726299999999999  1.0000
  C   C88       1.0  0.26059  0.05976  0.07073  1.0000
  C   C89       1.0  0.8551799999999999  0.62073  0.7687599999999998  1.0000
  C   C90       1.0  0.84538  0.59193  0.7198799999999997  1.0000
  C   C91       1.0  0.6731699999999998  0.021200000000000004  0.8376399999999998  1.0000
  C   C92       1.0  0.21667  0.03862  0.48558  1.0000
  C   C93       1.0  0.32683  0.9788  0.16235999999999998  1.0000
  C   C94       1.0  0.71804  0.46187000000000006  0.48571999999999993  1.0000
  C   C95       1.0  0.23187  0.9685400000000001  0.99358  1.0000
  C   C96       1.0  0.22247  0.11454  0.60783  1.0000
  C   C97       1.0  0.7337099999999998  0.03113  0.50683  1.0000
  C   C98       1.0  0.78302  0.4621100000000001  0.9863099999999998  1.0000
  C   C99       1.0  0.8029499999999998  0.5469900000000001  0.20904  1.0000
  C   C100      1.0  0.29302  0.42061  0.04772  1.0000
  C   C101      1.0  0.7130099999999998  0.51074  0.07907  1.0000
  C   C102      1.0  0.49203  0.3902  0.81533  1.0000
  C   C103      1.0  0.63239  0.6206900000000001  0.26887  1.0000
  C   C104      1.0  0.14483  0.37926  0.23124  1.0000
  C   C105      1.0  0.96821  0.5825300000000001  0.6394099999999998  1.0000
  C   C106      1.0  0.78963  0.07932  0.04796  1.0000
  C   C107      1.0  0.8252199999999998  0.020200000000000003  0.33773999999999993  1.0000
  C   C108      1.0  0.21036999999999997  0.9206700000000001  0.95204  1.0000
  C   C109      1.0  0.98489  0.61006  0.68505  1.0000
  C   C110      1.0  0.3626699999999999  0.87915  0.76778  1.0000
  C   C111      1.0  0.79279  0.5794700000000003  0.4522299999999999  1.0000
  C   C112      1.0  0.26806  0.4681800000000001  0.00617  1.0000
  C   C113      1.0  0.8021  0.41707  0.02447999999999999  1.0000
  C   C114      1.0  0.67039  0.52054  0.66243  1.0000
  C   C115      1.0  0.7596299999999999  0.9391100000000002  0.43017  1.0000
  C   C116      1.0  0.301  0.5834500000000001  0.47628  1.0000
  C   C117      1.0  0.28965  0.99037  0.57831  1.0000
  C   C118      1.0  0.97257  0.08256  0.86062  1.0000
  C   C119      1.0  0.7984699999999999  0.9159500000000002  0.47629  1.0000
  C   C120      1.0  0.6919  0.04663  0.79179  1.0000
  O   O1        1.0  0.72612  0.5482400000000001  0.91128  1.0000
  O   O2        1.0  0.52525  0.17458  0.22577999999999995  1.0000
  O   O3        1.0  0.21107999999999996  0.7823700000000001  0.85996  1.0000
  O   O4        1.0  0.35674  0.12782  0.63859  1.0000
  O   O5        1.0  0.17087  0.35696000000000006  0.54301  1.0000
  O   O6        1.0  0.64751  0.37243  0.13857999999999998  1.0000
  O   O7        1.0  0.82876  0.14274  0.04314  1.0000
  O   O8        1.0  0.70772  0.71825  0.86126  1.0000
  O   O9        1.0  0.14591  0.12466  0.1405  1.0000
  O   O10       1.0  0.7161699999999998  0.21824000000000002  0.63968  1.0000
  O   O11       1.0  0.3339999999999999  0.35736000000000007  0.043  1.0000
  O   O12       1.0  0.25106  0.9095700000000001  0.29948  1.0000
  O   O13       1.0  0.73827  0.09011000000000001  0.20020999999999994  1.0000
  O   O14       1.0  0.73753  0.5900700000000001  0.3001  1.0000
  O   O15       1.0  0.27388  0.45175  0.08871  1.0000
  O   O16       1.0  0.15034  0.62422  0.35987  1.0000
  O   O17       1.0  0.17125  0.85726  0.9568599999999998  1.0000
  O   O18       1.0  0.06039  0.14905  0.60701  1.0000
  O   O19       1.0  0.84966  0.37577  0.64013  1.0000
  O   O20       1.0  0.66598  0.6426300000000001  0.957  1.0000
  O   O21       1.0  0.7489399999999999  0.09043  0.70051  1.0000
  O   O22       1.0  0.93961  0.85094  0.39299  1.0000
  O   O23       1.0  0.29228  0.28175  0.13874  1.0000
  O   O24       1.0  0.67586  0.14266  0.54325  1.0000
  O   O25       1.0  0.6432599999999999  0.8721700000000001  0.3613999999999999  1.0000
  O   O26       1.0  0.78892  0.21763000000000002  0.14003999999999997  1.0000
  O   O27       1.0  0.94897  0.3543  0.10898999999999998  1.0000
  O   O28       1.0  0.97933  0.17148000000000002  0.72353  1.0000
  O   O29       1.0  0.05104  0.6457  0.8909999999999998  1.0000
  O   O30       1.0  0.74792  0.5904200000000002  0.79982  1.0000
  O   O31       1.0  0.26248  0.40992000000000006  0.6998899999999999  1.0000
  O   O32       1.0  0.23044999999999993  0.95166  0.91107  1.0000
  O   O33       1.0  0.5178  0.67343  0.27617  1.0000
  O   O34       1.0  0.73406  0.0485  0.58928  1.0000
  O   O35       1.0  0.82913  0.64304  0.45699  1.0000
  O   O36       1.0  0.020669999999999997  0.8285100000000001  0.27647  1.0000
  O   O37       1.0  0.4428399999999999  0.64874  0.39306  1.0000
  O   O38       1.0  0.55588  0.8541300000000001  0.89045  1.0000
  O   O39       1.0  0.47475999999999996  0.82542  0.77422  1.0000
  O   O40       1.0  0.03046  0.32622  0.22381999999999994  1.0000
  O   O41       1.0  0.55717  0.3512600000000001  0.60694  1.0000
  O   O42       1.0  0.7885799999999998  0.71539  0.36055  1.0000
  O   O43       1.0  0.32414  0.85734  0.45675  1.0000
  O   O44       1.0  0.35249  0.62757  0.8614199999999997  1.0000
  O   O45       1.0  0.7695499999999997  0.04834  0.08893  1.0000
  O   O46       1.0  0.9695399999999998  0.67377  0.7761699999999998  1.0000
  O   O47       1.0  0.26594  0.95149  0.41070999999999996  1.0000
  O   O48       1.0  0.8540899999999998  0.87533  0.8595  1.0000
  O   O49       1.0  0.7772499999999999  0.54777  0.4112899999999999  1.0000
  O   O50       1.0  0.22275  0.45223  0.5887099999999998  1.0000
  O   O51       1.0  0.26173  0.90988  0.79979  1.0000
  O   O52       1.0  0.25208  0.40958000000000006  0.20017  1.0000
  O   O53       1.0  0.21142999999999995  0.2846  0.63945  1.0000
  O   O54       1.0  0.28384  0.78176  0.36031  1.0000
  O   O55       1.0  0.44412  0.14586000000000002  0.10954  1.0000
  O   O56       1.0  0.4822  0.32657  0.72383  1.0000
