data_image0
_chemical_formula_structural       Zn8H112C160N8O32F48
_chemical_formula_sum              "Zn8 H112 C160 N8 O32 F48"
_cell_length_a       19.38049
_cell_length_b       19.37744
_cell_length_c       27.71971
_cell_angle_alpha    110.3138
_cell_angle_beta     110.33133999999998
_cell_angle_gamma    90.22801999999999

_symmetry_space_group_name_H-M    'P 1'
_symmetry_Int_Tables_number       1

loop_
  _symmetry_equiv_pos_as_xyz
  'x,y,z'

loop_
  _atom_site_type_symbol
  _atom_site_label
  _atom_site_symmetry_multiplicity
  _atom_site_fract_x
  _atom_site_fract_y
  _atom_site_fract_z
  _atom_site_occupancy
  Zn  Zn1       1.0  0.07834999999999999  0.50516  0.51066  1.0000
  Zn  Zn2       1.0  0.50519  0.43257000000000007  0.011240000000000002  1.0000
  Zn  Zn3       1.0  0.43254999999999993  0.50519  0.51122  1.0000
  Zn  Zn4       1.0  0.49488000000000004  0.92171  0.9894300000000001  1.0000
  Zn  Zn5       1.0  0.5051099999999998  0.07829  0.01058  1.0000
  Zn  Zn6       1.0  0.49481  0.56743  0.98876  1.0000
  Zn  Zn7       1.0  0.92165  0.49484  0.4893400000000001  1.0000
  Zn  Zn8       1.0  0.56745  0.49481000000000014  0.48878000000000005  1.0000
  H   H1        1.0  0.39496999999999993  0.7683700000000002  0.9141400000000001  1.0000
  H   H2        1.0  0.36934  0.74831  0.19096000000000002  1.0000
  H   H3        1.0  0.07508999999999999  0.58243  0.38253  1.0000
  H   H4        1.0  0.17627000000000015  0.2513000000000002  0.8092300000000002  1.0000
  H   H5        1.0  0.3948200000000001  0.6455700000000001  0.9140600000000002  1.0000
  H   H6        1.0  0.8606899999999998  0.16834000000000005  0.20527000000000004  1.0000
  H   H7        1.0  0.67697  0.38105  0.47754  1.0000
  H   H8        1.0  0.61895  0.32303  0.022480000000000003  1.0000
  H   H9        1.0  0.6461  0.51925  0.41399000000000014  1.0000
  H   H10       1.0  0.82372  0.7487000000000001  0.19077000000000002  1.0000
  H   H11       1.0  0.5964399999999999  0.67778  0.97741  1.0000
  H   H12       1.0  0.32223999999999997  0.40354  0.52262  1.0000
  H   H13       1.0  0.4809  0.7348300000000001  0.6311000000000001  1.0000
  H   H14       1.0  0.8494999999999999  0.26361  0.36819  1.0000
  H   H15       1.0  0.05854000000000002  0.17751  0.30924  1.0000
  H   H16       1.0  0.3459400000000001  0.53573  0.20524  1.0000
  H   H17       1.0  0.6919  0.41782000000000014  0.61705  1.0000
  H   H18       1.0  0.20026  0.6189500000000002  0.52242  1.0000
  H   H19       1.0  0.5192399999999999  0.64613  0.9139900000000001  1.0000
  H   H20       1.0  0.60478  0.85014  0.86919  1.0000
  H   H21       1.0  0.40348999999999996  0.19936  0.02245  1.0000
  H   H22       1.0  0.57737  0.72041  0.06379  1.0000
  H   H23       1.0  0.73487  0.4809100000000001  0.13112  1.0000
  H   H24       1.0  0.7201500000000001  0.48632000000000003  0.56382  1.0000
  H   H25       1.0  0.39548  0.4802500000000001  0.13072000000000003  1.0000
  H   H26       1.0  0.9418799999999999  0.36907  0.69146  1.0000
  H   H27       1.0  0.16829  0.8607  0.70527  1.0000
  H   H28       1.0  0.74866  0.82378  0.69081  1.0000
  H   H29       1.0  0.16832  0.3458100000000001  0.7053900000000001  1.0000
  H   H30       1.0  0.38104000000000016  0.6769700000000002  0.9775300000000002  1.0000
  H   H31       1.0  0.19939  0.40347  0.52247  1.0000
  H   H32       1.0  0.57747  0.8432600000000001  0.06388  1.0000
  H   H33       1.0  0.73637  0.15052  0.13179  1.0000
  H   H34       1.0  0.65416  0.8316400000000002  0.7946400000000001  1.0000
  H   H35       1.0  0.6997400000000003  0.9250900000000001  0.11770000000000003  1.0000
  H   H36       1.0  0.26362999999999986  0.84948  0.86821  1.0000
  H   H37       1.0  0.6777499999999999  0.59646  0.47739  1.0000
  H   H38       1.0  0.58212  0.30811  0.88301  1.0000
  H   H39       1.0  0.17744999999999997  0.058490000000000014  0.8092  1.0000
  H   H40       1.0  0.6926699999999999  0.7006100000000002  0.61767  1.0000
  H   H41       1.0  0.35445  0.60515  0.58593  1.0000
  H   H42       1.0  0.4641  0.14063  0.29523  1.0000
  H   H43       1.0  0.42263000000000006  0.27959  0.9362100000000001  1.0000
  H   H44       1.0  0.76886  0.5193600000000002  0.4141100000000001  1.0000
  H   H45       1.0  0.23114  0.48064000000000007  0.58589  1.0000
  H   H46       1.0  0.5197  0.60455  0.36926  1.0000
  H   H47       1.0  0.41755  0.9249  0.1175  1.0000
  H   H48       1.0  0.79973  0.38105000000000006  0.47758000000000006  1.0000
  H   H49       1.0  0.3810400000000001  0.7997500000000001  0.9775600000000001  1.0000
  H   H50       1.0  0.6540500000000001  0.4642700000000002  0.7947600000000002  1.0000
  H   H51       1.0  0.5135  0.15700000000000006  0.9360100000000001  1.0000
  H   H52       1.0  0.13931  0.8316500000000001  0.79473  1.0000
  H   H53       1.0  0.14059  0.46406  0.79522  1.0000
  H   H54       1.0  0.94146  0.8224900000000002  0.69076  1.0000
  H   H55       1.0  0.4864899999999999  0.843  0.06399  1.0000
  H   H56       1.0  0.36904  0.9419  0.19148  1.0000
  H   H57       1.0  0.46427  0.65407  0.29473  1.0000
  H   H58       1.0  0.5359  0.85936  0.7047800000000001  1.0000
  H   H59       1.0  0.8317  0.1393  0.29473  1.0000
  H   H60       1.0  0.27985  0.51368  0.43618  1.0000
  H   H61       1.0  0.27951999999999994  0.42263000000000006  0.43619  1.0000
  H   H62       1.0  0.5191  0.26517  0.3689  1.0000
  H   H63       1.0  0.3002499999999999  0.07490999999999998  0.8823  1.0000
  H   H64       1.0  0.9250899999999999  0.6996900000000001  0.61767  1.0000
  H   H65       1.0  0.07491  0.3003100000000001  0.38233  1.0000
  H   H66       1.0  0.48075  0.35387  0.08601  1.0000
  H   H67       1.0  0.25133  0.17622  0.3092  1.0000
  H   H68       1.0  0.8430299999999998  0.48647000000000007  0.56397  1.0000
  H   H69       1.0  0.6309500000000001  0.05810000000000005  0.8085200000000001  1.0000
  H   H70       1.0  0.3073199999999999  0.29939000000000004  0.38234  1.0000
  H   H71       1.0  0.8005999999999999  0.5965300000000002  0.47753000000000007  1.0000
  H   H72       1.0  0.4178799999999999  0.6918900000000001  0.11699000000000002  1.0000
  H   H73       1.0  0.7483299999999999  0.36929000000000006  0.69105  1.0000
  H   H74       1.0  0.34583  0.16836000000000004  0.20536  1.0000
  H   H75       1.0  0.8593999999999999  0.53594  0.20479  1.0000
  H   H76       1.0  0.058109999999999995  0.6309300000000001  0.30854  1.0000
  H   H77       1.0  0.63066  0.2516900000000001  0.80904  1.0000
  H   H78       1.0  0.14984  0.3952  0.63083  1.0000
  H   H79       1.0  0.39521  0.14986  0.13081  1.0000
  H   H80       1.0  0.58245  0.07509  0.8825  1.0000
  H   H81       1.0  0.23166999999999996  0.60505  0.58587  1.0000
  H   H82       1.0  0.5964999999999999  0.80064  0.97755  1.0000
  H   H83       1.0  0.82254  0.9415100000000001  0.1908  1.0000
  H   H84       1.0  0.26512  0.5190900000000002  0.8688900000000003  1.0000
  H   H85       1.0  0.15697  0.51353  0.43603  1.0000
  H   H86       1.0  0.61895  0.20025  0.02244  1.0000
  H   H87       1.0  0.8501499999999999  0.6048  0.36917  1.0000
  H   H88       1.0  0.4863299999999999  0.7200800000000002  0.06381  1.0000
  H   H89       1.0  0.1567  0.42254  0.43614  1.0000
  H   H90       1.0  0.2994299999999999  0.3073400000000001  0.88237  1.0000
  H   H91       1.0  0.3081  0.5821800000000001  0.38295000000000007  1.0000
  H   H92       1.0  0.6050299999999998  0.23163  0.08586  1.0000
  H   H93       1.0  0.42252  0.1567400000000001  0.93613  1.0000
  H   H94       1.0  0.25166  0.6307100000000001  0.30895  1.0000
  H   H95       1.0  0.35389  0.48075  0.58601  1.0000
  H   H96       1.0  0.64554  0.3948500000000001  0.41408000000000006  1.0000
  H   H97       1.0  0.51933  0.76892  0.91413  1.0000
  H   H98       1.0  0.83167  0.65418  0.29461  1.0000
  H   H99       1.0  0.7005599999999998  0.6926600000000003  0.11763000000000003  1.0000
  H   H100      1.0  0.72047  0.57737  0.56381  1.0000
  H   H101      1.0  0.51366  0.2799200000000001  0.93619  1.0000
  H   H102      1.0  0.15049000000000004  0.73639  0.63181  1.0000
  H   H103      1.0  0.32302  0.6189500000000002  0.52246  1.0000
  H   H104      1.0  0.48066000000000003  0.23108  0.08587000000000003  1.0000
  H   H105      1.0  0.7683200000000001  0.39495000000000013  0.4141400000000001  1.0000
  H   H106      1.0  0.60517  0.35443  0.08594  1.0000
  H   H107      1.0  0.48029  0.39544  0.63075  1.0000
  H   H108      1.0  0.8432899999999999  0.57746  0.56386  1.0000
  H   H109      1.0  0.6045199999999998  0.5197500000000003  0.8692800000000002  1.0000
  H   H110      1.0  0.53572  0.34593000000000007  0.70527  1.0000
  H   H111      1.0  0.9249099999999999  0.41757  0.61747  1.0000
  H   H112      1.0  0.40354999999999996  0.32222  0.022590000000000002  1.0000
  C   C1        1.0  0.85058  0.05697000000000003  0.20449000000000003  1.0000
  C   C2        1.0  0.98463  0.6572  0.21935  1.0000
  C   C3        1.0  0.40203  0.9782199999999998  0.13718  1.0000
  C   C4        1.0  0.021629999999999993  0.26474000000000003  0.36272000000000004  1.0000
  C   C5        1.0  0.10514  0.7558200000000003  0.64511  1.0000
  C   C6        1.0  0.31221  0.58443  0.54382  1.0000
  C   C7        1.0  0.6579699999999999  0.23691000000000006  0.7207200000000001  1.0000
  C   C8        1.0  0.23681999999999997  0.06  0.22073  1.0000
  C   C9        1.0  0.30986  0.19466  0.32134  1.0000
  C   C10       1.0  0.01536999999999998  0.3428  0.78065  1.0000
  C   C11       1.0  0.45933  0.23143  0.0438  1.0000
  C   C12       1.0  0.9636499999999999  0.58963  0.38022  1.0000
  C   C13       1.0  0.34275  0.015370000000000012  0.28063  1.0000
  C   C14       1.0  0.19522999999999996  0.01189000000000008  0.8211800000000001  1.0000
  C   C15       1.0  0.65724  0.98463  0.7193700000000002  1.0000
  C   C16       1.0  0.94284  0.64479  0.2951  1.0000
  C   C17       1.0  0.70958  0.03671000000000002  0.12028000000000001  1.0000
  C   C18       1.0  0.5843999999999999  0.23195000000000002  0.04378000000000001  1.0000
  C   C19       1.0  0.64473  0.35375000000000006  0.79562  1.0000
  C   C20       1.0  0.021779999999999994  0.59796  0.36284  1.0000
  C   C21       1.0  0.57061  0.82467  0.68597  1.0000
  C   C22       1.0  0.75493  0.5395300000000001  0.14471000000000003  1.0000
  C   C23       1.0  0.41059  0.58278  0.11959000000000002  1.0000
  C   C24       1.0  0.97449  0.36626  0.42352  1.0000
  C   C25       1.0  0.58444  0.31221  0.04383000000000001  1.0000
  C   C26       1.0  0.03670000000000008  0.7095700000000001  0.6202700000000001  1.0000
  C   C27       1.0  0.3116999999999999  0.45936  0.54389  1.0000
  C   C28       1.0  0.4421299999999999  0.025440000000000008  0.07586  1.0000
  C   C29       1.0  0.94003  0.76317  0.27926  1.0000
  C   C30       1.0  0.63374  0.02551  0.07649  1.0000
  C   C31       1.0  0.47836999999999996  0.18865  0.95673  1.0000
  C   C32       1.0  0.41037999999999997  0.03635  0.11978  1.0000
  C   C33       1.0  0.23147  0.45931  0.54382  1.0000
  C   C34       1.0  0.14951000000000012  0.35339000000000015  0.7958600000000002  1.0000
  C   C35       1.0  0.14941  0.94303  0.79552  1.0000
  C   C36       1.0  0.68778  0.41557  0.45618  1.0000
  C   C37       1.0  0.011929999999999993  0.19527  0.3212  1.0000
  C   C38       1.0  0.37482  0.98828  0.17919  1.0000
  C   C39       1.0  0.5576400000000001  0.4502700000000001  0.9241600000000002  1.0000
  C   C40       1.0  0.4784300000000001  0.26848000000000016  0.9568200000000002  1.0000
  C   C41       1.0  0.62517  0.011720000000000001  0.82081  1.0000
  C   C42       1.0  0.4155600000000001  0.6877900000000001  0.9561700000000002  1.0000
  C   C43       1.0  0.44917  0.3664  0.42372  1.0000
  C   C44       1.0  0.011739999999999999  0.62516  0.32083  1.0000
  C   C45       1.0  0.24506  0.46047000000000005  0.8553000000000001  1.0000
  C   C46       1.0  0.36192  0.57023  0.18615000000000004  1.0000
  C   C47       1.0  0.3618  0.11495000000000004  0.18641000000000002  1.0000
  C   C48       1.0  0.02548  0.6337400000000001  0.57648  1.0000
  C   C49       1.0  0.88507  0.63821  0.31358  1.0000
  C   C50       1.0  0.6104  0.4610900000000001  0.85553  1.0000
  C   C51       1.0  0.34202  0.76309  0.27928  1.0000
  C   C52       1.0  0.89485  0.24418  0.35489  1.0000
  C   C53       1.0  0.62496  0.31025  0.82129  1.0000
  C   C54       1.0  0.53895  0.3895500000000001  0.64451  1.0000
  C   C55       1.0  0.4172  0.58946  0.38038  1.0000
  C   C56       1.0  0.40231  0.65813  0.13676  1.0000
  C   C57       1.0  0.7558099999999999  0.10517000000000003  0.14511000000000002  1.0000
  C   C58       1.0  0.36638999999999994  0.44916000000000006  0.92373  1.0000
  C   C59       1.0  0.19468  0.30983  0.82135  1.0000
  C   C60       1.0  0.35369  0.64481  0.2955  1.0000
  C   C61       1.0  0.26432  0.34123  0.86286  1.0000
  C   C62       1.0  0.80477  0.9881000000000001  0.17883  1.0000
  C   C63       1.0  0.89517  0.61062  0.35538000000000003  1.0000
  C   C64       1.0  0.65876  0.7356900000000001  0.63715  1.0000
  C   C65       1.0  0.46104999999999996  0.61045  0.35549  1.0000
  C   C66       1.0  0.9880699999999999  0.8047300000000001  0.6788100000000001  1.0000
  C   C67       1.0  0.9285999999999999  0.07142  0.25  1.0000
  C   C68       1.0  0.54975  0.44232  0.57585  1.0000
  C   C69       1.0  0.97821  0.40204  0.63716  1.0000
  C   C70       1.0  0.6463100000000003  0.3551900000000001  0.7045000000000002  1.0000
  C   C71       1.0  0.29061000000000003  0.4165300000000002  0.8799800000000002  1.0000
  C   C72       1.0  0.34184000000000003  0.5977500000000002  0.3631800000000001  1.0000
  C   C73       1.0  0.014690000000000016  0.939  0.7799  1.0000
  C   C74       1.0  0.54067  0.7685700000000003  0.9562  1.0000
  C   C75       1.0  0.73567  0.65877  0.13714  1.0000
  C   C76       1.0  0.68977  0.37496  0.67879  1.0000
  C   C77       1.0  0.8255  0.11492000000000004  0.18635000000000004  1.0000
  C   C78       1.0  0.5406200000000001  0.6883200000000002  0.9561100000000001  1.0000
  C   C79       1.0  0.11487999999999997  0.8255  0.68636  1.0000
  C   C80       1.0  0.55787  0.9745800000000002  0.9241400000000001  1.0000
  C   C81       1.0  0.58279  0.41054000000000007  0.61962  1.0000
  C   C82       1.0  0.6901300000000001  0.8053400000000001  0.6786600000000002  1.0000
  C   C83       1.0  0.67716  0.92867  0.74955  1.0000
  C   C84       1.0  0.63807  0.42978000000000016  0.8138500000000002  1.0000
  C   C85       1.0  0.10481999999999995  0.38938  0.64462  1.0000
  C   C86       1.0  0.03634999999999997  0.4103700000000002  0.61978  1.0000
  C   C87       1.0  0.6465699999999999  0.8504800000000001  0.7041500000000003  1.0000
  C   C88       1.0  0.42972  0.6381199999999999  0.31379  1.0000
  C   C89       1.0  0.8504899999999999  0.6466  0.20414000000000004  1.0000
  C   C90       1.0  0.41558999999999996  0.7680500000000001  0.9562200000000002  1.0000
  C   C91       1.0  0.4502599999999999  0.55767  0.42415  1.0000
  C   C92       1.0  0.060980000000000006  0.9852900000000002  0.7201  1.0000
  C   C93       1.0  0.29042000000000007  0.9632900000000001  0.8797200000000001  1.0000
  C   C94       1.0  0.68829  0.54064  0.45611  1.0000
  C   C95       1.0  0.5896199999999998  0.96364  0.88022  1.0000
  C   C96       1.0  0.5395200000000001  0.7549200000000003  0.6447000000000002  1.0000
  C   C97       1.0  0.6336  0.55082  0.07628  1.0000
  C   C98       1.0  0.4423599999999999  0.54972  0.07584  1.0000
  C   C99       1.0  0.64478  0.9428200000000001  0.79511  1.0000
  C   C100      1.0  0.76318  0.94  0.77928  1.0000
  C   C101      1.0  0.3662600000000001  0.97451  0.92352  1.0000
  C   C102      1.0  0.059969999999999996  0.23682000000000003  0.72074  1.0000
  C   C103      1.0  0.23197999999999996  0.5844  0.54378  1.0000
  C   C104      1.0  0.67704  0.32298  0.75014  1.0000
  C   C105      1.0  0.025430000000000015  0.44213  0.57585  1.0000
  C   C106      1.0  0.26470999999999995  0.02162000000000009  0.8627000000000002  1.0000
  C   C107      1.0  0.34123999999999993  0.2643100000000001  0.36285000000000006  1.0000
  C   C108      1.0  0.9633  0.29043  0.37973  1.0000
  C   C109      1.0  0.9853  0.06100000000000002  0.2201  1.0000
  C   C110      1.0  0.35527000000000003  0.6462400000000001  0.20438000000000006  1.0000
  C   C111      1.0  0.8053200000000001  0.6901700000000001  0.17865000000000006  1.0000
  C   C112      1.0  0.31022  0.62504  0.32121  1.0000
  C   C113      1.0  0.3894  0.10484  0.14461  1.0000
  C   C114      1.0  0.05715000000000009  0.3552100000000002  0.7049000000000002  1.0000
  C   C115      1.0  0.97455  0.5578700000000001  0.42415  1.0000
  C   C116      1.0  0.8113699999999999  0.52161  0.54326  1.0000
  C   C117      1.0  0.07130000000000006  0.3228500000000001  0.7504800000000001  1.0000
  C   C118      1.0  0.82468  0.57065  0.18598  1.0000
  C   C119      1.0  0.11491999999999997  0.36179  0.68642  1.0000
  C   C120      1.0  0.58347  0.7093800000000001  0.62003  1.0000
  C   C121      1.0  0.73156  0.52156  0.54319  1.0000
  C   C122      1.0  0.18862000000000007  0.47839000000000004  0.45674  1.0000
  C   C123      1.0  0.35521  0.05718000000000003  0.20489000000000002  1.0000
  C   C124      1.0  0.58941  0.41723000000000005  0.88041  1.0000
  C   C125      1.0  0.24417999999999992  0.89483  0.85489  1.0000
  C   C126      1.0  0.26844  0.4784300000000001  0.45681  1.0000
  C   C127      1.0  0.23686000000000001  0.6579800000000001  0.22031000000000003  1.0000
  C   C128      1.0  0.57027  0.36188  0.68621  1.0000
  C   C129      1.0  0.7093800000000001  0.58347  0.12002  1.0000
  C   C130      1.0  0.1744900000000001  0.88508  0.8136500000000002  1.0000
  C   C131      1.0  0.63819  0.8850500000000001  0.8136000000000002  1.0000
  C   C132      1.0  0.3229600000000001  0.67702  0.24986000000000005  1.0000
  C   C133      1.0  0.76853  0.54069  0.45618  1.0000
  C   C134      1.0  0.8851199999999999  0.1745  0.31364  1.0000
  C   C135      1.0  0.93901  0.014710000000000034  0.2799  1.0000
  C   C136      1.0  0.76802  0.4156000000000001  0.45622000000000007  1.0000
  C   C137      1.0  0.6106  0.8951700000000001  0.85539  1.0000
  C   C138      1.0  0.52156  0.7315200000000003  0.04318000000000001  1.0000
  C   C139      1.0  0.9882499999999999  0.37484  0.67918  1.0000
  C   C140      1.0  0.17531  0.42935  0.81402  1.0000
  C   C141      1.0  0.38959  0.5389  0.14447  1.0000
  C   C142      1.0  0.59768  0.34186000000000016  0.8632400000000001  1.0000
  C   C143      1.0  0.46047999999999994  0.24508000000000008  0.35531000000000007  1.0000
  C   C144      1.0  0.32283  0.07133  0.25046  1.0000
  C   C145      1.0  0.59797  0.02177999999999998  0.86282  1.0000
  C   C146      1.0  0.76313  0.3420200000000001  0.77969  1.0000
  C   C147      1.0  0.9430699999999999  0.14944000000000002  0.29552  1.0000
  C   C148      1.0  0.7352799999999999  0.9783800000000001  0.1373  1.0000
  C   C149      1.0  0.41652  0.29062000000000004  0.37997  1.0000
  C   C150      1.0  0.0714  0.92858  0.75  1.0000
  C   C151      1.0  0.92869  0.6771500000000003  0.24952000000000005  1.0000
  C   C152      1.0  0.52162  0.8113500000000001  0.04327  1.0000
  C   C153      1.0  0.97836  0.7352600000000002  0.6372800000000001  1.0000
  C   C154      1.0  0.35341999999999996  0.14952  0.29585  1.0000
  C   C155      1.0  0.55084  0.6336000000000002  0.57628  1.0000
  C   C156      1.0  0.65815  0.40225  0.63682  1.0000
  C   C157      1.0  0.42938  0.17533  0.31403  1.0000
  C   C158      1.0  0.45937  0.31168  0.04389  1.0000
  C   C159      1.0  0.05692999999999999  0.85056  0.70448  1.0000
  C   C160      1.0  0.3750299999999999  0.68975  0.17871000000000004  1.0000
  N   N1        1.0  0.32422999999999996  0.5074000000000001  0.51485  1.0000
  N   N2        1.0  0.49261999999999995  0.80946  0.98528  1.0000
  N   N3        1.0  0.6757700000000001  0.49260000000000004  0.48515000000000014  1.0000
  N   N4        1.0  0.5074099999999999  0.32424  0.014870000000000001  1.0000
  N   N5        1.0  0.50737  0.19054  0.01473  1.0000
  N   N6        1.0  0.19055999999999995  0.5073700000000001  0.51474  1.0000
  N   N7        1.0  0.80944  0.49263  0.48526  1.0000
  N   N8        1.0  0.49257999999999996  0.67576  0.98513  1.0000
  O   O1        1.0  0.40896  0.39945  0.45008  1.0000
  O   O2        1.0  0.60055  0.59103  0.0499  1.0000
  O   O3        1.0  0.04125000000000001  0.39936000000000005  0.4497  1.0000
  O   O4        1.0  0.60822  0.08316  0.06903  1.0000
  O   O5        1.0  0.5417100000000001  0.9168300000000001  0.9323900000000002  1.0000
  O   O6        1.0  0.48571  0.60806  0.56909  1.0000
  O   O7        1.0  0.9168099999999999  0.54171  0.43237000000000003  1.0000
  O   O8        1.0  0.54156  0.5160500000000001  0.93186  1.0000
  O   O9        1.0  0.4509699999999999  0.95915  0.05053  1.0000
  O   O10       1.0  0.4096799999999999  0.54875  0.44985  1.0000
  O   O11       1.0  0.5903  0.45124000000000003  0.55016  1.0000
  O   O12       1.0  0.59103  0.6005600000000001  0.54992  1.0000
  O   O13       1.0  0.39192  0.5143  0.9309  1.0000
  O   O14       1.0  0.39934  0.04124999999999997  0.94966  1.0000
  O   O15       1.0  0.08318999999999999  0.45829  0.56763  1.0000
  O   O16       1.0  0.45125999999999994  0.59029  0.05013000000000001  1.0000
  O   O17       1.0  0.54902  0.04083999999999999  0.94947  1.0000
  O   O18       1.0  0.08318000000000002  0.6082300000000002  0.56905  1.0000
  O   O19       1.0  0.91682  0.39176000000000005  0.43095  1.0000
  O   O20       1.0  0.95875  0.6006400000000001  0.55031  1.0000
  O   O21       1.0  0.51602  0.5416  0.43188  1.0000
  O   O22       1.0  0.60807  0.48571  0.06910000000000001  1.0000
  O   O23       1.0  0.5487299999999999  0.40971000000000013  0.94986  1.0000
  O   O24       1.0  0.4584300000000001  0.48395  0.06814  1.0000
  O   O25       1.0  0.6006399999999998  0.95874  0.05034  1.0000
  O   O26       1.0  0.39944000000000013  0.4089800000000001  0.9501  1.0000
  O   O27       1.0  0.51427  0.39192999999999995  0.43091  1.0000
  O   O28       1.0  0.45828  0.08316  0.06761  1.0000
  O   O29       1.0  0.48396999999999996  0.45840000000000003  0.56812  1.0000
  O   O30       1.0  0.39178  0.9168300000000001  0.93097  1.0000
  O   O31       1.0  0.040840000000000036  0.54902  0.4495  1.0000
  O   O32       1.0  0.9591599999999999  0.45098  0.55051  1.0000
  F   F1        1.0  0.20107  0.69409  0.25444  1.0000
  F   F2        1.0  0.7884  0.32299  0.82484  1.0000
  F   F3        1.0  0.0028799999999999924  0.034600000000000006  0.32563  1.0000
  F   F4        1.0  0.41743  0.01372000000000002  0.2980900000000001  1.0000
  F   F5        1.0  0.5825599999999999  0.98627  0.70191  1.0000
  F   F6        1.0  0.7989699999999998  0.94454  0.7456500000000001  1.0000
  F   F7        1.0  0.21185999999999997  0.99697  0.17427  1.0000
  F   F8        1.0  0.03474  0.32348  0.82587  1.0000
  F   F9        1.0  0.96539  0.99713  0.17438  1.0000
  F   F10       1.0  0.67655  0.96526  0.6741500000000002  1.0000
  F   F11       1.0  0.79892  0.30591  0.74556  1.0000
  F   F12       1.0  0.94104  0.9447800000000001  0.24574  1.0000
  F   F13       1.0  0.05523999999999999  0.058960000000000005  0.25426  1.0000
  F   F14       1.0  0.05895999999999998  0.055220000000000005  0.75426  1.0000
  F   F15       1.0  0.21506  0.11804  0.20468000000000003  1.0000
  F   F16       1.0  0.30590999999999996  0.79897  0.24528  1.0000
  F   F17       1.0  0.6771700000000002  0.21156000000000014  0.6757500000000002  1.0000
  F   F18       1.0  0.2116  0.677  0.17516  1.0000
  F   F19       1.0  0.7881299999999999  0.003030000000000016  0.82574  1.0000
  F   F20       1.0  0.9447600000000003  0.94104  0.7457400000000001  1.0000
  F   F21       1.0  0.41664  0.78482  0.29747  1.0000
  F   F22       1.0  0.03461000000000001  0.0028699999999999906  0.82562  1.0000
  F   F23       1.0  0.21517  0.5834  0.20245  1.0000
  F   F24       1.0  0.11798  0.98964  0.7025  1.0000
  F   F25       1.0  0.05558000000000002  0.6911  0.2524  1.0000
  F   F26       1.0  0.6911100000000001  0.0556000000000001  0.7523900000000002  1.0000
  F   F27       1.0  0.30888  0.9444000000000001  0.24762000000000003  1.0000
  F   F28       1.0  0.9444099999999999  0.3089000000000001  0.7476100000000001  1.0000
  F   F29       1.0  0.05545000000000003  0.20101000000000005  0.75436  1.0000
  F   F30       1.0  0.94454  0.79899  0.24564  1.0000
  F   F31       1.0  0.88198  0.78492  0.29531  1.0000
  F   F32       1.0  0.69409  0.20103  0.75472  1.0000
  F   F33       1.0  0.20102  0.05546000000000001  0.25435  1.0000
  F   F34       1.0  0.99711  0.9654  0.6743800000000001  1.0000
  F   F35       1.0  0.0030399999999999967  0.7881400000000001  0.32574  1.0000
  F   F36       1.0  0.11801000000000005  0.21508000000000005  0.7046900000000001  1.0000
  F   F37       1.0  0.9896299999999999  0.11799000000000001  0.2025  1.0000
  F   F38       1.0  0.013679999999999972  0.4174800000000001  0.79813  1.0000
  F   F39       1.0  0.32345  0.03474000000000004  0.32585000000000003  1.0000
  F   F40       1.0  0.9652599999999999  0.67652  0.17413  1.0000
  F   F41       1.0  0.9969499999999999  0.21185999999999994  0.67426  1.0000
  F   F42       1.0  0.7848299999999998  0.4166000000000001  0.79755  1.0000
  F   F43       1.0  0.010360000000000003  0.8820000000000001  0.7975  1.0000
  F   F44       1.0  0.98631  0.58252  0.20188000000000006  1.0000
  F   F45       1.0  0.78494  0.8819600000000001  0.79532  1.0000
  F   F46       1.0  0.5833500000000001  0.21518000000000007  0.7025300000000001  1.0000
  F   F47       1.0  0.88202  0.01035999999999999  0.2975  1.0000
  F   F48       1.0  0.32282  0.78844  0.32425  1.0000
