data_image0
_chemical_formula_structural       Cd6H124C176O48
_chemical_formula_sum              "Cd6 H124 C176 O48"
_cell_length_a       15.65661
_cell_length_b       18.597629999999995
_cell_length_c       27.596639999999997
_cell_angle_alpha    99.48946
_cell_angle_beta     88.56707
_cell_angle_gamma    103.01689999999999

_space_group_name_H-M_alt    "P 1"
_space_group_IT_number       1

loop_
  _space_group_symop_operation_xyz
  'x, y, z'

loop_
  _atom_site_type_symbol
  _atom_site_label
  _atom_site_symmetry_multiplicity
  _atom_site_fract_x
  _atom_site_fract_y
  _atom_site_fract_z
  _atom_site_occupancy
  Cd  Cd1       1.0  0.5459200000000002  0.68223  0.08861000000000001  1.0000
  Cd  Cd2       1.0  0.09223000000000002  0.1662800000000001  0.5870700000000001  1.0000
  Cd  Cd3       1.0  0.4540800000000001  0.31776  0.91139  1.0000
  Cd  Cd4       1.0  0.9077700000000002  0.83372  0.41293  1.0000
  Cd  Cd5       1.0  0.5  0.5  0.0  1.0000
  Cd  Cd6       1.0  0.0  0.0  0.5  1.0000
  H   H1        1.0  0.58059  0.58939  0.91276  1.0000
  H   H2        1.0  0.5619  0.5888300000000001  0.8234300000000001  1.0000
  H   H3        1.0  0.4471000000000001  0.7806600000000004  0.8572700000000001  1.0000
  H   H4        1.0  0.46589000000000025  0.7797200000000002  0.9471300000000002  1.0000
  H   H5        1.0  0.4190000000000001  0.5596  0.7781  1.0000
  H   H6        1.0  0.43184  0.50635  0.61821  1.0000
  H   H7        1.0  0.34475  0.37865  0.58501  1.0000
  H   H8        1.0  0.18841000000000008  0.3792900000000001  0.71447  1.0000
  H   H9        1.0  0.27744000000000013  0.50533  0.74939  1.0000
  H   H10       1.0  0.53181  0.9610000000000001  0.61094  1.0000
  H   H11       1.0  0.51189  0.61345  0.5956600000000002  1.0000
  H   H12       1.0  0.50209  0.7084600000000001  0.5979700000000001  1.0000
  H   H13       1.0  0.4283  0.6337100000000002  0.56023  1.0000
  H   H14       1.0  0.64261  0.8836900000000001  0.80643  1.0000
  H   H15       1.0  0.6679400000000002  0.8031200000000001  0.7687500000000003  1.0000
  H   H16       1.0  0.62418  0.7968300000000001  0.82948  1.0000
  H   H17       1.0  0.7708700000000002  0.7849500000000003  0.6631400000000002  1.0000
  H   H18       1.0  0.7145000000000002  0.8072300000000001  0.6144400000000002  1.0000
  H   H19       1.0  0.6851400000000002  0.71466  0.62985  1.0000
  H   H20       1.0  0.3084000000000002  0.8818700000000002  0.71235  1.0000
  H   H21       1.0  0.3436800000000001  0.82623  0.7516800000000002  1.0000
  H   H22       1.0  0.23688000000000003  0.7967400000000001  0.72264  1.0000
  H   H23       1.0  0.2798700000000001  0.80513  0.59061  1.0000
  H   H24       1.0  0.16555000000000006  0.8637400000000001  0.5621600000000001  1.0000
  H   H25       1.0  0.30587  0.07974000000000006  0.6319300000000001  1.0000
  H   H26       1.0  0.42376000000000014  0.022740000000000028  0.6581000000000001  1.0000
  H   H27       1.0  0.7247700000000002  0.9449900000000001  0.70903  1.0000
  H   H28       1.0  0.6581  0.9278200000000001  0.55664  1.0000
  H   H29       1.0  0.80422  0.008900000000000003  0.54312  1.0000
  H   H30       1.0  0.8697800000000002  0.029349999999999998  0.69548  1.0000
  H   H31       1.0  0.9858700000000001  0.28058000000000005  0.45875  1.0000
  H   H32       1.0  0.93597  0.28327  0.37361  1.0000
  H   H33       1.0  0.025280000000000004  0.08165  0.32129  1.0000
  H   H34       1.0  0.07614  0.08117000000000003  0.40577000000000013  1.0000
  H   H35       1.0  0.8780300000000002  0.06623  0.2846  1.0000
  H   H36       1.0  0.72773  0.012010000000000009  0.25889  1.0000
  H   H37       1.0  0.64351  0.8865000000000001  0.21946000000000002  1.0000
  H   H38       1.0  0.99715  0.50873  0.18581000000000003  1.0000
  H   H39       1.0  0.8121300000000001  0.3931100000000001  0.27909  1.0000
  H   H40       1.0  0.7034  0.3190600000000001  0.26998  1.0000
  H   H41       1.0  0.12292000000000006  0.37281  0.32607  1.0000
  H   H42       1.0  0.14236  0.31081  0.27181000000000005  1.0000
  H   H43       1.0  0.10300000000000002  0.27444  0.32702  1.0000
  H   H44       1.0  0.13926  0.21652  0.14374  1.0000
  H   H45       1.0  0.027200000000000037  0.21390000000000012  0.12929  1.0000
  H   H46       1.0  0.05331000000000004  0.18605000000000008  0.18531  1.0000
  H   H47       1.0  0.73554  0.14359000000000002  0.10311000000000002  1.0000
  H   H48       1.0  0.7089200000000002  0.19574000000000005  0.16000000000000003  1.0000
  H   H49       1.0  0.71615  0.10021999999999999  0.15722  1.0000
  H   H50       1.0  0.72806  0.34465  0.1405  1.0000
  H   H51       1.0  0.6226600000000001  0.40168  0.10340000000000003  1.0000
  H   H52       1.0  0.77225  0.62126  0.15951  1.0000
  H   H53       1.0  0.8851  0.56625  0.19278  1.0000
  H   H54       1.0  0.15102000000000004  0.34556  0.10184000000000001  1.0000
  H   H55       1.0  0.28395  0.41293  0.0631  1.0000
  H   H56       1.0  0.28023  0.61404  0.16394  1.0000
  H   H57       1.0  0.13948999999999998  0.5515099999999998  0.19845  1.0000
  H   H58       1.0  0.73803  0.9389900000000001  0.08717  1.0000
  H   H59       1.0  0.8374800000000001  0.04893999999999999  0.1216  1.0000
  H   H60       1.0  0.8137300000000001  0.8919500000000002  0.10366000000000003  1.0000
  H   H61       1.0  0.89886  0.9991000000000001  0.14911  1.0000
  H   H62       1.0  0.97431  0.4598  0.12721000000000002  1.0000
  H   H63       1.0  0.41941  0.41060000000000013  0.08724  1.0000
  H   H64       1.0  0.4380900000000001  0.41117000000000004  0.17657  1.0000
  H   H65       1.0  0.5529  0.21933000000000002  0.14274  1.0000
  H   H66       1.0  0.5341100000000002  0.22027  0.05287000000000001  1.0000
  H   H67       1.0  0.58099  0.4404000000000001  0.22191000000000005  1.0000
  H   H68       1.0  0.5681600000000002  0.49365  0.3818  1.0000
  H   H69       1.0  0.65525  0.62135  0.4149900000000001  1.0000
  H   H70       1.0  0.8115900000000003  0.6207  0.28554  1.0000
  H   H71       1.0  0.7225600000000002  0.49467  0.25062  1.0000
  H   H72       1.0  0.4681900000000001  0.03899000000000003  0.38907000000000014  1.0000
  H   H73       1.0  0.4881  0.3865400000000001  0.40434000000000003  1.0000
  H   H74       1.0  0.49789999999999995  0.29153  0.4020300000000001  1.0000
  H   H75       1.0  0.5717  0.36629000000000006  0.4397700000000001  1.0000
  H   H76       1.0  0.35738  0.11631  0.19357  1.0000
  H   H77       1.0  0.33205  0.19688000000000005  0.23126000000000005  1.0000
  H   H78       1.0  0.37582  0.20316000000000004  0.17053000000000004  1.0000
  H   H79       1.0  0.22912  0.21504  0.33686000000000005  1.0000
  H   H80       1.0  0.2855000000000001  0.19277  0.38556  1.0000
  H   H81       1.0  0.31485  0.28533  0.37015  1.0000
  H   H82       1.0  0.6916  0.11812000000000003  0.28765  1.0000
  H   H83       1.0  0.6563100000000002  0.17377  0.24832000000000007  1.0000
  H   H84       1.0  0.76311  0.20326  0.27736  1.0000
  H   H85       1.0  0.7201200000000002  0.19486  0.40939  1.0000
  H   H86       1.0  0.8344400000000002  0.13626  0.43784  1.0000
  H   H87       1.0  0.6941300000000004  0.9202600000000001  0.36808  1.0000
  H   H88       1.0  0.5762400000000002  0.9772500000000001  0.3419000000000001  1.0000
  H   H89       1.0  0.27522  0.055010000000000024  0.29098000000000007  1.0000
  H   H90       1.0  0.34189000000000014  0.07218000000000002  0.4433600000000001  1.0000
  H   H91       1.0  0.19577999999999995  0.9911  0.45689000000000013  1.0000
  H   H92       1.0  0.13022000000000003  0.9706400000000002  0.30452000000000007  1.0000
  H   H93       1.0  0.014120000000000046  0.71942  0.54126  1.0000
  H   H94       1.0  0.06401999999999997  0.71673  0.6263900000000002  1.0000
  H   H95       1.0  0.97471  0.9183500000000002  0.6787200000000002  1.0000
  H   H96       1.0  0.9238600000000003  0.9188300000000001  0.59423  1.0000
  H   H97       1.0  0.12197000000000004  0.93377  0.7154000000000003  1.0000
  H   H98       1.0  0.27226  0.98799  0.74111  1.0000
  H   H99       1.0  0.35648  0.11350000000000002  0.78055  1.0000
  H   H100      1.0  0.002850000000000046  0.4912700000000001  0.8142000000000001  1.0000
  H   H101      1.0  0.18787000000000004  0.6068900000000002  0.7209100000000002  1.0000
  H   H102      1.0  0.2966  0.68094  0.7300200000000002  1.0000
  H   H103      1.0  0.8770800000000002  0.6271900000000001  0.6739300000000003  1.0000
  H   H104      1.0  0.8576300000000002  0.6891900000000001  0.7281900000000002  1.0000
  H   H105      1.0  0.897  0.72555  0.67299  1.0000
  H   H106      1.0  0.86073  0.7834700000000002  0.85626  1.0000
  H   H107      1.0  0.9728  0.7861000000000002  0.8707100000000002  1.0000
  H   H108      1.0  0.9466800000000002  0.8139400000000001  0.8146900000000002  1.0000
  H   H109      1.0  0.26445000000000013  0.85641  0.8969  1.0000
  H   H110      1.0  0.29107  0.8042500000000002  0.8400100000000001  1.0000
  H   H111      1.0  0.28384  0.89978  0.8427800000000002  1.0000
  H   H112      1.0  0.2719300000000001  0.65535  0.8595  1.0000
  H   H113      1.0  0.37733  0.59832  0.89661  1.0000
  H   H114      1.0  0.22775000000000006  0.37874  0.8404900000000002  1.0000
  H   H115      1.0  0.11489000000000006  0.43375000000000025  0.80723  1.0000
  H   H116      1.0  0.84897  0.65444  0.89817  1.0000
  H   H117      1.0  0.7160499999999999  0.58706  0.9369100000000002  1.0000
  H   H118      1.0  0.7197700000000002  0.38596  0.8360600000000002  1.0000
  H   H119      1.0  0.86051  0.44849  0.8015500000000002  1.0000
  H   H120      1.0  0.2619699999999999  0.06101000000000006  0.91284  1.0000
  H   H121      1.0  0.16252000000000003  0.9510600000000001  0.8784100000000002  1.0000
  H   H122      1.0  0.18627  0.10805000000000002  0.89634  1.0000
  H   H123      1.0  0.10113  0.0009000000000000552  0.8508900000000003  1.0000
  H   H124      1.0  0.025690000000000053  0.54019  0.87279  1.0000
  C   C1        1.0  0.5277300000000004  0.6802300000000002  0.9888400000000002  1.0000
  C   C2        1.0  0.52333  0.68393  0.93528  1.0000
  C   C3        1.0  0.55215  0.63132  0.90029  1.0000
  C   C4        1.0  0.5409  0.6308900000000001  0.8503600000000002  1.0000
  C   C5        1.0  0.50084  0.68336  0.8342600000000002  1.0000
  C   C6        1.0  0.47602999999999995  0.7386200000000002  0.8694700000000002  1.0000
  C   C7        1.0  0.48684000000000005  0.7386399999999999  0.91943  1.0000
  C   C8        1.0  0.4800700000000002  0.6756400000000002  0.78138  1.0000
  C   C9        1.0  0.4995700000000002  0.7351300000000001  0.7542400000000002  1.0000
  C   C10       1.0  0.47571  0.7236799999999999  0.70403  1.0000
  C   C11       1.0  0.4320900000000001  0.6518900000000001  0.6807600000000003  1.0000
  C   C12       1.0  0.41007000000000005  0.5915100000000002  0.7074200000000003  1.0000
  C   C13       1.0  0.43555000000000016  0.6054400000000001  0.7571500000000002  1.0000
  C   C14       1.0  0.35964000000000007  0.5160900000000002  0.68581  1.0000
  C   C15       1.0  0.3783900000000001  0.47928000000000004  0.63938  1.0000
  C   C16       1.0  0.33028  0.4078  0.6207100000000002  1.0000
  C   C17       1.0  0.26105  0.37166  0.64737  1.0000
  C   C18       1.0  0.24224000000000007  0.4075600000000001  0.6939100000000002  1.0000
  C   C19       1.0  0.29164  0.47837  0.71295  1.0000
  C   C20       1.0  0.20711000000000007  0.29659  0.62565  1.0000
  C   C21       1.0  0.49225000000000013  0.78854  0.67734  1.0000
  C   C22       1.0  0.57817  0.8240700000000002  0.6660900000000001  1.0000
  C   C23       1.0  0.59303  0.88748  0.6425700000000002  1.0000
  C   C24       1.0  0.52017  0.9120600000000001  0.62907  1.0000
  C   C25       1.0  0.4336800000000001  0.87801  0.6390500000000002  1.0000
  C   C26       1.0  0.42135000000000017  0.8160500000000002  0.6638200000000002  1.0000
  C   C27       1.0  0.4659  0.6500500000000002  0.5948200000000002  1.0000
  C   C28       1.0  0.6233900000000002  0.82264  0.7965500000000002  1.0000
  C   C29       1.0  0.70715  0.77451  0.6444800000000002  1.0000
  C   C30       1.0  0.30546  0.82451  0.7183900000000001  1.0000
  C   C31       1.0  0.36078  0.90996  0.6254300000000003  1.0000
  C   C32       1.0  0.28612  0.86529  0.59935  1.0000
  C   C33       1.0  0.22191  0.8978300000000001  0.5836400000000002  1.0000
  C   C34       1.0  0.22915999999999995  0.97533  0.5949700000000001  1.0000
  C   C35       1.0  0.30172  0.019860000000000065  0.6226700000000002  1.0000
  C   C36       1.0  0.3671700000000001  0.9877100000000001  0.6371300000000002  1.0000
  C   C37       1.0  0.16109000000000007  0.011740000000000009  0.57762  1.0000
  C   C38       1.0  0.7424100000000002  0.95914  0.67287  1.0000
  C   C39       1.0  0.68164  0.93153  0.6338100000000002  1.0000
  C   C40       1.0  0.7044300000000002  0.94993  0.5870900000000001  1.0000
  C   C41       1.0  0.7859900000000002  0.9949900000000002  0.5793400000000001  1.0000
  C   C42       1.0  0.8454700000000003  0.023530000000000023  0.6186700000000002  1.0000
  C   C43       1.0  0.8230300000000003  0.00549000000000002  0.66544  1.0000
  C   C44       1.0  0.9323300000000002  0.07319000000000003  0.6113  1.0000
  C   C45       1.0  0.05852999999999999  0.17552  0.4886  1.0000
  C   C46       1.0  0.03288000000000002  0.18005000000000002  0.4373900000000001  1.0000
  C   C47       1.0  0.9944100000000002  0.23778000000000002  0.42819  1.0000
  C   C48       1.0  0.9665500000000002  0.2390500000000001  0.38087000000000004  1.0000
  C   C49       1.0  0.9764  0.18235000000000007  0.34199  1.0000
  C   C50       1.0  0.016170000000000014  0.12530000000000002  0.3511900000000001  1.0000
  C   C51       1.0  0.04456  0.12466000000000005  0.3984500000000001  1.0000
  C   C52       1.0  0.9437000000000002  0.18158000000000005  0.29211  1.0000
  C   C53       1.0  0.96216  0.24478  0.26832  1.0000
  C   C54       1.0  0.9224000000000003  0.24159000000000003  0.22248000000000007  1.0000
  C   C55       1.0  0.8671800000000002  0.17517000000000005  0.19878000000000007  1.0000
  C   C56       1.0  0.8526300000000002  0.10948000000000002  0.22019000000000002  1.0000
  C   C57       1.0  0.8905400000000002  0.11574  0.2669  1.0000
  C   C58       1.0  0.80387  0.03528000000000002  0.19611000000000006  1.0000
  C   C59       1.0  0.74271  0.99127  0.22106000000000003  1.0000
  C   C60       1.0  0.6938  0.91858  0.19857  1.0000
  C   C61       1.0  0.70576  0.8902700000000001  0.15094000000000002  1.0000
  C   C62       1.0  0.77302  0.93096  0.11931000000000003  1.0000
  C   C63       1.0  0.8312700000000002  0.005720000000000004  0.14501000000000003  1.0000
  C   C64       1.0  0.65139  0.81654  0.12745  1.0000
  C   C65       1.0  0.9410700000000002  0.31014  0.19992  1.0000
  C   C66       1.0  0.026689999999999995  0.33902  0.18254  1.0000
  C   C67       1.0  0.04754000000000002  0.40924000000000016  0.16838000000000003  1.0000
  C   C68       1.0  0.97694  0.45070000000000005  0.16574  1.0000
  C   C69       1.0  0.88584  0.41679  0.17984000000000006  1.0000
  C   C70       1.0  0.8750700000000002  0.35004  0.19713000000000006  1.0000
  C   C71       1.0  0.7676500000000003  0.34563000000000005  0.25759  1.0000
  C   C72       1.0  0.10109000000000001  0.31704  0.30424000000000007  1.0000
  C   C73       1.0  0.07596000000000003  0.22426  0.15898  1.0000
  C   C74       1.0  0.7430900000000004  0.15250000000000005  0.14317  1.0000
  C   C75       1.0  0.8155200000000002  0.45121000000000006  0.16859000000000002  1.0000
  C   C76       1.0  0.73835  0.40516000000000013  0.14517000000000002  1.0000
  C   C77       1.0  0.67901  0.43671  0.12431000000000003  1.0000
  C   C78       1.0  0.6918900000000002  0.5145200000000001  0.12862000000000004  1.0000
  C   C79       1.0  0.76508  0.56093  0.15491  1.0000
  C   C80       1.0  0.8275500000000002  0.52975  0.17348  1.0000
  C   C81       1.0  0.6280500000000002  0.54731  0.10376000000000003  1.0000
  C   C82       1.0  0.13399  0.44418  0.15186000000000002  1.0000
  C   C83       1.0  0.17822  0.40442  0.11518000000000003  1.0000
  C   C84       1.0  0.25305  0.44162  0.09389000000000003  1.0000
  C   C85       1.0  0.2894100000000001  0.51748  0.11129000000000003  1.0000
  C   C86       1.0  0.24921000000000004  0.55607  0.14993  1.0000
  C   C87       1.0  0.17068999999999998  0.52069  0.16885000000000003  1.0000
  C   C88       1.0  0.37134  0.55688  0.08816  1.0000
  C   C89       1.0  0.47226  0.3197700000000001  0.011170000000000003  1.0000
  C   C90       1.0  0.47666000000000003  0.31607000000000013  0.06472  1.0000
  C   C91       1.0  0.44784  0.36868  0.09972  1.0000
  C   C92       1.0  0.45909  0.36911  0.14964  1.0000
  C   C93       1.0  0.49915  0.31664  0.16574  1.0000
  C   C94       1.0  0.52396  0.26138  0.13053  1.0000
  C   C95       1.0  0.5131500000000002  0.26136  0.08057000000000003  1.0000
  C   C96       1.0  0.51993  0.32435  0.21862  1.0000
  C   C97       1.0  0.50043  0.2648700000000001  0.24576  1.0000
  C   C98       1.0  0.52429  0.27632000000000007  0.29597000000000007  1.0000
  C   C99       1.0  0.5679  0.34811  0.31924  1.0000
  C   C100      1.0  0.58992  0.40848  0.29258  1.0000
  C   C101      1.0  0.5644400000000003  0.39455  0.24286  1.0000
  C   C102      1.0  0.6403600000000002  0.48391000000000006  0.31419000000000014  1.0000
  C   C103      1.0  0.6216  0.52072  0.3606200000000001  1.0000
  C   C104      1.0  0.66971  0.5922  0.37929  1.0000
  C   C105      1.0  0.73894  0.62834  0.3526300000000001  1.0000
  C   C106      1.0  0.7577500000000003  0.59243  0.30609  1.0000
  C   C107      1.0  0.7083600000000001  0.52163  0.28706  1.0000
  C   C108      1.0  0.7928800000000003  0.7034000000000001  0.3743600000000001  1.0000
  C   C109      1.0  0.50774  0.21145000000000005  0.3226600000000001  1.0000
  C   C110      1.0  0.42183  0.17593  0.33392  1.0000
  C   C111      1.0  0.40697000000000005  0.11252000000000001  0.35743  1.0000
  C   C112      1.0  0.4798300000000001  0.08793  0.37093  1.0000
  C   C113      1.0  0.5663200000000003  0.12199000000000003  0.3609600000000001  1.0000
  C   C114      1.0  0.5786500000000002  0.18395000000000006  0.33618000000000003  1.0000
  C   C115      1.0  0.5341000000000002  0.34995000000000004  0.40518000000000004  1.0000
  C   C116      1.0  0.37661000000000017  0.17736000000000005  0.20346000000000003  1.0000
  C   C117      1.0  0.29284  0.22549000000000008  0.35552000000000006  1.0000
  C   C118      1.0  0.6945400000000002  0.17548000000000002  0.2816100000000001  1.0000
  C   C119      1.0  0.63921  0.09004  0.37457  1.0000
  C   C120      1.0  0.71387  0.13471000000000002  0.4006500000000001  1.0000
  C   C121      1.0  0.77808  0.10217  0.41636  1.0000
  C   C122      1.0  0.7708300000000002  0.02467000000000004  0.4050300000000001  1.0000
  C   C123      1.0  0.69828  0.9801300000000001  0.37733  1.0000
  C   C124      1.0  0.63282  0.01229000000000001  0.36287  1.0000
  C   C125      1.0  0.8389100000000004  0.9882600000000002  0.4223900000000001  1.0000
  C   C126      1.0  0.25758  0.04086  0.32714  1.0000
  C   C127      1.0  0.31836  0.06846000000000003  0.3661900000000001  1.0000
  C   C128      1.0  0.29556  0.05007  0.41291  1.0000
  C   C129      1.0  0.21400000000000005  0.005010000000000002  0.42066  1.0000
  C   C130      1.0  0.15452000000000007  0.9764700000000002  0.38133000000000006  1.0000
  C   C131      1.0  0.17696000000000003  0.9945100000000001  0.33457  1.0000
  C   C132      1.0  0.06767  0.92681  0.38871  1.0000
  C   C133      1.0  0.9414700000000003  0.82447  0.51141  1.0000
  C   C134      1.0  0.9671100000000002  0.81995  0.56261  1.0000
  C   C135      1.0  0.005589999999999998  0.76222  0.5718100000000002  1.0000
  C   C136      1.0  0.03344000000000008  0.7609400000000003  0.61913  1.0000
  C   C137      1.0  0.02359000000000001  0.81765  0.65801  1.0000
  C   C138      1.0  0.98383  0.87469  0.64882  1.0000
  C   C139      1.0  0.9554399999999998  0.87534  0.60155  1.0000
  C   C140      1.0  0.056290000000000104  0.8184200000000003  0.7079  1.0000
  C   C141      1.0  0.037829999999999996  0.75522  0.73168  1.0000
  C   C142      1.0  0.07760000000000002  0.75841  0.7775200000000001  1.0000
  C   C143      1.0  0.13282000000000002  0.8248300000000002  0.8012300000000002  1.0000
  C   C144      1.0  0.14735999999999996  0.8905200000000001  0.7798100000000002  1.0000
  C   C145      1.0  0.10945000000000003  0.88425  0.7331000000000002  1.0000
  C   C146      1.0  0.19613000000000005  0.96472  0.8038900000000001  1.0000
  C   C147      1.0  0.25728  0.008719999999999988  0.77894  1.0000
  C   C148      1.0  0.3062  0.08141  0.80143  1.0000
  C   C149      1.0  0.29423  0.10973  0.84906  1.0000
  C   C150      1.0  0.22697999999999996  0.06903000000000004  0.8807000000000003  1.0000
  C   C151      1.0  0.16872  0.99428  0.8549900000000001  1.0000
  C   C152      1.0  0.3486  0.1834600000000001  0.8725500000000003  1.0000
  C   C153      1.0  0.058919999999999986  0.68985  0.80008  1.0000
  C   C154      1.0  0.9733100000000002  0.66097  0.81746  1.0000
  C   C155      1.0  0.95245  0.59075  0.8316200000000001  1.0000
  C   C156      1.0  0.023050000000000008  0.5493  0.8342700000000002  1.0000
  C   C157      1.0  0.11416000000000003  0.5832100000000001  0.8201600000000002  1.0000
  C   C158      1.0  0.12492  0.64996  0.80287  1.0000
  C   C159      1.0  0.23234000000000007  0.6543700000000002  0.7424100000000002  1.0000
  C   C160      1.0  0.8989  0.68296  0.69577  1.0000
  C   C161      1.0  0.9240400000000003  0.7757400000000002  0.84103  1.0000
  C   C162      1.0  0.25691  0.8475000000000003  0.8568300000000001  1.0000
  C   C163      1.0  0.18447000000000005  0.54879  0.83141  1.0000
  C   C164      1.0  0.2616400000000001  0.59484  0.8548300000000001  1.0000
  C   C165      1.0  0.32098  0.56328  0.8756900000000002  1.0000
  C   C166      1.0  0.3081  0.48548000000000013  0.8713800000000003  1.0000
  C   C167      1.0  0.23491000000000012  0.43906  0.8451  1.0000
  C   C168      1.0  0.17244000000000004  0.47024000000000005  0.8265200000000003  1.0000
  C   C169      1.0  0.3719400000000001  0.45269  0.89625  1.0000
  C   C170      1.0  0.866  0.5558100000000001  0.84815  1.0000
  C   C171      1.0  0.82177  0.59558  0.88482  1.0000
  C   C172      1.0  0.7469400000000002  0.55837  0.9061100000000002  1.0000
  C   C173      1.0  0.7105800000000002  0.48252000000000006  0.8887200000000002  1.0000
  C   C174      1.0  0.7507900000000002  0.44393  0.85007  1.0000
  C   C175      1.0  0.8293  0.47931  0.8311500000000003  1.0000
  C   C176      1.0  0.62865  0.44311000000000006  0.91184  1.0000
  O   O1        1.0  0.56251  0.6295  0.00228  1.0000
  O   O2        1.0  0.49828000000000006  0.72698  0.01938  1.0000
  O   O3        1.0  0.97844  0.10981  0.64761  1.0000
  O   O4        1.0  0.95651  0.07826000000000002  0.5664200000000001  1.0000
  O   O5        1.0  0.16086  0.0768  0.6004  1.0000
  O   O6        1.0  0.11135000000000002  0.9742400000000001  0.54201  1.0000
  O   O7        1.0  0.23413000000000003  0.2594  0.58796  1.0000
  O   O8        1.0  0.1336  0.27261  0.64565  1.0000
  O   O9        1.0  0.40185  0.6398  0.63303  1.0000
  O   O10       1.0  0.5359  0.80763  0.77576  1.0000
  O   O11       1.0  0.33757000000000004  0.7814500000000002  0.67658  1.0000
  O   O12       1.0  0.64572  0.79612  0.68114  1.0000
  O   O13       1.0  0.0908  0.11963  0.49499  1.0000
  O   O14       1.0  0.04767  0.22575  0.52356  1.0000
  O   O15       1.0  0.3855000000000001  0.52706  0.04486000000000001  1.0000
  O   O16       1.0  0.4161900000000001  0.61545  0.11407  1.0000
  O   O17       1.0  0.57816  0.7907900000000001  0.14718  1.0000
  O   O18       1.0  0.6799100000000002  0.78292  0.08872000000000002  1.0000
  O   O19       1.0  0.57891  0.50236  0.07092  1.0000
  O   O20       1.0  0.6314200000000002  0.6162  0.11874000000000001  1.0000
  O   O21       1.0  0.7905900000000002  0.3164000000000001  0.21410000000000007  1.0000
  O   O22       1.0  0.09214000000000003  0.3017  0.18334  1.0000
  O   O23       1.0  0.8364900000000002  0.17823000000000003  0.15278000000000005  1.0000
  O   O24       1.0  0.012210000000000056  0.31347000000000014  0.28824  1.0000
  O   O25       1.0  0.43748000000000004  0.37050000000000016  0.99773  1.0000
  O   O26       1.0  0.50171  0.27302000000000004  0.9806200000000003  1.0000
  O   O27       1.0  0.021559999999999992  0.89018  0.35239  1.0000
  O   O28       1.0  0.04349000000000005  0.9217400000000001  0.43358  1.0000
  O   O29       1.0  0.8391300000000003  0.92319  0.3996  1.0000
  O   O30       1.0  0.88865  0.025749999999999988  0.4580000000000001  1.0000
  O   O31       1.0  0.76586  0.7406  0.41204000000000013  1.0000
  O   O32       1.0  0.8664000000000002  0.7273800000000002  0.35436000000000006  1.0000
  O   O33       1.0  0.5981500000000002  0.36020000000000013  0.36697000000000013  1.0000
  O   O34       1.0  0.4640900000000001  0.19236  0.22424000000000005  1.0000
  O   O35       1.0  0.66242  0.21855  0.32343  1.0000
  O   O36       1.0  0.35427000000000014  0.2038800000000001  0.31886000000000003  1.0000
  O   O37       1.0  0.90919  0.8803700000000002  0.50501  1.0000
  O   O38       1.0  0.9523200000000003  0.77424  0.4764400000000001  1.0000
  O   O39       1.0  0.6144899999999998  0.47294  0.95514  1.0000
  O   O40       1.0  0.58381  0.38454000000000005  0.8859300000000002  1.0000
  O   O41       1.0  0.42183  0.20921  0.85282  1.0000
  O   O42       1.0  0.32008  0.21708000000000005  0.91128  1.0000
  O   O43       1.0  0.42108000000000007  0.49764  0.9290800000000002  1.0000
  O   O44       1.0  0.3685700000000002  0.3838000000000001  0.8812600000000003  1.0000
  O   O45       1.0  0.20940000000000006  0.68359  0.7859  1.0000
  O   O46       1.0  0.90785  0.6982900000000002  0.81666  1.0000
  O   O47       1.0  0.16350000000000012  0.8217700000000002  0.84723  1.0000
  O   O48       1.0  0.98778  0.68652  0.7117600000000002  1.0000
