data_image0
_chemical_formula_structural       Zn16H108C192O64
_chemical_formula_sum              "Zn16 H108 C192 O64"
_cell_length_a       25.41768
_cell_length_b       25.41796
_cell_length_c       25.4181
_cell_angle_alpha    109.46891
_cell_angle_beta     109.46675
_cell_angle_gamma    109.46589999999999

_space_group_name_H-M_alt    "P 1"
_space_group_IT_number       1

loop_
  _space_group_symop_operation_xyz
  'x, y, z'

loop_
  _atom_site_type_symbol
  _atom_site_label
  _atom_site_symmetry_multiplicity
  _atom_site_fract_x
  _atom_site_fract_y
  _atom_site_fract_z
  _atom_site_occupancy
  Zn  Zn1       1.0  0.82032  0.24098  0.74632  1.0000
  Zn  Zn2       1.0  0.75363  0.49462  0.57397  1.0000
  Zn  Zn3       1.0  0.42066  0.1796899999999999  0.9259999999999999  1.0000
  Zn  Zn4       1.0  0.9946199999999998  0.07396999999999998  0.75362  1.0000
  Zn  Zn5       1.0  0.74632  0.32031  0.74098  1.0000
  Zn  Zn6       1.0  0.66427  0.16427  0.66427  1.0000
  Zn  Zn7       1.0  0.0  0.0  0.83577  1.0000
  Zn  Zn8       1.0  0.5053400000000001  0.259  0.07933  1.0000
  Zn  Zn9       1.0  0.5739599999999999  0.25361  0.99462  1.0000
  Zn  Zn10      1.0  0.74099  0.24632999999999988  0.8203199999999999  1.0000
  Zn  Zn11      1.0  0.07932999999999998  0.005339999999999989  0.759  1.0000
  Zn  Zn12      1.0  0.6797  0.4259899999999999  0.42066  1.0000
  Zn  Zn13      1.0  0.8357699999999999  0.5  0.50001  1.0000
  Zn  Zn14      1.0  0.50001  0.33577  0.0  1.0000
  Zn  Zn15      1.0  0.9259999999999998  0.92066  0.67969  1.0000
  Zn  Zn16      1.0  0.7589999999999999  0.57933  0.50534  1.0000
  H   H1        1.0  0.59495  0.66427  0.1232  1.0000
  H   H2        1.0  0.10974000000000005  0.86251  0.63721  1.0000
  H   H3        1.0  0.24918  0.67163  0.64526  1.0000
  H   H4        1.0  0.42404  0.78542  0.34618  1.0000
  H   H5        1.0  0.37681  0.5411  0.9717499999999999  1.0000
  H   H6        1.0  0.9639099999999998  0.4517999999999999  0.60677  1.0000
  H   H7        1.0  0.74728  0.27473  0.13749  1.0000
  H   H8        1.0  0.39027  0.02758000000000003  0.75284  1.0000
  H   H9        1.0  0.62527  0.70487  0.89764  1.0000
  H   H10       1.0  0.15501  0.04818999999999999  0.012090000000000002  1.0000
  H   H11       1.0  0.9033899999999999  0.20213  0.23567  1.0000
  H   H12       1.0  0.10392999999999994  0.35472  0.52636  1.0000
  H   H13       1.0  0.85705  0.39316  0.34501  1.0000
  H   H14       1.0  0.2573999999999999  0.0895699999999999  0.9132399999999999  1.0000
  H   H15       1.0  0.2642900000000001  0.96648  0.1677  1.0000
  H   H16       1.0  0.043059999999999966  0.36766  0.19556999999999997  1.0000
  H   H17       1.0  0.91324  0.7574  0.58957  1.0000
  H   H18       1.0  0.86766  0.69557  0.04306  1.0000
  H   H19       1.0  0.67632  0.34409  0.58676  1.0000
  H   H20       1.0  0.90507  0.02824  0.06936  1.0000
  H   H21       1.0  0.36134000000000005  0.57592  0.92211  1.0000
  H   H22       1.0  0.34617999999999993  0.92404  0.28541  1.0000
  H   H23       1.0  0.39605999999999997  0.92247  0.25078  1.0000
  H   H24       1.0  0.20126  0.53351  0.79783  1.0000
  H   H25       1.0  0.13749999999999993  0.24726999999999996  0.77473  1.0000
  H   H26       1.0  0.9221099999999999  0.86134  0.07593  1.0000
  H   H27       1.0  0.012090000000000016  0.655  0.54818  1.0000
  H   H28       1.0  0.32835  0.57757  0.97362  1.0000
  H   H29       1.0  0.21456999999999998  0.63865  0.56077  1.0000
  H   H30       1.0  0.17163  0.14526  0.24918  1.0000
  H   H31       1.0  0.8976399999999999  0.12526999999999996  0.20486999999999997  1.0000
  H   H32       1.0  0.4224799999999999  0.75079  0.39607  1.0000
  H   H33       1.0  0.48798999999999987  0.03617999999999997  0.64294  1.0000
  H   H34       1.0  0.97175  0.87681  0.0411  1.0000
  H   H35       1.0  0.67211  0.8475  0.30442  1.0000
  H   H36       1.0  0.64526  0.74918  0.17163  1.0000
  H   H37       1.0  0.13865  0.06077999999999998  0.21457  1.0000
  H   H38       1.0  0.66777  0.32362  0.91042  1.0000
  H   H39       1.0  0.34500999999999993  0.35705  0.89316  1.0000
  H   H40       1.0  0.42039  0.69273  0.29506  1.0000
  H   H41       1.0  0.79784  0.70127  0.03352  1.0000
  H   H42       1.0  0.30442  0.17212  0.34751  1.0000
  H   H43       1.0  0.52758  0.25284  0.39027  1.0000
  H   H44       1.0  0.91044  0.16778000000000012  0.8236300000000001  1.0000
  H   H45       1.0  0.83215  0.74263  0.65584  1.0000
  H   H46       1.0  0.82787  0.1323  0.17539  1.0000
  H   H47       1.0  0.6372199999999999  0.60975  0.36252  1.0000
  H   H48       1.0  0.59655  0.8322100000000002  0.29873  1.0000
  H   H49       1.0  0.72529  0.47252999999999995  0.8627899999999998  1.0000
  H   H50       1.0  0.77473  0.63749  0.74727  1.0000
  H   H51       1.0  0.5895699999999999  0.41323999999999994  0.2574  1.0000
  H   H52       1.0  0.16769999999999996  0.7643  0.46646999999999994  1.0000
  H   H53       1.0  0.23567000000000002  0.40339  0.70213  1.0000
  H   H54       1.0  0.3475  0.80442  0.67211  1.0000
  H   H55       1.0  0.07592  0.42211  0.36133  1.0000
  H   H56       1.0  0.56078  0.71457  0.13866  1.0000
  H   H57       1.0  0.22764999999999996  0.10238  0.30726  1.0000
  H   H58       1.0  0.5778799999999998  0.6537899999999999  0.9392299999999999  1.0000
  H   H59       1.0  0.60677  0.46391  0.9518  1.0000
  H   H60       1.0  0.3072599999999999  0.7276499999999999  0.60237  1.0000
  H   H61       1.0  0.03350999999999996  0.29783  0.20126  1.0000
  H   H62       1.0  0.19556  0.54306  0.86765  1.0000
  H   H63       1.0  0.9725299999999998  0.36279  0.72528  1.0000
  H   H64       1.0  0.15246999999999997  0.8245799999999999  0.45694  1.0000
  H   H65       1.0  0.3625199999999999  0.13722  0.10974000000000002  1.0000
  H   H66       1.0  0.17538999999999996  0.32786  0.6323  1.0000
  H   H67       1.0  0.46647  0.6677  0.26429  1.0000
  H   H68       1.0  0.45693  0.65247  0.32458  1.0000
  H   H69       1.0  0.89316  0.84501  0.85705  1.0000
  H   H70       1.0  0.12321  0.09494999999999999  0.16427  1.0000
  H   H71       1.0  0.2723699999999999  0.57958  0.8746899999999999  1.0000
  H   H72       1.0  0.20486999999999997  0.39763  0.62527  1.0000
  H   H73       1.0  0.29873  0.09655  0.33221  1.0000
  H   H74       1.0  0.5263699999999998  0.6039299999999997  0.8547199999999999  1.0000
  H   H75       1.0  0.16427  0.6232  0.59495  1.0000
  H   H76       1.0  0.8746999999999998  0.77237  0.07958  1.0000
  H   H77       1.0  0.7528399999999998  0.8902599999999999  0.52758  1.0000
  H   H78       1.0  0.70213  0.7356699999999999  0.90339  1.0000
  H   H79       1.0  0.6429499999999998  0.9879899999999999  0.53618  1.0000
  H   H80       1.0  0.9736199999999996  0.82835  0.07757  1.0000
  H   H81       1.0  0.43061999999999995  0.9588399999999999  0.33569  1.0000
  H   H82       1.0  0.85473  0.02637  0.10393000000000001  1.0000
  H   H83       1.0  0.041099999999999984  0.47176  0.37681  1.0000
  H   H84       1.0  0.28542  0.84617  0.42404  1.0000
  H   H85       1.0  0.15380000000000002  0.43923  0.57788  1.0000
  H   H86       1.0  0.54818  0.51208  0.155  1.0000
  H   H87       1.0  0.53619  0.14294999999999997  0.4879899999999999  1.0000
  H   H88       1.0  0.07755999999999998  0.47361999999999993  0.32835  1.0000
  H   H89       1.0  0.84409  0.08675  0.67632  1.0000
  H   H90       1.0  0.24262999999999998  0.15583999999999995  0.83214  1.0000
  H   H91       1.0  0.06936  0.40506999999999993  0.52824  1.0000
  H   H92       1.0  0.8627899999999997  0.22527999999999995  0.97254  1.0000
  H   H93       1.0  0.9518  0.10676000000000001  0.9639  1.0000
  H   H94       1.0  0.07958000000000001  0.3747  0.27237  1.0000
  H   H95       1.0  0.6323  0.6753899999999999  0.82787  1.0000
  H   H96       1.0  0.25077999999999995  0.8960599999999999  0.42248  1.0000
  H   H97       1.0  0.3356899999999999  0.93062  0.45883999999999997  1.0000
  H   H98       1.0  0.65584  0.33213  0.24262  1.0000
  H   H99       1.0  0.19272999999999998  0.79506  0.4203799999999999  1.0000
  H   H100      1.0  0.60238  0.80726  0.22765  1.0000
  H   H101      1.0  0.5867599999999998  0.17631999999999992  0.84409  1.0000
  H   H102      1.0  0.93923  0.07788  0.1538  1.0000
  H   H103      1.0  0.33221  0.79872  0.59655  1.0000
  H   H104      1.0  0.5282399999999998  0.56935  0.90506  1.0000
  H   H105      1.0  0.82363  0.41044  0.66778  1.0000
  H   H106      1.0  0.29505999999999993  0.9203899999999999  0.19272  1.0000
  H   H107      1.0  0.45884  0.8357  0.43062  1.0000
  H   H108      1.0  0.3245799999999999  0.9569299999999998  0.15247  1.0000
  C   C1        1.0  0.75733  0.36730999999999997  0.30047  1.0000
  C   C2        1.0  0.9094  0.16675999999999996  0.8656700000000002  1.0000
  C   C3        1.0  0.43267  0.023379999999999998  0.6912  1.0000
  C   C4        1.0  0.898  0.12132999999999998  0.04794  1.0000
  C   C5        1.0  0.64964  0.51199  0.37678  1.0000
  C   C6        1.0  0.19209  0.37982  0.65549  1.0000
  C   C7        1.0  0.27567  0.12015999999999999  0.31226  1.0000
  C   C8        1.0  0.6173400000000001  0.512  0.3158  1.0000
  C   C9        1.0  0.9187099999999999  0.27878  0.18955  1.0000
  C   C10       1.0  0.85038  0.2271799999999999  0.86239  1.0000
  C   C11       1.0  0.6094499999999999  0.7490399999999999  0.27238  1.0000
  C   C12       1.0  0.6016999999999999  0.7078399999999999  0.15982  1.0000
  C   C13       1.0  0.25737999999999994  0.09058999999999998  0.9562799999999999  1.0000
  C   C14       1.0  0.97665  0.40932  0.66784  1.0000
  C   C15       1.0  0.34018  0.54804  0.94188  1.0000
  C   C16       1.0  0.83317  0.7426099999999999  0.69889  1.0000
  C   C17       1.0  0.98376  0.38976  0.28101  1.0000
  C   C18       1.0  0.58472  0.62177  0.25495  1.0000
  C   C19       1.0  0.15982  0.1017  0.20784  1.0000
  C   C20       1.0  0.88267  0.19844  0.89466  1.0000
  C   C21       1.0  0.62134  0.54794  0.89801  1.0000
  C   C22       1.0  0.45207  0.07338  0.35004  1.0000
  C   C23       1.0  0.29723  0.90596  0.51622  1.0000
  C   C24       1.0  0.24904  0.77239  0.60945  1.0000
  C   C25       1.0  0.8905299999999998  0.16293  0.13959  1.0000
  C   C26       1.0  0.63522  0.27285  0.12318999999999998  1.0000
  C   C27       1.0  0.75058  0.30021  0.18334  1.0000
  C   C28       1.0  0.63761  0.3647699999999999  0.48797999999999997  1.0000
  C   C29       1.0  0.8975299999999999  0.6375599999999998  0.53987  1.0000
  C   C30       1.0  0.83706  0.7276399999999998  0.97666  1.0000
  C   C31       1.0  0.24147000000000002  0.30878  0.8321600000000001  1.0000
  C   C32       1.0  0.06732  0.75854  0.59067  1.0000
  C   C33       1.0  0.3603699999999999  0.02331  0.25095  1.0000
  C   C34       1.0  0.86477  0.98798  0.6376  1.0000
  C   C35       1.0  0.9322999999999998  0.13257000000000002  0.94475  1.0000
  C   C36       1.0  0.27082999999999996  0.8600799999999998  0.5813  1.0000
  C   C37       1.0  0.39381999999999995  0.95194  0.29214  1.0000
  C   C38       1.0  0.5581099999999999  0.6061499999999997  0.89829  1.0000
  C   C39       1.0  0.6998  0.45037  0.88317  1.0000
  C   C40       1.0  0.094  0.39121  0.61024  1.0000
  C   C41       1.0  0.6554899999999998  0.69209  0.8798199999999999  1.0000
  C   C42       1.0  0.12318999999999995  0.13520999999999997  0.77284  1.0000
  C   C43       1.0  0.61024  0.594  0.89121  1.0000
  C   C44       1.0  0.59067  0.56731  0.25854  1.0000
  C   C45       1.0  0.88317  0.19979999999999992  0.95037  1.0000
  C   C46       1.0  0.69845  0.39466  0.88267  1.0000
  C   C47       1.0  0.43276999999999993  0.049639999999999934  0.74943  1.0000
  C   C48       1.0  0.80879  0.33216  0.24147000000000002  1.0000
  C   C49       1.0  0.37823  0.96298  0.63315  1.0000
  C   C50       1.0  0.57339  0.85005  0.45208  1.0000
  C   C51       1.0  0.31666  0.11684999999999998  0.06722  1.0000
  C   C52       1.0  0.21901999999999996  0.10876  0.20276  1.0000
  C   C53       1.0  0.6962099999999999  0.30154  0.18419  1.0000
  C   C54       1.0  0.68785  0.98756  0.55527  1.0000
  C   C55       1.0  0.28101  0.48376  0.88976  1.0000
  C   C56       1.0  0.89466  0.38266  0.69844  1.0000
  C   C57       1.0  0.87983  0.15549000000000002  0.19209  1.0000
  C   C58       1.0  0.8673199999999999  0.8004699999999999  0.75733  1.0000
  C   C59       1.0  0.86739  0.7997  0.81213  1.0000
  C   C60       1.0  0.25854  0.09067  0.06731  1.0000
  C   C61       1.0  0.5552799999999999  0.18784999999999996  0.48755999999999994  1.0000
  C   C62       1.0  0.90214  0.86246  0.75989  1.0000
  C   C63       1.0  0.5398600000000001  0.39753  0.13755  1.0000
  C   C64       1.0  0.5669  0.45689000000000013  0.19953000000000004  1.0000
  C   C65       1.0  0.63835  0.83543  0.40823  1.0000
  C   C66       1.0  0.45194999999999996  0.7921400000000001  0.39382  1.0000
  C   C67       1.0  0.24507  0.36684  0.82982  1.0000
  C   C68       1.0  0.9601399999999998  0.09768000000000002  0.85767  1.0000
  C   C69       1.0  0.24261  0.19887999999999997  0.83316  1.0000
  C   C70       1.0  0.6020099999999999  0.6499199999999999  0.22335  1.0000
  C   C71       1.0  0.7787799999999998  0.68954  0.9187  1.0000
  C   C72       1.0  0.60533  0.30376999999999993  0.48797999999999997  1.0000
  C   C73       1.0  0.37679  0.14964  0.012  1.0000
  C   C74       1.0  0.27239  0.10944999999999999  0.24904  1.0000
  C   C75       1.0  0.4059599999999999  0.01622000000000001  0.29723  1.0000
  C   C76       1.0  0.8002100000000001  0.68334  0.75058  1.0000
  C   C77       1.0  0.1645699999999999  0.8029699999999999  0.57281  1.0000
  C   C78       1.0  0.20784000000000002  0.65982  0.6017  1.0000
  C   C79       1.0  0.73015  0.59177  0.92719  1.0000
  C   C80       1.0  0.04804  0.44188  0.34018  1.0000
  C   C81       1.0  0.8616599999999999  0.26988999999999996  0.19708999999999996  1.0000
  C   C82       1.0  0.9107499999999997  0.22123  0.13992  1.0000
  C   C83       1.0  0.20276000000000002  0.7190200000000001  0.60877  1.0000
  C   C84       1.0  0.67021  0.5370599999999999  0.9152700000000001  1.0000
  C   C85       1.0  0.5496499999999997  0.24942999999999996  0.43276999999999993  1.0000
  C   C86       1.0  0.9418799999999998  0.84018  0.04804  1.0000
  C   C87       1.0  0.31225  0.77567  0.62016  1.0000
  C   C88       1.0  0.36246  0.25989  0.90213  1.0000
  C   C89       1.0  0.74262  0.04309999999999999  0.61003  1.0000
  C   C90       1.0  0.93309  0.13260000000000002  0.8899799999999999  1.0000
  C   C91       1.0  0.64229  0.24004  0.60251  1.0000
  C   C92       1.0  0.03706000000000003  0.41527  0.67021  1.0000
  C   C93       1.0  0.3500399999999999  0.95207  0.57338  1.0000
  C   C94       1.0  0.5437  0.1343  0.8010599999999999  1.0000
  C   C95       1.0  0.75989  0.4021199999999999  0.36246  1.0000
  C   C96       1.0  0.29969999999999986  0.31211999999999995  0.8673899999999999  1.0000
  C   C97       1.0  0.48797999999999986  0.13759999999999994  0.8647699999999999  1.0000
  C   C98       1.0  0.57281  0.66457  0.30297  1.0000
  C   C99       1.0  0.69121  0.93267  0.52338  1.0000
  C   C100      1.0  0.7212399999999998  0.63992  0.91074  1.0000
  C   C101      1.0  0.012450000000000015  0.7003  0.5677  1.0000
  C   C102      1.0  0.6678499999999999  0.47665  0.9093299999999999  1.0000
  C   C103      1.0  0.9562899999999999  0.7573799999999999  0.59059  1.0000
  C   C104      1.0  0.18418999999999996  0.19620999999999994  0.8015399999999999  1.0000
  C   C105      1.0  0.87868  0.77668  0.9265899999999999  1.0000
  C   C106      1.0  0.8656699999999997  0.40939999999999993  0.66677  1.0000
  C   C107      1.0  0.61003  0.24262  0.5431  1.0000
  C   C108      1.0  0.10615999999999996  0.39829  0.55811  1.0000
  C   C109      1.0  0.8899899999999998  0.43309  0.6326  1.0000
  C   C110      1.0  0.85768  0.46013999999999994  0.59768  1.0000
  C   C111      1.0  0.06722000000000002  0.81666  0.61685  1.0000
  C   C112      1.0  0.8444799999999998  0.72435  0.03658  1.0000
  C   C113      1.0  0.9447499999999998  0.4323  0.63257  1.0000
  C   C114      1.0  0.27668999999999994  0.42659  0.87868  1.0000
  C   C115      1.0  0.66676  0.3656699999999999  0.9093899999999999  1.0000
  C   C116      1.0  0.13959000000000005  0.39052  0.66293  1.0000
  C   C117      1.0  0.59766  0.35765  0.96011  1.0000
  C   C118      1.0  0.1895399999999999  0.4187  0.77877  1.0000
  C   C119      1.0  0.19953000000000004  0.06689999999999996  0.95689  1.0000
  C   C120      1.0  0.95689  0.69953  0.5669  1.0000
  C   C121      1.0  0.91527  0.17021  0.03706  1.0000
  C   C122      1.0  0.52338  0.1912  0.43267  1.0000
  C   C123      1.0  0.30787000000000003  0.96341  0.18772  1.0000
  C   C124      1.0  0.9272  0.23014  0.09178  1.0000
  C   C125      1.0  0.80106  0.04369000000000003  0.63431  1.0000
  C   C126      1.0  0.72718  0.36239  0.85038  1.0000
  C   C127      1.0  0.30048  0.25732  0.86731  1.0000
  C   C128      1.0  0.22916  0.8104899999999999  0.58925  1.0000
  C   C129      1.0  0.25495  0.08472  0.12177  1.0000
  C   C130      1.0  0.83216  0.74147  0.80878  1.0000
  C   C131      1.0  0.01200000000000005  0.8158  0.61733  1.0000
  C   C132      1.0  0.22435  0.53658  0.84448  1.0000
  C   C133      1.0  0.5431  0.11001999999999995  0.74262  1.0000
  C   C134      1.0  0.48756000000000005  0.055270000000000055  0.68785  1.0000
  C   C135      1.0  0.20031  0.0677  0.012450000000000001  1.0000
  C   C136      1.0  0.46297999999999995  0.13315000000000002  0.37823  1.0000
  C   C137      1.0  0.31049  0.08925  0.22916000000000003  1.0000
  C   C138      1.0  0.61685  0.56722  0.31666  1.0000
  C   C139      1.0  0.25094  0.86037  0.52331  1.0000
  C   C140      1.0  0.3158  0.11733999999999999  0.012  1.0000
  C   C141      1.0  0.9093299999999997  0.16783999999999996  0.97665  1.0000
  C   C142      1.0  0.8668500000000001  0.32982  0.24506999999999998  1.0000
  C   C143      1.0  0.86239  0.35037000000000007  0.72717  1.0000
  C   C144      1.0  0.89121  0.11023999999999999  0.094  1.0000
  C   C145      1.0  0.13992  0.41074  0.72123  1.0000
  C   C146      1.0  0.7494299999999999  0.93277  0.54964  1.0000
  C   C147      1.0  0.88976  0.781  0.9837599999999999  1.0000
  C   C148      1.0  0.5813  0.77083  0.36008  1.0000
  C   C149      1.0  0.6629299999999999  0.6395899999999999  0.8905199999999999  1.0000
  C   C150      1.0  0.18773000000000004  0.80787  0.46340000000000003  1.0000
  C   C151      1.0  0.58924  0.72916  0.31048  1.0000
  C   C152      1.0  0.09176999999999998  0.42719  0.73014  1.0000
  C   C153      1.0  0.14992999999999998  0.7233499999999999  0.60201  1.0000
  C   C154      1.0  0.97667  0.33706  0.22764000000000004  1.0000
  C   C155      1.0  0.60877  0.70276  0.21902  1.0000
  C   C156      1.0  0.30298  0.07281  0.16457  1.0000
  C   C157      1.0  0.3354299999999999  0.90823  0.63835  1.0000
  C   C158      1.0  0.18335000000000004  0.25058  0.80021  1.0000
  C   C159      1.0  0.22334999999999997  0.102  0.14992  1.0000
  C   C160      1.0  0.7698899999999999  0.6970899999999999  0.8616599999999999  1.0000
  C   C161      1.0  0.92659  0.37868999999999997  0.27668  1.0000
  C   C162      1.0  0.80154  0.68419  0.69621  1.0000
  C   C163      1.0  0.4879899999999998  0.10532999999999992  0.8037699999999999  1.0000
  C   C164      1.0  0.9503699999999999  0.38315999999999995  0.69979  1.0000
  C   C165      1.0  0.63257  0.4447499999999999  0.93229  1.0000
  C   C166      1.0  0.8037699999999998  0.98798  0.60533  1.0000
  C   C167      1.0  0.19708999999999993  0.3616599999999999  0.76989  1.0000
  C   C168      1.0  0.12177  0.7549499999999999  0.58472  1.0000
  C   C169      1.0  0.46341  0.6877199999999999  0.30787  1.0000
  C   C170      1.0  0.81213  0.36739  0.2997  1.0000
  C   C171      1.0  0.13755999999999993  0.039879999999999964  0.8975299999999999  1.0000
  C   C172      1.0  0.89829  0.058109999999999995  0.10614999999999998  1.0000
  C   C173      1.0  0.77285  0.62319  0.63522  1.0000
  C   C174      1.0  0.04793999999999999  0.3980099999999999  0.62134  1.0000
  C   C175      1.0  0.5905899999999998  0.45629  0.25738  1.0000
  C   C176      1.0  0.36008999999999997  0.08131  0.27083  1.0000
  C   C177      1.0  0.5676900000000001  0.51244  0.2003  1.0000
  C   C178      1.0  0.63259  0.38998  0.93307  1.0000
  C   C179      1.0  0.40823  0.13835  0.33543  1.0000
  C   C180      1.0  0.52331  0.7509500000000001  0.36037  1.0000
  C   C181      1.0  0.74004  0.10249999999999998  0.6423  1.0000
  C   C182      1.0  0.6343099999999999  0.30106  0.54369  1.0000
  C   C183      1.0  0.51623  0.79724  0.40596  1.0000
  C   C184      1.0  0.6024999999999999  0.1423  0.74004  1.0000
  C   C185      1.0  0.62016  0.81225  0.27567  1.0000
  C   C186      1.0  0.22763999999999998  0.47666  0.83706  1.0000
  C   C187      1.0  0.01200000000000005  0.87679  0.64964  1.0000
  C   C188      1.0  0.03658  0.34448  0.22435  1.0000
  C   C189      1.0  0.29214000000000007  0.8938200000000001  0.45194000000000006  1.0000
  C   C190      1.0  0.63315  0.8782300000000001  0.46298  1.0000
  C   C191      1.0  0.69889  0.33315999999999996  0.24260999999999996  1.0000
  C   C192      1.0  0.82982  0.74506  0.86684  1.0000
  O   O1        1.0  0.07333999999999999  0.14005  0.76775  1.0000
  O   O2        1.0  0.15954000000000004  0.30771  0.7211  1.0000
  O   O3        1.0  0.12625000000000006  0.08356000000000006  0.75727  1.0000
  O   O4        1.0  0.95728  0.8736999999999999  0.63109  1.0000
  O   O5        1.0  0.8056700000000001  0.23234  0.8723700000000001  1.0000
  O   O6        1.0  0.43330999999999986  0.12765000000000004  0.85998  1.0000
  O   O7        1.0  0.8872299999999997  0.8597899999999999  0.70555  1.0000
  O   O8        1.0  0.6736999999999999  0.41639  0.54271  1.0000
  O   O9        1.0  0.6541099999999996  0.18194999999999997  0.7943899999999999  1.0000
  O   O10       1.0  0.7211099999999999  0.6595299999999998  0.8077099999999999  1.0000
  O   O11       1.0  0.08663  0.4384799999999999  0.77896  1.0000
  O   O12       1.0  0.08759000000000002  0.030940000000000013  0.9032800000000001  1.0000
  O   O13       1.0  0.54271  0.17368  0.91639  1.0000
  O   O14       1.0  0.74202  0.24200999999999998  0.74202  1.0000
  O   O15       1.0  0.62765  0.3599799999999999  0.4333199999999999  1.0000
  O   O16       1.0  0.6923  0.85183  0.4133899999999999  1.0000
  O   O17       1.0  0.7677499999999998  0.57334  0.64005  1.0000
  O   O18       1.0  0.6311  0.45727  0.37369  1.0000
  O   O19       1.0  0.79439  0.15411  0.68195  1.0000
  O   O20       1.0  0.87238  0.30567  0.73234  1.0000
  O   O21       1.0  0.70555  0.38715999999999995  0.3598  1.0000
  O   O22       1.0  0.50001  0.25801  3e-05  1.0000
  O   O23       1.0  0.14819999999999994  0.84056  0.5616  1.0000
  O   O24       1.0  0.41338999999999987  0.1923  0.35184  1.0000
  O   O25       1.0  0.64006  0.26775  0.07334  1.0000
  O   O26       1.0  0.9163999999999999  0.04271000000000006  0.6737  1.0000
  O   O27       1.0  0.9384799999999999  0.27896  0.08663  1.0000
  O   O28       1.0  0.80771  0.22110999999999997  0.15953  1.0000
  O   O29       1.0  0.74269  0.32625999999999994  0.8689699999999999  1.0000
  O   O30       1.0  0.37370000000000003  0.13109000000000004  0.95727  1.0000
  O   O31       1.0  0.58357  0.25729  0.12625  1.0000
  O   O32       1.0  0.5566899999999999  0.3724099999999999  0.9691299999999999  1.0000
  O   O33       1.0  0.87239  0.46911  0.55667  1.0000
  O   O34       1.0  0.90328  0.58759  0.53095  1.0000
  O   O35       1.0  0.8262499999999998  0.36897  0.74268  1.0000
  O   O36       1.0  0.4123899999999999  0.31558  0.94336  1.0000
  O   O37       1.0  0.56161  0.6481999999999998  0.34056  1.0000
  O   O38       1.0  0.6819199999999997  0.2944  0.65412  1.0000
  O   O39       1.0  0.7789599999999999  0.5866299999999999  0.9384799999999999  1.0000
  O   O40       1.0  0.9433599999999998  0.91239  0.81559  1.0000
  O   O41       1.0  0.6122  0.31785  0.9718999999999999  1.0000
  O   O42       1.0  0.8459199999999998  0.6402899999999998  0.52799  1.0000
  O   O43       1.0  0.4266499999999998  0.19431999999999996  0.06669  1.0000
  O   O44       1.0  0.1403  0.028  0.84592  1.0000
  O   O45       1.0  1.999999999997132e-05  9.999999999999286e-06  0.75801  1.0000
  O   O46       1.0  0.8689799999999998  0.24269000000000007  0.82626  1.0000
  O   O47       1.0  0.53095  0.40328  0.08759  1.0000
  O   O48       1.0  0.62765  0.18435  0.5968  1.0000
  O   O49       1.0  0.9691199999999999  0.056670000000000026  0.87238  1.0000
  O   O50       1.0  0.68435  0.09680000000000001  0.62764  1.0000
  O   O51       1.0  0.73235  0.37238  0.80567  1.0000
  O   O52       1.0  0.85998  0.93331  0.62765  1.0000
  O   O53       1.0  0.06669  0.92665  0.69432  1.0000
  O   O54       1.0  0.3598  0.20553999999999992  0.8872  1.0000
  O   O55       1.0  0.35184  0.91339  0.6923  1.0000
  O   O56       1.0  0.81793  0.47201  0.61229  1.0000
  O   O57       1.0  0.5968099999999998  0.12764  0.68435  1.0000
  O   O58       1.0  0.6943199999999998  0.56668  0.42665  1.0000
  O   O59       1.0  0.75801  0.50002  0.5  1.0000
  O   O60       1.0  0.9720199999999999  0.11228999999999995  0.81793  1.0000
  O   O61       1.0  0.81558  0.44336  0.41238  1.0000
  O   O62       1.0  0.7572799999999997  0.62625  0.58356  1.0000
  O   O63       1.0  0.34056  0.06160000000000001  0.1482  1.0000
  O   O64       1.0  0.52794  0.34590999999999994  0.14029  1.0000
