data_image0
_chemical_formula_structural       Cd12H96C96N24O72
_chemical_formula_sum              "Cd12 H96 C96 N24 O72"
_cell_length_a       13.55149
_cell_length_b       17.8448
_cell_length_c       21.814239999999998
_cell_angle_alpha    90.00046
_cell_angle_beta     90.0
_cell_angle_gamma    90.0

_space_group_name_H-M_alt    "P 1"
_space_group_IT_number       1

loop_
  _space_group_symop_operation_xyz
  'x, y, z'

loop_
  _atom_site_type_symbol
  _atom_site_label
  _atom_site_symmetry_multiplicity
  _atom_site_fract_x
  _atom_site_fract_y
  _atom_site_fract_z
  _atom_site_occupancy
  Cd  Cd1       1.0  0.69382  0.86699  0.15185  1.0000
  Cd  Cd2       1.0  0.66642  0.05526  0.23434000000000002  1.0000
  Cd  Cd3       1.0  0.84543  0.19496  0.2211  1.0000
  Cd  Cd4       1.0  0.30618  0.13299999999999998  0.65184  1.0000
  Cd  Cd5       1.0  0.33357  0.9447599999999999  0.7343800000000001  1.0000
  Cd  Cd6       1.0  0.15458  0.80504  0.72105  1.0000
  Cd  Cd7       1.0  0.80618  0.3669899999999999  0.15185  1.0000
  Cd  Cd8       1.0  0.83358  0.55526  0.23434000000000002  1.0000
  Cd  Cd9       1.0  0.65457  0.69496  0.2211  1.0000
  Cd  Cd10      1.0  0.19382  0.633  0.65184  1.0000
  Cd  Cd11      1.0  0.16643000000000002  0.44476  0.7343800000000001  1.0000
  Cd  Cd12      1.0  0.34542  0.30504  0.72105  1.0000
  H   H1        1.0  0.01344  0.90496  0.16533  1.0000
  H   H2        1.0  0.9514000000000001  0.9110399999999998  0.09364000000000001  1.0000
  H   H3        1.0  0.01267  0.04674  0.17308  1.0000
  H   H4        1.0  0.94897  0.0519  0.10268  1.0000
  H   H5        1.0  0.3209  0.03623  0.17109  1.0000
  H   H6        1.0  0.37786  0.05939  0.09966000000000001  1.0000
  H   H7        1.0  0.45325  0.9285899999999999  0.09673  1.0000
  H   H8        1.0  0.40149000000000007  0.9118699999999998  0.17066000000000003  1.0000
  H   H9        1.0  0.24065  0.9759599999999999  0.91758  1.0000
  H   H10       1.0  0.12465000000000001  0.92824  0.9189  1.0000
  H   H11       1.0  0.32869  0.85494  0.9350700000000002  1.0000
  H   H12       1.0  0.2118  0.8064999999999998  0.9331400000000002  1.0000
  H   H13       1.0  0.39294  0.6292299999999997  0.07895  1.0000
  H   H14       1.0  0.33908  0.68546  0.13769  1.0000
  H   H15       1.0  0.45073  0.7428599999999997  0.02366  1.0000
  H   H16       1.0  0.38577  0.80148  0.07445  1.0000
  H   H17       1.0  0.96225  0.77539  0.04027000000000001  1.0000
  H   H18       1.0  0.03242  0.79563  0.10726  1.0000
  H   H19       1.0  0.99117  0.6697799999999998  0.15147  1.0000
  H   H20       1.0  0.9253  0.64613  0.08449  1.0000
  H   H21       1.0  0.09232  0.58136  0.9076100000000001  1.0000
  H   H22       1.0  0.22304  0.57518  0.90433  1.0000
  H   H23       1.0  0.10461  0.71116  0.85833  1.0000
  H   H24       1.0  0.23347  0.70227  0.8572900000000001  1.0000
  H   H25       1.0  0.98656  0.09503999999999999  0.66533  1.0000
  H   H26       1.0  0.04859  0.08896  0.59364  1.0000
  H   H27       1.0  0.98734  0.95326  0.67308  1.0000
  H   H28       1.0  0.05104  0.9481  0.60268  1.0000
  H   H29       1.0  0.6791  0.9637699999999999  0.6711  1.0000
  H   H30       1.0  0.62214  0.94061  0.59967  1.0000
  H   H31       1.0  0.54669  0.07138  0.59675  1.0000
  H   H32       1.0  0.59851  0.08814  0.67066  1.0000
  H   H33       1.0  0.7593500000000002  0.02403  0.41759  1.0000
  H   H34       1.0  0.8753400000000001  0.07177  0.4189  1.0000
  H   H35       1.0  0.6712800000000001  0.14503999999999997  0.43508  1.0000
  H   H36       1.0  0.7881600000000001  0.19348999999999994  0.43315  1.0000
  H   H37       1.0  0.60706  0.37077  0.5789400000000001  1.0000
  H   H38       1.0  0.66093  0.31454  0.63768  1.0000
  H   H39       1.0  0.54928  0.25714  0.52365  1.0000
  H   H40       1.0  0.61424  0.19852  0.57444  1.0000
  H   H41       1.0  0.03775  0.22461  0.54026  1.0000
  H   H42       1.0  0.96758  0.20437  0.60726  1.0000
  H   H43       1.0  0.00883  0.33021999999999996  0.65147  1.0000
  H   H44       1.0  0.07470000000000003  0.35387  0.58448  1.0000
  H   H45       1.0  0.90769  0.41865  0.40761000000000003  1.0000
  H   H46       1.0  0.7769600000000002  0.42482999999999993  0.40433  1.0000
  H   H47       1.0  0.8953900000000001  0.28885  0.35833  1.0000
  H   H48       1.0  0.76653  0.29774  0.35729  1.0000
  H   H49       1.0  0.48656  0.40497  0.16533  1.0000
  H   H50       1.0  0.5486  0.41104  0.09364000000000001  1.0000
  H   H51       1.0  0.48733  0.54674  0.17308  1.0000
  H   H52       1.0  0.55104  0.5519  0.10268  1.0000
  H   H53       1.0  0.17910000000000004  0.53622  0.17109  1.0000
  H   H54       1.0  0.12215  0.55939  0.09966000000000001  1.0000
  H   H55       1.0  0.04675  0.42859  0.09673  1.0000
  H   H56       1.0  0.09851000000000003  0.4118699999999999  0.17066000000000003  1.0000
  H   H57       1.0  0.25935  0.47595999999999994  0.91758  1.0000
  H   H58       1.0  0.37536  0.42824  0.9189  1.0000
  H   H59       1.0  0.17131  0.35494  0.9350700000000002  1.0000
  H   H60       1.0  0.2882  0.30650999999999995  0.9331400000000002  1.0000
  H   H61       1.0  0.10706  0.12923  0.07895  1.0000
  H   H62       1.0  0.16092  0.18546  0.13769  1.0000
  H   H63       1.0  0.04927  0.24286  0.02366  1.0000
  H   H64       1.0  0.11424  0.30148  0.07445  1.0000
  H   H65       1.0  0.53775  0.27539  0.04027000000000001  1.0000
  H   H66       1.0  0.46758  0.29563  0.10726  1.0000
  H   H67       1.0  0.50884  0.16977999999999993  0.15147  1.0000
  H   H68       1.0  0.5747  0.14613  0.08449  1.0000
  H   H69       1.0  0.40768000000000004  0.08135999999999997  0.9076100000000001  1.0000
  H   H70       1.0  0.27696  0.07518  0.90433  1.0000
  H   H71       1.0  0.39539  0.21116  0.85833  1.0000
  H   H72       1.0  0.26653  0.20226999999999998  0.8572900000000001  1.0000
  H   H73       1.0  0.51344  0.59504  0.66533  1.0000
  H   H74       1.0  0.45141  0.58896  0.59364  1.0000
  H   H75       1.0  0.51266  0.45326  0.67308  1.0000
  H   H76       1.0  0.44896  0.44809999999999994  0.60268  1.0000
  H   H77       1.0  0.8209000000000002  0.46377  0.6711  1.0000
  H   H78       1.0  0.8778600000000001  0.44061  0.59967  1.0000
  H   H79       1.0  0.95331  0.5713799999999999  0.59675  1.0000
  H   H80       1.0  0.90149  0.58814  0.67066  1.0000
  H   H81       1.0  0.74065  0.5240299999999999  0.41759  1.0000
  H   H82       1.0  0.62466  0.5717699999999999  0.4189  1.0000
  H   H83       1.0  0.82873  0.64504  0.43508  1.0000
  H   H84       1.0  0.71185  0.69349  0.43315  1.0000
  H   H85       1.0  0.89294  0.87077  0.5789400000000001  1.0000
  H   H86       1.0  0.83907  0.8145399999999998  0.63768  1.0000
  H   H87       1.0  0.9507200000000002  0.75714  0.52365  1.0000
  H   H88       1.0  0.88576  0.69852  0.57444  1.0000
  H   H89       1.0  0.46225  0.72461  0.54026  1.0000
  H   H90       1.0  0.53243  0.7043699999999999  0.60726  1.0000
  H   H91       1.0  0.49117000000000005  0.83022  0.65147  1.0000
  H   H92       1.0  0.42531  0.85387  0.58448  1.0000
  H   H93       1.0  0.59232  0.9186399999999999  0.40761000000000003  1.0000
  H   H94       1.0  0.72304  0.92483  0.40433  1.0000
  H   H95       1.0  0.60461  0.78885  0.35833  1.0000
  H   H96       1.0  0.7334700000000001  0.79774  0.35729  1.0000
  C   C1        1.0  0.17714  0.96874  0.12784000000000004  1.0000
  C   C2        1.0  0.27565  0.96875  0.03237  1.0000
  C   C3        1.0  0.10072  0.92985  0.02977  1.0000
  C   C4        1.0  0.00199  0.9398  0.12462000000000002  1.0000
  C   C5        1.0  0.9612800000000001  0.01638  0.14324  1.0000
  C   C6        1.0  0.86334  0.007599999999999999  0.17557  1.0000
  C   C7        1.0  0.34855  0.013699999999999997  0.1278  1.0000
  C   C8        1.0  0.4293100000000001  0.9553699999999999  0.1393  1.0000
  C   C9        1.0  0.51628  0.9929199999999999  0.16939  1.0000
  C   C10       1.0  0.20043000000000002  0.9279799999999999  0.9360800000000001  1.0000
  C   C11       1.0  0.25322  0.85543  0.91699  1.0000
  C   C12       1.0  0.25655  0.8572699999999998  0.84718  1.0000
  C   C13       1.0  0.25965  0.64597  0.9987000000000001  1.0000
  C   C14       1.0  0.08403  0.68311  0.99185  1.0000
  C   C15       1.0  0.18501  0.72431  0.08027  1.0000
  C   C16       1.0  0.358  0.68303  0.08903  1.0000
  C   C17       1.0  0.42597  0.74811  0.07150000000000001  1.0000
  C   C18       1.0  0.51821  0.7564699999999998  0.11132  1.0000
  C   C19       1.0  0.006070000000000002  0.7510099999999998  0.07728  1.0000
  C   C20       1.0  0.94676  0.6934699999999998  0.11403  1.0000
  C   C21       1.0  0.85177  0.7244299999999999  0.14174000000000003  1.0000
  C   C22       1.0  0.16086000000000003  0.6136199999999999  0.9075700000000002  1.0000
  C   C23       1.0  0.1645  0.67  0.8551800000000002  1.0000
  C   C24       1.0  0.16263  0.63301  0.79279  1.0000
  C   C25       1.0  0.82286  0.03127  0.62784  1.0000
  C   C26       1.0  0.72434  0.03124  0.53238  1.0000
  C   C27       1.0  0.89928  0.07015  0.52977  1.0000
  C   C28       1.0  0.99801  0.06019999999999999  0.6246200000000001  1.0000
  C   C29       1.0  0.03873  0.98363  0.64324  1.0000
  C   C30       1.0  0.13667  0.9924099999999999  0.67556  1.0000
  C   C31       1.0  0.65145  0.9862999999999998  0.6278100000000001  1.0000
  C   C32       1.0  0.57068  0.044619999999999986  0.63932  1.0000
  C   C33       1.0  0.4837200000000001  0.00706  0.66941  1.0000
  C   C34       1.0  0.79956  0.07202  0.4360800000000001  1.0000
  C   C35       1.0  0.74675  0.14456  0.41700000000000004  1.0000
  C   C36       1.0  0.74345  0.14272999999999997  0.34719  1.0000
  C   C37       1.0  0.74036  0.35404  0.49870000000000003  1.0000
  C   C38       1.0  0.91597  0.3168899999999999  0.4918500000000001  1.0000
  C   C39       1.0  0.815  0.27569  0.58027  1.0000
  C   C40       1.0  0.64201  0.31697  0.58902  1.0000
  C   C41       1.0  0.57404  0.25189  0.5715  1.0000
  C   C42       1.0  0.4818  0.24354  0.61132  1.0000
  C   C43       1.0  0.99393  0.24897999999999998  0.57727  1.0000
  C   C44       1.0  0.05324000000000001  0.30653  0.61403  1.0000
  C   C45       1.0  0.14823  0.2755699999999999  0.64174  1.0000
  C   C46       1.0  0.83914  0.3863799999999999  0.4075700000000001  1.0000
  C   C47       1.0  0.8355  0.33001  0.35518  1.0000
  C   C48       1.0  0.8373700000000001  0.367  0.29279  1.0000
  C   C49       1.0  0.32286  0.46873999999999993  0.12784000000000004  1.0000
  C   C50       1.0  0.22435  0.46874999999999994  0.03237  1.0000
  C   C51       1.0  0.39928000000000013  0.4298499999999999  0.02977  1.0000
  C   C52       1.0  0.49801  0.4398  0.12462000000000002  1.0000
  C   C53       1.0  0.53873  0.5163799999999998  0.14324  1.0000
  C   C54       1.0  0.6366600000000001  0.5075999999999998  0.17557  1.0000
  C   C55       1.0  0.15145  0.5136999999999998  0.1278  1.0000
  C   C56       1.0  0.07069  0.45536999999999994  0.1393  1.0000
  C   C57       1.0  0.98372  0.49292  0.16939  1.0000
  C   C58       1.0  0.29957  0.42798  0.9360800000000001  1.0000
  C   C59       1.0  0.24678  0.35543  0.91699  1.0000
  C   C60       1.0  0.24345  0.35727  0.84718  1.0000
  C   C61       1.0  0.24035  0.14597  0.9987000000000001  1.0000
  C   C62       1.0  0.41597  0.18311  0.99185  1.0000
  C   C63       1.0  0.31499  0.22430999999999998  0.08027  1.0000
  C   C64       1.0  0.142  0.18303  0.08903  1.0000
  C   C65       1.0  0.07403  0.24810999999999997  0.07150000000000001  1.0000
  C   C66       1.0  0.9818  0.25647  0.11132  1.0000
  C   C67       1.0  0.4939300000000001  0.25102  0.07728  1.0000
  C   C68       1.0  0.55325  0.19347  0.11403  1.0000
  C   C69       1.0  0.64823  0.22443  0.14174000000000003  1.0000
  C   C70       1.0  0.33914  0.11361999999999998  0.9075700000000002  1.0000
  C   C71       1.0  0.3355  0.17  0.8551800000000002  1.0000
  C   C72       1.0  0.33737  0.13301  0.79279  1.0000
  C   C73       1.0  0.6771500000000001  0.53127  0.62784  1.0000
  C   C74       1.0  0.77567  0.53124  0.53238  1.0000
  C   C75       1.0  0.60073  0.57014  0.52977  1.0000
  C   C76       1.0  0.50199  0.5602  0.6246200000000001  1.0000
  C   C77       1.0  0.46127  0.48362999999999995  0.64324  1.0000
  C   C78       1.0  0.36333  0.49240999999999996  0.67556  1.0000
  C   C79       1.0  0.84855  0.48629999999999995  0.6278100000000001  1.0000
  C   C80       1.0  0.92932  0.5446199999999999  0.63932  1.0000
  C   C81       1.0  0.01628  0.50706  0.66941  1.0000
  C   C82       1.0  0.70044  0.57202  0.4360800000000001  1.0000
  C   C83       1.0  0.7532500000000001  0.64456  0.41700000000000004  1.0000
  C   C84       1.0  0.7565600000000001  0.64273  0.34719  1.0000
  C   C85       1.0  0.75965  0.85404  0.49870000000000003  1.0000
  C   C86       1.0  0.58403  0.81689  0.4918500000000001  1.0000
  C   C87       1.0  0.68501  0.7756899999999999  0.58027  1.0000
  C   C88       1.0  0.8580000000000001  0.8169699999999998  0.58902  1.0000
  C   C89       1.0  0.9259600000000002  0.7518899999999998  0.5715  1.0000
  C   C90       1.0  0.0182  0.74354  0.61132  1.0000
  C   C91       1.0  0.50607  0.74898  0.57727  1.0000
  C   C92       1.0  0.44676  0.80653  0.61403  1.0000
  C   C93       1.0  0.35177  0.77557  0.64174  1.0000
  C   C94       1.0  0.66086  0.88638  0.4075700000000001  1.0000
  C   C95       1.0  0.6645000000000001  0.83001  0.35518  1.0000
  C   C96       1.0  0.66263  0.8669999999999998  0.29279  1.0000
  N   N1        1.0  0.09674  0.9465599999999998  0.09234  1.0000
  N   N2        1.0  0.26406  0.98164  0.09501000000000001  1.0000
  N   N3        1.0  0.19391  0.9381299999999999  0.00277  1.0000
  N   N4        1.0  0.26405  0.6847  0.05444  1.0000
  N   N5        1.0  0.09494  0.71705  0.04944  1.0000
  N   N6        1.0  0.16992  0.65121  0.9675700000000002  1.0000
  N   N7        1.0  0.90326  0.05344  0.59234  1.0000
  N   N8        1.0  0.7359300000000001  0.01836  0.59502  1.0000
  N   N9        1.0  0.80609  0.06185999999999999  0.50278  1.0000
  N   N10       1.0  0.73596  0.3153  0.55444  1.0000
  N   N11       1.0  0.9050600000000001  0.28295  0.54944  1.0000
  N   N12       1.0  0.83008  0.34879  0.46757  1.0000
  N   N13       1.0  0.40326  0.44656  0.09234  1.0000
  N   N14       1.0  0.23594  0.48163999999999996  0.09501000000000001  1.0000
  N   N15       1.0  0.30609  0.43813  0.00277  1.0000
  N   N16       1.0  0.23595  0.1847  0.05444  1.0000
  N   N17       1.0  0.40506  0.21704999999999994  0.04944  1.0000
  N   N18       1.0  0.33008000000000004  0.15122  0.9675700000000002  1.0000
  N   N19       1.0  0.5967500000000001  0.55344  0.59234  1.0000
  N   N20       1.0  0.76407  0.51836  0.59502  1.0000
  N   N21       1.0  0.69392  0.5618599999999999  0.50278  1.0000
  N   N22       1.0  0.76405  0.8153  0.55444  1.0000
  N   N23       1.0  0.59495  0.7829499999999998  0.54944  1.0000
  N   N24       1.0  0.66992  0.84879  0.46757  1.0000
  O   O1        1.0  0.17057  0.9784499999999999  0.18327  1.0000
  O   O2        1.0  0.35315  0.9832999999999998  0.005720000000000001  1.0000
  O   O3        1.0  0.028610000000000003  0.90903  0.00049  1.0000
  O   O4        1.0  0.81988  0.94553  0.17232  1.0000
  O   O5        1.0  0.82878  0.06414  0.20578000000000002  1.0000
  O   O6        1.0  0.50084  0.040979999999999996  0.21106000000000003  1.0000
  O   O7        1.0  0.60534  0.9777299999999999  0.15168000000000004  1.0000
  O   O8        1.0  0.33354  0.88617  0.82367  1.0000
  O   O9        1.0  0.17981  0.83375  0.8191700000000001  1.0000
  O   O10       1.0  0.33042  0.6104399999999998  0.9788700000000001  1.0000
  O   O11       1.0  0.00528  0.68179  0.9644400000000001  1.0000
  O   O12       1.0  0.19469  0.76143  0.12723  1.0000
  O   O13       1.0  0.53459  0.7061  0.15184000000000003  1.0000
  O   O14       1.0  0.57018  0.8140499999999998  0.09983  1.0000
  O   O15       1.0  0.16996  0.56356  0.7882800000000001  1.0000
  O   O16       1.0  0.155  0.6779  0.7453900000000001  1.0000
  O   O17       1.0  0.80946  0.68207  0.18181000000000003  1.0000
  O   O18       1.0  0.82009  0.78748  0.12403000000000003  1.0000
  O   O19       1.0  0.82943  0.02155  0.6832800000000001  1.0000
  O   O20       1.0  0.64684  0.0167  0.50572  1.0000
  O   O21       1.0  0.97138  0.09097  0.50048  1.0000
  O   O22       1.0  0.18012  0.05448  0.67232  1.0000
  O   O23       1.0  0.17123000000000002  0.93587  0.70577  1.0000
  O   O24       1.0  0.49916  0.9590199999999999  0.7111  1.0000
  O   O25       1.0  0.3946800000000001  0.02225  0.65168  1.0000
  O   O26       1.0  0.66649  0.11383  0.32365  1.0000
  O   O27       1.0  0.82021  0.16626  0.31922  1.0000
  O   O28       1.0  0.66958  0.38956  0.47888  1.0000
  O   O29       1.0  0.99472  0.31821  0.46444000000000013  1.0000
  O   O30       1.0  0.80531  0.23856999999999998  0.62723  1.0000
  O   O31       1.0  0.46541  0.29393  0.6518200000000001  1.0000
  O   O32       1.0  0.42983  0.18596  0.59983  1.0000
  O   O33       1.0  0.83005  0.43645  0.28827  1.0000
  O   O34       1.0  0.8450000000000002  0.3221  0.24539  1.0000
  O   O35       1.0  0.19053000000000003  0.3179299999999999  0.6818  1.0000
  O   O36       1.0  0.17991  0.21251999999999996  0.62402  1.0000
  O   O37       1.0  0.32943000000000006  0.47845  0.18327  1.0000
  O   O38       1.0  0.14685  0.48329999999999995  0.005720000000000001  1.0000
  O   O39       1.0  0.47139000000000003  0.40903  0.00049  1.0000
  O   O40       1.0  0.68013  0.44553  0.17232  1.0000
  O   O41       1.0  0.6712200000000001  0.56414  0.20578000000000002  1.0000
  O   O42       1.0  0.99917  0.54097  0.21106000000000003  1.0000
  O   O43       1.0  0.89467  0.47773  0.15168000000000004  1.0000
  O   O44       1.0  0.16647  0.3861699999999999  0.82367  1.0000
  O   O45       1.0  0.32019000000000003  0.33375  0.8191700000000001  1.0000
  O   O46       1.0  0.16958  0.11044  0.9788700000000001  1.0000
  O   O47       1.0  0.49472  0.18179  0.9644400000000001  1.0000
  O   O48       1.0  0.3053100000000001  0.26143  0.12723  1.0000
  O   O49       1.0  0.96541  0.2061  0.15184000000000003  1.0000
  O   O50       1.0  0.92983  0.31405  0.09983  1.0000
  O   O51       1.0  0.33004000000000006  0.06356  0.7882800000000001  1.0000
  O   O52       1.0  0.345  0.1779  0.7453900000000001  1.0000
  O   O53       1.0  0.69054  0.18207  0.18181000000000003  1.0000
  O   O54       1.0  0.67991  0.28748  0.12403000000000003  1.0000
  O   O55       1.0  0.67057  0.52155  0.6832800000000001  1.0000
  O   O56       1.0  0.85317  0.5166999999999999  0.50572  1.0000
  O   O57       1.0  0.52863  0.59097  0.50048  1.0000
  O   O58       1.0  0.31988000000000005  0.55448  0.67232  1.0000
  O   O59       1.0  0.32877  0.43587  0.70577  1.0000
  O   O60       1.0  0.0008500000000000001  0.45901999999999993  0.7111  1.0000
  O   O61       1.0  0.10532000000000001  0.52225  0.65168  1.0000
  O   O62       1.0  0.83351  0.6138299999999999  0.32365  1.0000
  O   O63       1.0  0.67979  0.66626  0.31922  1.0000
  O   O64       1.0  0.83042  0.88956  0.47888  1.0000
  O   O65       1.0  0.50528  0.8182099999999999  0.46444000000000013  1.0000
  O   O66       1.0  0.69469  0.73857  0.62723  1.0000
  O   O67       1.0  0.03459  0.79393  0.6518200000000001  1.0000
  O   O68       1.0  0.07018  0.6859599999999998  0.59983  1.0000
  O   O69       1.0  0.66995  0.93645  0.28827  1.0000
  O   O70       1.0  0.655  0.8221  0.24539  1.0000
  O   O71       1.0  0.30947  0.8179299999999999  0.6818  1.0000
  O   O72       1.0  0.3201  0.71252  0.62402  1.0000
