data_image0
_chemical_formula_structural       Zn8H88C108N32O32
_chemical_formula_sum              "Zn8 H88 C108 N32 O32"
_cell_length_a       8.8932
_cell_length_b       18.88674
_cell_length_c       19.86296
_cell_angle_alpha    92.79328
_cell_angle_beta     102.98798
_cell_angle_gamma    90.04045

_space_group_name_H-M_alt    "P 1"
_space_group_IT_number       1

loop_
  _space_group_symop_operation_xyz
  'x, y, z'

loop_
  _atom_site_type_symbol
  _atom_site_label
  _atom_site_symmetry_multiplicity
  _atom_site_fract_x
  _atom_site_fract_y
  _atom_site_fract_z
  _atom_site_occupancy
  Zn  Zn1       1.0  0.94036  0.59902  0.53944  1.0000
  Zn  Zn2       1.0  0.88845  0.08518  0.94061  1.0000
  Zn  Zn3       1.0  0.3982899999999999  0.90084  0.46049  1.0000
  Zn  Zn4       1.0  0.9488100000000002  0.41323  0.05947999999999999  1.0000
  Zn  Zn5       1.0  0.05962  0.40098  0.46056  1.0000
  Zn  Zn6       1.0  0.11155  0.9148199999999999  0.05939  1.0000
  Zn  Zn7       1.0  0.60176  0.09919  0.53943  1.0000
  Zn  Zn8       1.0  0.0511799999999999  0.58678  0.94051  1.0000
  H   H1        1.0  0.34465  0.19600999999999993  0.58917  1.0000
  H   H2        1.0  0.41773  0.32865  0.65695  1.0000
  H   H3        1.0  0.80905  0.24601  0.59373  1.0000
  H   H4        1.0  0.8205  0.37008  0.63604  1.0000
  H   H5        1.0  0.6559  0.41118  0.65517  1.0000
  H   H6        1.0  0.03653000000000003  0.41085  0.74333  1.0000
  H   H7        1.0  0.9602  0.45324999999999993  0.80832  1.0000
  H   H8        1.0  0.028999999999999974  0.46912  0.63626  1.0000
  H   H9        1.0  0.68659  0.62351  0.63891  1.0000
  H   H10       1.0  0.71773  0.54526  0.75649  1.0000
  H   H11       1.0  0.006950000000000005  0.32243  0.81107  1.0000
  H   H12       1.0  0.95754  0.28313000000000005  0.72613  1.0000
  H   H13       1.0  0.63468  0.2132  0.7185  1.0000
  H   H14       1.0  0.62533  0.10571000000000001  0.80643  1.0000
  H   H15       1.0  0.012289999999999981  0.23707999999999999  0.89192  1.0000
  H   H16       1.0  0.5793999999999999  0.34804  0.76041  1.0000
  H   H17       1.0  0.63614  0.43773999999999996  0.77605  1.0000
  H   H18       1.0  0.5038500000000001  0.31024  0.8591500000000001  1.0000
  H   H19       1.0  0.62907  0.31935  0.00068  1.0000
  H   H20       1.0  0.9231599999999998  0.42910999999999994  0.9005599999999999  1.0000
  H   H21       1.0  0.41904  0.0038299999999999983  0.87273  1.0000
  H   H22       1.0  0.44825  0.61995  0.45791000000000004  1.0000
  H   H23       1.0  0.75552  0.30396  0.41039  1.0000
  H   H24       1.0  0.76083  0.17141  0.34244  1.0000
  H   H25       1.0  0.21572  0.25415  0.40665  1.0000
  H   H26       1.0  0.18474  0.12999  0.36413  1.0000
  H   H27       1.0  0.0008499999999999848  0.08887999999999999  0.34494  1.0000
  H   H28       1.0  0.29333  0.08906  0.25709  1.0000
  H   H29       1.0  0.15212  0.04692  0.19178  1.0000
  H   H30       1.0  0.39189  0.03066  0.36412  1.0000
  H   H31       1.0  0.0456  0.87637  0.36064  1.0000
  H   H32       1.0  0.9606299999999999  0.95455  0.24285000000000004  1.0000
  H   H33       1.0  0.19613  0.17744  0.18913  1.0000
  H   H34       1.0  0.23196  0.21666  0.27408  1.0000
  H   H35       1.0  0.9164700000000001  0.28650999999999993  0.2816  1.0000
  H   H36       1.0  0.81919  0.39390999999999987  0.1935  1.0000
  H   H37       1.0  0.1203  0.26256  0.1083  1.0000
  H   H38       1.0  0.819  0.15185  0.23944999999999997  1.0000
  H   H39       1.0  0.85999  0.06214999999999999  0.22404  1.0000
  H   H40       1.0  0.6441  0.18934999999999996  0.14055  1.0000
  H   H41       1.0  0.6280699999999999  0.18051  0.99914  1.0000
  H   H42       1.0  0.02206  0.07062999999999998  0.0994  1.0000
  H   H43       1.0  0.54662  0.49736  0.12733  1.0000
  H   H44       1.0  0.98992  0.88022  0.54243  1.0000
  H   H45       1.0  0.65537  0.80398  0.41082  1.0000
  H   H46       1.0  0.58227  0.67134  0.34304  1.0000
  H   H47       1.0  0.19096  0.7539999999999998  0.40626  1.0000
  H   H48       1.0  0.17950000000000002  0.62992  0.36396  1.0000
  H   H49       1.0  0.34409  0.58882  0.34483  1.0000
  H   H50       1.0  0.96347  0.58915  0.25667  1.0000
  H   H51       1.0  0.039799999999999995  0.54675  0.19168  1.0000
  H   H52       1.0  0.9709899999999999  0.53089  0.36374  1.0000
  H   H53       1.0  0.31341  0.37649  0.36109  1.0000
  H   H54       1.0  0.28226  0.45474  0.24350000000000002  1.0000
  H   H55       1.0  0.9930499999999999  0.67757  0.18893  1.0000
  H   H56       1.0  0.04245999999999998  0.7168699999999998  0.27386  1.0000
  H   H57       1.0  0.36531  0.78681  0.28149  1.0000
  H   H58       1.0  0.37467  0.8942999999999999  0.19356  1.0000
  H   H59       1.0  0.98771  0.7629299999999999  0.10807  1.0000
  H   H60       1.0  0.4206  0.65197  0.23959000000000003  1.0000
  H   H61       1.0  0.3638600000000001  0.56226  0.22394000000000003  1.0000
  H   H62       1.0  0.4961400000000001  0.6897599999999999  0.14084  1.0000
  H   H63       1.0  0.37091999999999997  0.6806599999999998  0.99932  1.0000
  H   H64       1.0  0.07683000000000001  0.57089  0.09943  1.0000
  H   H65       1.0  0.58095  0.9961799999999998  0.12727  1.0000
  H   H66       1.0  0.55175  0.38005  0.54208  1.0000
  H   H67       1.0  0.24444  0.69602  0.58961  1.0000
  H   H68       1.0  0.23915  0.82855  0.65757  1.0000
  H   H69       1.0  0.78424  0.74585  0.59334  1.0000
  H   H70       1.0  0.8152600000000001  0.87  0.63586  1.0000
  H   H71       1.0  0.99917  0.9111  0.65506  1.0000
  H   H72       1.0  0.70666  0.9109499999999999  0.7429  1.0000
  H   H73       1.0  0.84787  0.95309  0.80821  1.0000
  H   H74       1.0  0.60814  0.9693399999999999  0.63586  1.0000
  H   H75       1.0  0.95442  0.12362999999999999  0.63936  1.0000
  H   H76       1.0  0.03935999999999999  0.04545  0.75715  1.0000
  H   H77       1.0  0.80386  0.8225599999999997  0.81087  1.0000
  H   H78       1.0  0.76803  0.7833399999999999  0.72592  1.0000
  H   H79       1.0  0.08353000000000001  0.7135  0.71839  1.0000
  H   H80       1.0  0.18081  0.60609  0.80649  1.0000
  H   H81       1.0  0.8797  0.73744  0.8917  1.0000
  H   H82       1.0  0.181  0.84816  0.76054  1.0000
  H   H83       1.0  0.14000000000000004  0.93785  0.77596  1.0000
  H   H84       1.0  0.3559  0.81066  0.85944  1.0000
  H   H85       1.0  0.37193  0.81949  0.0008499999999999998  1.0000
  H   H86       1.0  0.97793  0.92937  0.9005899999999999  1.0000
  H   H87       1.0  0.45336999999999994  0.50265  0.87267  1.0000
  H   H88       1.0  0.0102  0.11973999999999999  0.4576299999999999  1.0000
  C   C1        1.0  0.45344  0.22452999999999998  0.60297  1.0000
  C   C2        1.0  0.48824999999999996  0.28916999999999987  0.63761  1.0000
  C   C3        1.0  0.69486  0.24708  0.60427  1.0000
  C   C4        1.0  0.73266  0.36574  0.66655  1.0000
  C   C5        1.0  0.80823  0.36931  0.74498  1.0000
  C   C6        1.0  0.9292799999999999  0.43155  0.75487  1.0000
  C   C7        1.0  0.9389  0.5004999999999998  0.65166  1.0000
  C   C8        1.0  0.76207  0.5798299999999998  0.6557  1.0000
  C   C9        1.0  0.7726  0.54061  0.71294  1.0000
  C   C10       1.0  0.9092  0.30388  0.76934  1.0000
  C   C11       1.0  0.71155  0.20232  0.76701  1.0000
  C   C12       1.0  0.70661  0.14936999999999998  0.81131  1.0000
  C   C13       1.0  0.9082900000000002  0.2153  0.85787  1.0000
  C   C14       1.0  0.6772  0.38323  0.78353  1.0000
  C   C15       1.0  0.60984  0.33438999999999997  0.88888  1.0000
  C   C16       1.0  0.6725499999999999  0.33944999999999986  0.9585700000000001  1.0000
  C   C17       1.0  0.8281899999999999  0.39699  0.9085  1.0000
  C   C18       1.0  0.19793000000000002  0.050649999999999994  0.9318899999999999  1.0000
  C   C19       1.0  0.35459  0.026710000000000008  0.9686600000000001  1.0000
  C   C20       1.0  0.39873  0.02463  0.04124  1.0000
  C   C21       1.0  0.45668  0.002170000000000003  0.92869  1.0000
  C   C22       1.0  0.30102  0.04954999999999999  0.09036  1.0000
  C   C23       1.0  0.69385  0.56626  0.41829  1.0000
  C   C24       1.0  0.60182  0.53087  0.46309999999999996  1.0000
  C   C25       1.0  0.47313  0.56689  0.47563  1.0000
  C   C26       1.0  0.62971  0.4631199999999999  0.48949  1.0000
  C   C27       1.0  0.77417  0.42376  0.48763000000000006  1.0000
  C   C28       1.0  0.85051  0.27541  0.39675  1.0000
  C   C29       1.0  0.85081  0.21083  0.36207  1.0000
  C   C30       1.0  0.09090999999999998  0.253  0.39593  1.0000
  C   C31       1.0  0.06633  0.1343  0.33353  1.0000
  C   C32       1.0  0.06336000000000003  0.13059  0.25511  1.0000
  C   C33       1.0  0.17436000000000001  0.06842  0.24529  1.0000
  C   C34       1.0  0.28617  0.9993399999999999  0.34847  1.0000
  C   C35       1.0  0.10461  0.92004  0.34395  1.0000
  C   C36       1.0  0.05863999999999997  0.95928  0.28667  1.0000
  C   C37       1.0  0.14022999999999997  0.19593  0.23084999999999997  1.0000
  C   C38       1.0  0.9448700000000001  0.29735  0.23314  1.0000
  C   C39       1.0  0.89541  0.35019  0.18877  1.0000
  C   C40       1.0  0.050499999999999996  0.28426999999999997  0.14235  1.0000
  C   C41       1.0  0.8936  0.11664  0.21642  1.0000
  C   C42       1.0  0.72059  0.16535  0.11094  1.0000
  C   C43       1.0  0.71359  0.1603  0.04126  1.0000
  C   C44       1.0  0.91919  0.10275  0.09144  1.0000
  C   C45       1.0  0.2663  0.44981  0.06859  1.0000
  C   C46       1.0  0.38584  0.4737199999999999  0.03159  1.0000
  C   C47       1.0  0.35721999999999987  0.47515  0.95895  1.0000
  C   C48       1.0  0.52813  0.49854  0.07134  1.0000
  C   C49       1.0  0.20946999999999996  0.45082  0.90993  1.0000
  C   C50       1.0  0.27499  0.9334699999999999  0.58199  1.0000
  C   C51       1.0  0.1386  0.96904  0.53691  1.0000
  C   C52       1.0  0.9967  0.93327  0.52456  1.0000
  C   C53       1.0  0.1415  0.03673  0.51037  1.0000
  C   C54       1.0  0.28876  0.07593  0.51212  1.0000
  C   C55       1.0  0.5465799999999998  0.77547  0.39702  1.0000
  C   C56       1.0  0.51175  0.71083  0.36238  1.0000
  C   C57       1.0  0.30515  0.75293  0.39572  1.0000
  C   C58       1.0  0.26733  0.63427  0.33345  1.0000
  C   C59       1.0  0.19176  0.63069  0.25502  1.0000
  C   C60       1.0  0.07072  0.56846  0.24513  1.0000
  C   C61       1.0  0.061090000000000005  0.4995  0.34834  1.0000
  C   C62       1.0  0.23792  0.42017  0.34429  1.0000
  C   C63       1.0  0.22739  0.45938999999999997  0.28706  1.0000
  C   C64       1.0  0.09079999999999999  0.69612  0.23065999999999998  1.0000
  C   C65       1.0  0.28845  0.79768  0.23297999999999996  1.0000
  C   C66       1.0  0.29338  0.85063  0.18869  1.0000
  C   C67       1.0  0.09171  0.7847099999999999  0.14212  1.0000
  C   C68       1.0  0.3228  0.61677  0.21646  1.0000
  C   C69       1.0  0.39016  0.66561  0.11111  1.0000
  C   C70       1.0  0.32744  0.66055  0.04143  1.0000
  C   C71       1.0  0.1718  0.6030099999999999  0.0915  1.0000
  C   C72       1.0  0.80207  0.94935  0.06811  1.0000
  C   C73       1.0  0.64541  0.97329  0.03133  1.0000
  C   C74       1.0  0.60127  0.97537  0.95876  1.0000
  C   C75       1.0  0.54331  0.9978299999999999  0.07131  1.0000
  C   C76       1.0  0.6989700000000001  0.95045  0.9096400000000001  1.0000
  C   C77       1.0  0.30614  0.43374  0.58171  1.0000
  C   C78       1.0  0.39818  0.46912999999999994  0.5369  1.0000
  C   C79       1.0  0.52687  0.43311999999999995  0.52437  1.0000
  C   C80       1.0  0.37028999999999995  0.53689  0.51051  1.0000
  C   C81       1.0  0.22581999999999997  0.5762399999999999  0.51236  1.0000
  C   C82       1.0  0.14945  0.72456  0.60326  1.0000
  C   C83       1.0  0.14917  0.7891199999999998  0.63795  1.0000
  C   C84       1.0  0.90905  0.747  0.60405  1.0000
  C   C85       1.0  0.9336599999999999  0.86569  0.66647  1.0000
  C   C86       1.0  0.9366399999999999  0.86941  0.74488  1.0000
  C   C87       1.0  0.82563  0.93158  0.7547  1.0000
  C   C88       1.0  0.71385  0.0006700000000000011  0.65152  1.0000
  C   C89       1.0  0.89541  0.07995999999999999  0.65604  1.0000
  C   C90       1.0  0.9413699999999999  0.04071999999999999  0.71333  1.0000
  C   C91       1.0  0.85976  0.80407  0.76915  1.0000
  C   C92       1.0  0.05511999999999999  0.70265  0.76685  1.0000
  C   C93       1.0  0.10459  0.64981  0.81123  1.0000
  C   C94       1.0  0.9494999999999999  0.71573  0.8576400000000001  1.0000
  C   C95       1.0  0.10638999999999997  0.88336  0.78357  1.0000
  C   C96       1.0  0.27941  0.83466  0.88906  1.0000
  C   C97       1.0  0.28641  0.8397  0.95873  1.0000
  C   C98       1.0  0.08080999999999994  0.89725  0.90855  1.0000
  C   C99       1.0  0.7337  0.55019  0.9314099999999998  1.0000
  C   C100      1.0  0.61416  0.52628  0.96841  1.0000
  C   C101      1.0  0.64278  0.52485  0.04105  1.0000
  C   C102      1.0  0.47185999999999995  0.50146  0.92866  1.0000
  C   C103      1.0  0.79052  0.54919  0.09006  1.0000
  C   C104      1.0  0.72503  0.06631  0.41802  1.0000
  C   C105      1.0  0.86153  0.030899999999999997  0.46319  1.0000
  C   C106      1.0  0.0034200000000000194  0.06669999999999998  0.47553  1.0000
  C   C107      1.0  0.8586500000000001  0.96322  0.48971000000000003  1.0000
  C   C108      1.0  0.7113499999999999  0.92405  0.48791  1.0000
  N   N1        1.0  0.58308  0.19877  0.58255  1.0000
  N   N2        1.0  0.64256  0.30245  0.6387  1.0000
  N   N3        1.0  0.8665099999999999  0.5547399999999999  0.61815  1.0000
  N   N4        1.0  0.88453  0.49016  0.70937  1.0000
  N   N5        1.0  0.83982  0.24421  0.7971  1.0000
  N   N6        1.0  0.83012  0.15783999999999998  0.8677199999999999  1.0000
  N   N7        1.0  0.8088100000000003  0.37825  0.9701100000000001  1.0000
  N   N8        1.0  0.7097799999999999  0.37081  0.85776  1.0000
  N   N9        1.0  0.0005899999999999813  0.30119  0.41749  1.0000
  N   N10       1.0  0.004179999999999983  0.19762  0.36129  1.0000
  N   N11       1.0  0.24654  0.94513  0.38181  1.0000
  N   N12       1.0  0.17451  0.009690000000000002  0.29056  1.0000
  N   N13       1.0  0.043039999999999995  0.2555  0.20315  1.0000
  N   N14       1.0  0.96234  0.34159  0.13242  1.0000
  N   N15       1.0  0.83816  0.12146  0.02979  1.0000
  N   N16       1.0  0.85165  0.12895  0.14215  1.0000
  N   N17       1.0  0.4169399999999999  0.80123  0.41742999999999997  1.0000
  N   N18       1.0  0.35744  0.6975599999999997  0.3613  1.0000
  N   N19       1.0  0.13348000000000002  0.44526  0.38185  1.0000
  N   N20       1.0  0.11547  0.50984  0.29063  1.0000
  N   N21       1.0  0.16018  0.75579  0.2029  1.0000
  N   N22       1.0  0.16987  0.8421699999999999  0.13228  1.0000
  N   N23       1.0  0.19118  0.6217499999999999  0.02989  1.0000
  N   N24       1.0  0.29021  0.6292  0.14224  1.0000
  N   N25       1.0  0.9993500000000001  0.6988  0.58249  1.0000
  N   N26       1.0  0.9958  0.8023599999999999  0.63872  1.0000
  N   N27       1.0  0.7534899999999999  0.05487999999999999  0.61818  1.0000
  N   N28       1.0  0.82549  0.9903099999999999  0.70943  1.0000
  N   N29       1.0  0.95696  0.7445  0.79685  1.0000
  N   N30       1.0  0.037659999999999985  0.65841  0.8675699999999998  1.0000
  N   N31       1.0  0.16183000000000003  0.87855  0.97021  1.0000
  N   N32       1.0  0.14835  0.8710499999999999  0.85785  1.0000
  O   O1        1.0  0.16358999999999999  0.05360999999999999  0.8676  1.0000
  O   O2        1.0  0.10612000000000002  0.06499  0.97334  1.0000
  O   O3        1.0  0.31787  0.11075  0.11741  1.0000
  O   O4        1.0  0.2126  0.0014  0.10811  1.0000
  O   O5        1.0  0.81015  0.60724  0.44776000000000005  1.0000
  O   O6        1.0  0.64327  0.5607199999999998  0.35427  1.0000
  O   O7        1.0  0.86536  0.45337  0.45414  1.0000
  O   O8        1.0  0.80348  0.36747  0.51867  1.0000
  O   O9        1.0  0.2946  0.44992  0.13313  1.0000
  O   O10       1.0  0.13512  0.4318  0.02694  1.0000
  O   O11       1.0  0.19695  0.38961  0.88284  1.0000
  O   O12       1.0  0.10506999999999998  0.49973999999999996  0.89224  1.0000
  O   O13       1.0  0.36229  0.8926799999999999  0.55269  1.0000
  O   O14       1.0  0.28762  0.9391899999999999  0.64595  1.0000
  O   O15       1.0  0.41356999999999994  0.04644  0.5457  1.0000
  O   O16       1.0  0.28741000000000005  0.13217999999999996  0.48096000000000005  1.0000
  O   O17       1.0  0.83641  0.94639  0.1324  1.0000
  O   O18       1.0  0.89388  0.9350199999999999  0.02666  1.0000
  O   O19       1.0  0.68213  0.8892499999999999  0.88259  1.0000
  O   O20       1.0  0.78739  0.9985999999999999  0.8918799999999999  1.0000
  O   O21       1.0  0.18984  0.39276  0.55223  1.0000
  O   O22       1.0  0.35672  0.43928  0.64573  1.0000
  O   O23       1.0  0.13463000000000003  0.5466399999999998  0.54585  1.0000
  O   O24       1.0  0.19651000000000002  0.63254  0.4813200000000001  1.0000
  O   O25       1.0  0.7054  0.55008  0.86687  1.0000
  O   O26       1.0  0.86487  0.5682  0.97305  1.0000
  O   O27       1.0  0.80305  0.61039  0.11715999999999999  1.0000
  O   O28       1.0  0.89493  0.50026  0.10776  1.0000
  O   O29       1.0  0.63793  0.10729999999999999  0.44726000000000005  1.0000
  O   O30       1.0  0.71222  0.0605  0.35407  1.0000
  O   O31       1.0  0.58658  0.95356  0.45429  1.0000
  O   O32       1.0  0.71263  0.86781  0.51905  1.0000
