data_image0
_chemical_formula_structural       Cd8H76C108N20O16
_chemical_formula_sum              "Cd8 H76 C108 N20 O16"
_cell_length_a       15.5653
_cell_length_b       15.79748
_cell_length_c       12.88614
_cell_angle_alpha    89.95043
_cell_angle_beta     112.53611999999998
_cell_angle_gamma    90.08290999999998

_symmetry_space_group_name_H-M    'P 1'
_symmetry_Int_Tables_number       1

loop_
  _symmetry_equiv_pos_as_xyz
  'x,y,z'

loop_
  _atom_site_type_symbol
  _atom_site_label
  _atom_site_symmetry_multiplicity
  _atom_site_fract_x
  _atom_site_fract_y
  _atom_site_fract_z
  _atom_site_occupancy
  Cd  Cd1       1.0  0.24782000000000004  0.17064  0.4022000000000001  1.0000
  Cd  Cd2       1.0  0.20316999999999993  0.34294999999999987  0.17466  1.0000
  Cd  Cd3       1.0  0.2505399999999999  0.67033  0.59772  1.0000
  Cd  Cd4       1.0  0.29727  0.84254  0.82538  1.0000
  Cd  Cd5       1.0  0.75219  0.82934  0.59782  1.0000
  Cd  Cd6       1.0  0.7968099999999999  0.65705  0.82539  1.0000
  Cd  Cd7       1.0  0.7494799999999998  0.32968  0.4023  1.0000
  Cd  Cd8       1.0  0.7027199999999998  0.15747  0.17466  1.0000
  H   H1        1.0  0.7542399999999999  0.64969  0.5204  1.0000
  H   H2        1.0  0.6334499999999997  0.54272  0.44946000000000014  1.0000
  H   H3        1.0  0.4382899999999999  0.74543  0.2912100000000001  1.0000
  H   H4        1.0  0.56675  0.8448599999999998  0.37378  1.0000
  H   H5        1.0  0.05213999999999999  0.15158  0.21136000000000002  1.0000
  H   H6        1.0  0.9502099999999998  0.04235  0.09477  1.0000
  H   H7        1.0  0.18187999999999993  0.86655  0.22995  1.0000
  H   H8        1.0  0.27479  0.98426  0.33993  1.0000
  H   H9        1.0  0.9949299999999998  0.66422  0.022130000000000007  1.0000
  H   H10       1.0  0.09863999999999998  0.77196  0.13905  1.0000
  H   H11       1.0  0.8605799999999998  0.94123  0.04145  1.0000
  H   H12       1.0  0.7647099999999999  0.82307  0.9361700000000001  1.0000
  H   H13       1.0  0.41207  0.35477  0.32301  1.0000
  H   H14       1.0  0.53411  0.4588799999999999  0.40163000000000004  1.0000
  H   H15       1.0  0.3310499999999999  0.6547699999999997  0.23713  1.0000
  H   H16       1.0  0.21599999999999994  0.54233  0.16549  1.0000
  H   H17       1.0  0.82276  0.48232  0.17377  1.0000
  H   H18       1.0  0.9098799999999998  0.57517  0.08855000000000002  1.0000
  H   H19       1.0  0.0653  0.52637  0.09675  1.0000
  H   H20       1.0  0.74775  0.14972  0.4781  1.0000
  H   H21       1.0  0.86819  0.04274  0.54897  1.0000
  H   H22       1.0  0.06374000000000003  0.24527  0.7086800000000001  1.0000
  H   H23       1.0  0.9356  0.3447099999999999  0.62604  1.0000
  H   H24       1.0  0.44706  0.65154  0.78815  1.0000
  H   H25       1.0  0.5489199999999999  0.54247  0.9045400000000002  1.0000
  H   H26       1.0  0.31684999999999997  0.36647  0.7707200000000001  1.0000
  H   H27       1.0  0.22395999999999996  0.48408  0.6607300000000002  1.0000
  H   H28       1.0  0.50407  0.16406  0.97776  1.0000
  H   H29       1.0  0.4003799999999998  0.27169  0.86072  1.0000
  H   H30       1.0  0.6382699999999998  0.44183  0.95933  1.0000
  H   H31       1.0  0.7340699999999998  0.32392  0.06503  1.0000
  H   H32       1.0  0.08815  0.85433  0.67776  1.0000
  H   H33       1.0  0.9667699999999999  0.95872  0.5985400000000001  1.0000
  H   H34       1.0  0.17094000000000006  0.15428  0.7627600000000002  1.0000
  H   H35       1.0  0.28522  0.04149  0.83515  1.0000
  H   H36       1.0  0.67796  0.981  0.82595  1.0000
  H   H37       1.0  0.5917999999999998  0.07312  0.9126700000000001  1.0000
  H   H38       1.0  0.4359000000000001  0.024429999999999993  0.9039400000000002  1.0000
  H   H39       1.0  0.24573999999999993  0.35032  0.47959  1.0000
  H   H40       1.0  0.3665499999999999  0.45728  0.55054  1.0000
  H   H41       1.0  0.5616899999999998  0.25456  0.7087800000000002  1.0000
  H   H42       1.0  0.43323  0.15514  0.6262  1.0000
  H   H43       1.0  0.94783  0.84842  0.78862  1.0000
  H   H44       1.0  0.049780000000000074  0.95765  0.9052300000000001  1.0000
  H   H45       1.0  0.8181199999999997  0.13346  0.77007  1.0000
  H   H46       1.0  0.7252  0.015750000000000007  0.6600800000000001  1.0000
  H   H47       1.0  0.0050600000000000245  0.33578  0.9778500000000001  1.0000
  H   H48       1.0  0.9013599999999998  0.22803  0.86095  1.0000
  H   H49       1.0  0.13940000000000002  0.05877  0.9585600000000001  1.0000
  H   H50       1.0  0.23527999999999993  0.17693  0.06383  1.0000
  H   H51       1.0  0.5879200000000001  0.64523  0.6770000000000003  1.0000
  H   H52       1.0  0.46587999999999996  0.54111  0.5983700000000001  1.0000
  H   H53       1.0  0.66894  0.34522  0.7628900000000001  1.0000
  H   H54       1.0  0.7839800000000001  0.45768  0.8345200000000002  1.0000
  H   H55       1.0  0.17721999999999996  0.51763  0.8262500000000002  1.0000
  H   H56       1.0  0.09008000000000004  0.42479  0.9114400000000002  1.0000
  H   H57       1.0  0.9346600000000003  0.47362  0.9032300000000002  1.0000
  H   H58       1.0  0.25224  0.85028  0.52191  1.0000
  H   H59       1.0  0.13181  0.95726  0.45104000000000005  1.0000
  H   H60       1.0  0.9362599999999998  0.75473  0.29132  1.0000
  H   H61       1.0  0.0644  0.65529  0.37397  1.0000
  H   H62       1.0  0.55293  0.34846  0.21184000000000006  1.0000
  H   H63       1.0  0.45107  0.45753  0.09546  1.0000
  H   H64       1.0  0.68315  0.63353  0.22928000000000007  1.0000
  H   H65       1.0  0.7760299999999998  0.51592  0.3392800000000001  1.0000
  H   H66       1.0  0.4959099999999999  0.83594  0.02224  1.0000
  H   H67       1.0  0.5996099999999998  0.72831  0.13928  1.0000
  H   H68       1.0  0.36173  0.55816  0.04066000000000001  1.0000
  H   H69       1.0  0.26593  0.67607  0.93497  1.0000
  H   H70       1.0  0.9118399999999998  0.14567  0.32224  1.0000
  H   H71       1.0  0.03321999999999997  0.04129  0.40145  1.0000
  H   H72       1.0  0.8290499999999997  0.84572  0.23724  1.0000
  H   H73       1.0  0.71477  0.95851  0.16485  1.0000
  H   H74       1.0  0.32203  0.01901  0.17404000000000003  1.0000
  H   H75       1.0  0.4081899999999999  0.92688  0.08734  1.0000
  H   H76       1.0  0.5640799999999998  0.9755799999999998  0.09606  1.0000
  C   C1        1.0  0.6832200000000002  0.66824  0.46976000000000007  1.0000
  C   C2        1.0  0.6142800000000002  0.60848  0.4295300000000001  1.0000
  C   C3        1.0  0.52058  0.63198  0.3641200000000001  1.0000
  C   C4        1.0  0.50647  0.72062  0.3427800000000001  1.0000
  C   C5        1.0  0.5786099999999997  0.77719  0.3871700000000001  1.0000
  C   C6        1.0  0.07740999999999998  0.08736  0.21415  1.0000
  C   C7        1.0  0.02053000000000001  0.025  0.14953000000000002  1.0000
  C   C8        1.0  0.052389999999999985  0.93983  0.15551  1.0000
  C   C9        1.0  0.1491  0.92812  0.22268000000000002  1.0000
  C   C10       1.0  0.20208999999999994  0.99349  0.28556  1.0000
  C   C11       1.0  0.9673099999999998  0.72588  0.03065  1.0000
  C   C12       1.0  0.025709999999999993  0.78782  0.09491  1.0000
  C   C13       1.0  0.9922599999999998  0.87148  0.09887000000000001  1.0000
  C   C14       1.0  0.8941299999999998  0.88119  0.04052  1.0000
  C   C15       1.0  0.8391499999999997  0.81537  0.98179  1.0000
  C   C16       1.0  0.3968199999999999  0.42174  0.30563  1.0000
  C   C17       1.0  0.46554  0.48175  0.3487  1.0000
  C   C18       1.0  0.4478499999999999  0.5697599999999998  0.32501  1.0000
  C   C19       1.0  0.35322  0.58965  0.25824  1.0000
  C   C20       1.0  0.2877  0.52662  0.21727  1.0000
  C   C21       1.0  0.07531000000000002  0.2948099999999999  0.30700000000000005  1.0000
  C   C22       1.0  0.022589999999999996  0.36926  0.23858  1.0000
  C   C23       1.0  0.93357  0.39019  0.23417  1.0000
  C   C24       1.0  0.8913899999999998  0.46432  0.17714000000000005  1.0000
  C   C25       1.0  0.9390499999999998  0.51548  0.12897  1.0000
  C   C26       1.0  0.026359999999999988  0.48911  0.135  1.0000
  C   C27       1.0  0.8804599999999998  0.34219  0.29208  1.0000
  C   C28       1.0  0.8187299999999996  0.1682  0.52933  1.0000
  C   C29       1.0  0.8874899999999998  0.10842  0.56962  1.0000
  C   C30       1.0  0.9811599999999998  0.13183  0.6356200000000001  1.0000
  C   C31       1.0  0.99551  0.22045  0.65705  1.0000
  C   C32       1.0  0.9235299999999997  0.27706  0.6126  1.0000
  C   C33       1.0  0.42164000000000007  0.58733  0.7855000000000001  1.0000
  C   C34       1.0  0.4785299999999999  0.52501  0.85  1.0000
  C   C35       1.0  0.4465599999999999  0.43981  0.84441  1.0000
  C   C36       1.0  0.3497499999999999  0.42803  0.77762  1.0000
  C   C37       1.0  0.2967299999999999  0.49339  0.71483  1.0000
  C   C38       1.0  0.5316199999999998  0.22593  0.9695600000000002  1.0000
  C   C39       1.0  0.47326  0.28778  0.9051600000000002  1.0000
  C   C40       1.0  0.5066599999999998  0.37158  0.90123  1.0000
  C   C41       1.0  0.6047400000000002  0.38161999999999996  0.9599800000000002  1.0000
  C   C42       1.0  0.6596699999999998  0.31597  0.01902  1.0000
  C   C43       1.0  0.10372000000000003  0.9213  0.6950000000000001  1.0000
  C   C44       1.0  0.035410000000000025  0.98147  0.6516100000000001  1.0000
  C   C45       1.0  0.053589999999999964  0.06949  0.67507  1.0000
  C   C46       1.0  0.14832  0.08919  0.74195  1.0000
  C   C47       1.0  0.21342999999999993  0.02599  0.78326  1.0000
  C   C48       1.0  0.425  0.79325  0.6933  1.0000
  C   C49       1.0  0.4780400000000001  0.86783  0.7611800000000001  1.0000
  C   C50       1.0  0.5671700000000001  0.88885  0.7655900000000001  1.0000
  C   C51       1.0  0.6093999999999999  0.96291  0.82284  1.0000
  C   C52       1.0  0.5621699999999997  0.01371  0.8717200000000003  1.0000
  C   C53       1.0  0.47469000000000006  0.98742  0.8654000000000002  1.0000
  C   C54       1.0  0.6209  0.8416299999999999  0.70781  1.0000
  C   C55       1.0  0.3167699999999999  0.33177  0.53023  1.0000
  C   C56       1.0  0.3857099999999999  0.39152  0.57047  1.0000
  C   C57       1.0  0.4794099999999999  0.36801  0.63588  1.0000
  C   C58       1.0  0.49352  0.27937  0.65722  1.0000
  C   C59       1.0  0.4213699999999999  0.22281  0.61282  1.0000
  C   C60       1.0  0.9225799999999997  0.91265  0.78584  1.0000
  C   C61       1.0  0.9794599999999999  0.975  0.8504700000000001  1.0000
  C   C62       1.0  0.9475999999999999  0.06017  0.84448  1.0000
  C   C63       1.0  0.8508899999999998  0.07189  0.7773200000000002  1.0000
  C   C64       1.0  0.7978899999999998  0.00651  0.71444  1.0000
  C   C65       1.0  0.032680000000000084  0.27412  0.9693400000000002  1.0000
  C   C66       1.0  0.9742899999999997  0.21218  0.90508  1.0000
  C   C67       1.0  0.0077400000000000645  0.12852  0.9011300000000002  1.0000
  C   C68       1.0  0.10585999999999998  0.11881  0.9594800000000001  1.0000
  C   C69       1.0  0.16083999999999996  0.18463  0.01821  1.0000
  C   C70       1.0  0.60316  0.57825  0.6943700000000003  1.0000
  C   C71       1.0  0.53444  0.51825  0.6513  1.0000
  C   C72       1.0  0.55214  0.43023  0.67499  1.0000
  C   C73       1.0  0.64676  0.41035  0.7417600000000001  1.0000
  C   C74       1.0  0.71228  0.47338  0.7827300000000001  1.0000
  C   C75       1.0  0.9246799999999997  0.70514  0.693  1.0000
  C   C76       1.0  0.9774299999999999  0.63072  0.7614400000000002  1.0000
  C   C77       1.0  0.06645000000000004  0.60979  0.7658600000000001  1.0000
  C   C78       1.0  0.10861999999999997  0.53567  0.8229300000000002  1.0000
  C   C79       1.0  0.060950000000000046  0.48451  0.8710800000000002  1.0000
  C   C80       1.0  0.9736299999999998  0.51089  0.86505  1.0000
  C   C81       1.0  0.11954999999999998  0.65779  0.70793  1.0000
  C   C82       1.0  0.18126999999999993  0.8318  0.47068  1.0000
  C   C83       1.0  0.11251000000000001  0.89158  0.4303800000000001  1.0000
  C   C84       1.0  0.018830000000000003  0.86818  0.36439  1.0000
  C   C85       1.0  0.0044900000000000165  0.77955  0.34295000000000003  1.0000
  C   C86       1.0  0.07647000000000001  0.72294  0.3874200000000001  1.0000
  C   C87       1.0  0.57835  0.41266  0.21450000000000005  1.0000
  C   C88       1.0  0.52146  0.47499  0.15000000000000002  1.0000
  C   C89       1.0  0.55343  0.56019  0.1556  1.0000
  C   C90       1.0  0.65024  0.57196  0.22238  1.0000
  C   C91       1.0  0.7032599999999998  0.50661  0.28517  1.0000
  C   C92       1.0  0.4683599999999999  0.77407  0.03045  1.0000
  C   C93       1.0  0.52673  0.71222  0.09485000000000002  1.0000
  C   C94       1.0  0.4933299999999999  0.62841  0.09877  1.0000
  C   C95       1.0  0.3952499999999999  0.61837  0.04002  1.0000
  C   C96       1.0  0.34031000000000006  0.68401  0.9809800000000002  1.0000
  C   C97       1.0  0.8962599999999997  0.0787  0.30501  1.0000
  C   C98       1.0  0.9645799999999999  0.01853  0.34839  1.0000
  C   C99       1.0  0.9463999999999998  0.93051  0.32494  1.0000
  C   C100      1.0  0.8516699999999998  0.91081  0.25806  1.0000
  C   C101      1.0  0.7865599999999998  0.974  0.21675000000000003  1.0000
  C   C102      1.0  0.575  0.20674  0.3067500000000001  1.0000
  C   C103      1.0  0.5219499999999998  0.13217  0.23885000000000003  1.0000
  C   C104      1.0  0.43282  0.11115  0.23441000000000004  1.0000
  C   C105      1.0  0.3905899999999999  0.03709  0.17716  1.0000
  C   C106      1.0  0.43781999999999976  0.98629  0.12828  1.0000
  C   C107      1.0  0.5252999999999998  0.01258  0.13461  1.0000
  C   C108      1.0  0.37909  0.15837  0.29219  1.0000
  N   N1        1.0  0.66799  0.7532  0.45192000000000004  1.0000
  N   N2        1.0  0.1675  0.0731  0.28552000000000005  1.0000
  N   N3        1.0  0.3074699999999999  0.44222  0.23819  1.0000
  N   N4        1.0  0.06677999999999998  0.41734  0.18658  1.0000
  N   N5        1.0  0.8738799999999998  0.73711  0.97242  1.0000
  N   N6        1.0  0.8340999999999997  0.25311  0.54765  1.0000
  N   N7        1.0  0.33137  0.57303  0.71453  1.0000
  N   N8        1.0  0.19313999999999995  0.94162  0.76257  1.0000
  N   N9        1.0  0.4340299999999999  0.91588  0.8133  1.0000
  N   N10       1.0  0.62498  0.23754  0.02817  1.0000
  N   N11       1.0  0.3319899999999999  0.24681  0.54807  1.0000
  N   N12       1.0  0.8324799999999998  0.92691  0.71447  1.0000
  N   N13       1.0  0.69251  0.55778  0.7618200000000003  1.0000
  N   N14       1.0  0.9332299999999998  0.58266  0.8134500000000001  1.0000
  N   N15       1.0  0.12611  0.26289  0.027580000000000004  1.0000
  N   N16       1.0  0.16588999999999998  0.74689  0.4523600000000001  1.0000
  N   N17       1.0  0.66862  0.42697  0.28548  1.0000
  N   N18       1.0  0.8068399999999998  0.05838  0.23744000000000007  1.0000
  N   N19       1.0  0.5659699999999998  0.08412  0.18673  1.0000
  N   N20       1.0  0.37499999999999983  0.76245  0.9718400000000001  1.0000
  O   O1        1.0  0.15614999999999998  0.2795  0.30128000000000005  1.0000
  O   O2        1.0  0.04302000000000004  0.25357  0.3653900000000001  1.0000
  O   O3        1.0  0.88271  0.37876  0.38102000000000014  1.0000
  O   O4        1.0  0.8311699999999997  0.27908  0.24349  1.0000
  O   O5        1.0  0.34353999999999996  0.77913  0.6981900000000002  1.0000
  O   O6        1.0  0.45779999999999993  0.75065  0.6365800000000001  1.0000
  O   O7        1.0  0.61893  0.87845  0.61913  1.0000
  O   O8        1.0  0.6706500000000001  0.77885  0.7564800000000002  1.0000
  O   O9        1.0  0.8438599999999997  0.72047  0.6987000000000001  1.0000
  O   O10       1.0  0.9569899999999997  0.74637  0.63453  1.0000
  O   O11       1.0  0.11729  0.62123  0.6189900000000002  1.0000
  O   O12       1.0  0.16882000000000003  0.72092  0.7565000000000001  1.0000
  O   O13       1.0  0.6564599999999996  0.22087  0.30185  1.0000
  O   O14       1.0  0.54221  0.24933  0.3634900000000001  1.0000
  O   O15       1.0  0.38106  0.12155  0.38088  1.0000
  O   O16       1.0  0.3293299999999999  0.22115  0.24352  1.0000
