data_image0
_chemical_formula_structural       Cd6H76C128N4O24
_chemical_formula_sum              "Cd6 H76 C128 N4 O24"
_cell_length_a       16.21479
_cell_length_b       17.27546
_cell_length_c       18.30403
_cell_angle_alpha    68.4455
_cell_angle_beta     64.65876
_cell_angle_gamma    64.08116

_symmetry_space_group_name_H-M    'P 1'
_symmetry_Int_Tables_number       1

loop_
  _symmetry_equiv_pos_as_xyz
  'x,y,z'

loop_
  _atom_site_type_symbol
  _atom_site_label
  _atom_site_symmetry_multiplicity
  _atom_site_fract_x
  _atom_site_fract_y
  _atom_site_fract_z
  _atom_site_occupancy
  Cd  Cd1       1.0  0.5319699999999999  0.2135400000000001  0.54597  1.0000
  Cd  Cd2       1.0  0.4463300000000001  0.29047999999999996  0.75044  1.0000
  Cd  Cd3       1.0  0.3640700000000001  0.38916  0.93569  1.0000
  Cd  Cd4       1.0  0.4680299999999999  0.7864600000000002  0.45403  1.0000
  Cd  Cd5       1.0  0.5536600000000004  0.70952  0.24955  1.0000
  Cd  Cd6       1.0  0.63593  0.61085  0.06431  1.0000
  H   H1        1.0  0.5168  0.38289  0.38806  1.0000
  H   H2        1.0  0.47125000000000006  0.42934  0.26039  1.0000
  H   H3        1.0  0.51604  0.1549  0.28884  1.0000
  H   H4        1.0  0.55599  0.12128  0.41649  1.0000
  H   H5        1.0  0.52067  0.42113  0.12086  1.0000
  H   H6        1.0  0.46936  0.44969000000000015  0.99939  1.0000
  H   H7        1.0  0.3418300000000002  0.2555800000000001  0.11541  1.0000
  H   H8        1.0  0.3819199999999999  0.22130000000000002  0.24414  1.0000
  H   H9        1.0  0.67928  0.27892  0.68144  1.0000
  H   H10       1.0  0.76389  0.35635  0.70036  1.0000
  H   H11       1.0  0.68271  0.57476  0.50478  1.0000
  H   H12       1.0  0.5973400000000001  0.49751  0.48657  1.0000
  H   H13       1.0  0.9040700000000003  0.40012000000000014  0.62975  1.0000
  H   H14       1.0  0.9380900000000001  0.64476  0.59898  1.0000
  H   H15       1.0  0.6778400000000001  0.64521  0.58929  1.0000
  H   H16       1.0  0.05755  0.35994  0.57689  1.0000
  H   H17       1.0  0.21856000000000003  0.27758  0.59464  1.0000
  H   H18       1.0  0.18774999999999992  0.48121000000000025  0.69504  1.0000
  H   H19       1.0  0.02347999999999993  0.5618400000000002  0.68272  1.0000
  H   H20       1.0  0.8365100000000001  0.76595  0.64717  1.0000
  H   H21       1.0  0.7581900000000001  0.9283100000000001  0.63128  1.0000
  H   H22       1.0  0.59064  0.92851  0.50176  1.0000
  H   H23       1.0  0.6735300000000004  0.76933  0.51094  1.0000
  H   H24       1.0  0.64921  0.2958700000000001  0.92973  1.0000
  H   H25       1.0  0.8121599999999999  0.21999  0.94701  1.0000
  H   H26       1.0  0.88071  0.04345999999999998  0.79723  1.0000
  H   H27       1.0  0.7151400000000003  0.11571000000000001  0.78605  1.0000
  H   H28       1.0  0.97733  0.19637000000000002  0.87877  1.0000
  H   H29       1.0  0.21113999999999988  0.95292  0.90896  1.0000
  H   H30       1.0  0.95884  0.9524499999999999  0.8859  1.0000
  H   H31       1.0  0.11913000000000007  0.24043999999999996  0.80304  1.0000
  H   H32       1.0  0.20318  0.32028  0.81952  1.0000
  H   H33       1.0  0.28114  0.10708  0.01918  1.0000
  H   H34       1.0  0.20073000000000005  0.02487  0.00075  1.0000
  H   H35       1.0  0.27760999999999997  0.8538999999999999  0.82424  1.0000
  H   H36       1.0  0.35582999999999987  0.69251  0.83508  1.0000
  H   H37       1.0  0.08469999999999986  0.6524100000000004  0.98749  1.0000
  H   H38       1.0  0.004209999999999994  0.8142700000000002  0.97719  1.0000
  H   H39       1.0  0.4832000000000001  0.61711  0.61194  1.0000
  H   H40       1.0  0.5287399999999998  0.5706700000000002  0.73961  1.0000
  H   H41       1.0  0.4839500000000002  0.84511  0.7111599999999998  1.0000
  H   H42       1.0  0.4440099999999999  0.8787200000000002  0.58351  1.0000
  H   H43       1.0  0.47933000000000037  0.5788699999999999  0.87914  1.0000
  H   H44       1.0  0.53064  0.5503200000000003  0.0006  1.0000
  H   H45       1.0  0.6581699999999999  0.74443  0.88458  1.0000
  H   H46       1.0  0.6180800000000004  0.7787  0.75586  1.0000
  H   H47       1.0  0.32072000000000006  0.72109  0.31855  1.0000
  H   H48       1.0  0.23610000000000003  0.64365  0.29964  1.0000
  H   H49       1.0  0.3172799999999998  0.4252500000000002  0.49522  1.0000
  H   H50       1.0  0.4026500000000004  0.50249  0.51342  1.0000
  H   H51       1.0  0.09593000000000004  0.59989  0.37024  1.0000
  H   H52       1.0  0.06189999999999998  0.35525  0.40101  1.0000
  H   H53       1.0  0.32214999999999994  0.3548000000000002  0.4107  1.0000
  H   H54       1.0  0.94244  0.64006  0.4231  1.0000
  H   H55       1.0  0.78144  0.72243  0.40536  1.0000
  H   H56       1.0  0.8122400000000001  0.5188  0.30495  1.0000
  H   H57       1.0  0.9765199999999999  0.4381600000000001  0.31728  1.0000
  H   H58       1.0  0.16348999999999994  0.2340500000000001  0.35282  1.0000
  H   H59       1.0  0.24180000000000001  0.07169000000000006  0.36872  1.0000
  H   H60       1.0  0.40936000000000006  0.0715  0.49823999999999996  1.0000
  H   H61       1.0  0.32646000000000003  0.23068000000000002  0.48906  1.0000
  H   H62       1.0  0.3507899999999999  0.7041300000000003  0.07026  1.0000
  H   H63       1.0  0.18784000000000006  0.78002  0.05299  1.0000
  H   H64       1.0  0.11929000000000001  0.95654  0.20277  1.0000
  H   H65       1.0  0.2848499999999999  0.8842900000000002  0.21395  1.0000
  H   H66       1.0  0.022670000000000034  0.80363  0.12123  1.0000
  H   H67       1.0  0.78886  0.04709  0.09103  1.0000
  H   H68       1.0  0.04115000000000002  0.04755000000000003  0.1141  1.0000
  H   H69       1.0  0.8808700000000002  0.75956  0.19695  1.0000
  H   H70       1.0  0.7968200000000001  0.67973  0.18048  1.0000
  H   H71       1.0  0.7188600000000002  0.89293  0.98082  1.0000
  H   H72       1.0  0.7992700000000005  0.97514  0.9992399999999999  1.0000
  H   H73       1.0  0.72238  0.14610000000000006  0.17576  1.0000
  H   H74       1.0  0.6441700000000002  0.3075  0.16492  1.0000
  H   H75       1.0  0.9153000000000003  0.3475900000000001  0.012509999999999999  1.0000
  H   H76       1.0  0.99578  0.18574  0.022809999999999993  1.0000
  C   C1        1.0  0.51531  0.335  0.36365  1.0000
  C   C2        1.0  0.49023000000000017  0.36013  0.29243  1.0000
  C   C3        1.0  0.4865  0.29592  0.26511  1.0000
  C   C4        1.0  0.51438  0.20796  0.30853  1.0000
  C   C5        1.0  0.5382800000000002  0.18820999999999996  0.37916  1.0000
  C   C6        1.0  0.45552999999999993  0.31818000000000013  0.1928  1.0000
  C   C7        1.0  0.47884000000000004  0.38448  0.12318  1.0000
  C   C8        1.0  0.4521299999999999  0.3996500000000001  0.05513  1.0000
  C   C9        1.0  0.38058999999999993  0.2906600000000001  0.12007  1.0000
  C   C10       1.0  0.40445  0.2714  0.19077999999999995  1.0000
  C   C11       1.0  0.58741  0.33296000000000003  0.56975  1.0000
  C   C12       1.0  0.63271  0.3829  0.58323  1.0000
  C   C13       1.0  0.67966  0.3442  0.64351  1.0000
  C   C14       1.0  0.72816  0.38754  0.65315  1.0000
  C   C15       1.0  0.7302599999999999  0.4712400000000002  0.60281  1.0000
  C   C16       1.0  0.68068  0.51044  0.54419  1.0000
  C   C17       1.0  0.63336  0.4669400000000001  0.53348  1.0000
  C   C18       1.0  0.7854400000000001  0.51763  0.60731  1.0000
  C   C19       1.0  0.8757699999999998  0.4717000000000002  0.61982  1.0000
  C   C20       1.0  0.93109  0.5167799999999999  0.61794  1.0000
  C   C21       1.0  0.89364  0.6094  0.60432  1.0000
  C   C22       1.0  0.8020600000000003  0.65694  0.59409  1.0000
  C   C23       1.0  0.7493499999999998  0.6097200000000002  0.59571  1.0000
  C   C24       1.0  0.027829999999999997  0.46746  0.62834  1.0000
  C   C25       1.0  0.08408  0.38602  0.60501  1.0000
  C   C26       1.0  0.17563999999999996  0.34007  0.61343  1.0000
  C   C27       1.0  0.21459000000000003  0.37457  0.64463  1.0000
  C   C28       1.0  0.15824999999999986  0.45483000000000023  0.6699  1.0000
  C   C29       1.0  0.06634999999999992  0.5002600000000003  0.66202  1.0000
  C   C30       1.0  0.31570000000000004  0.32814  0.6481  1.0000
  C   C31       1.0  0.7602100000000004  0.75429  0.58148  1.0000
  C   C32       1.0  0.7840099999999999  0.8013500000000002  0.61393  1.0000
  C   C33       1.0  0.7393899999999998  0.89236  0.60619  1.0000
  C   C34       1.0  0.6677400000000001  0.9389099999999999  0.56728  1.0000
  C   C35       1.0  0.6452700000000006  0.8931800000000001  0.5329099999999998  1.0000
  C   C36       1.0  0.6917999999999999  0.8027400000000001  0.53902  1.0000
  C   C37       1.0  0.61539  0.035750000000000004  0.56201  1.0000
  C   C38       1.0  0.5745699999999999  0.25645000000000007  0.8455  1.0000
  C   C39       1.0  0.67172  0.21039  0.85729  1.0000
  C   C40       1.0  0.7003499999999999  0.24005000000000004  0.90158  1.0000
  C   C41       1.0  0.7923400000000002  0.19797  0.91007  1.0000
  C   C42       1.0  0.8588200000000001  0.12610999999999997  0.87293  1.0000
  C   C43       1.0  0.8294899999999998  0.09735999999999999  0.82806  1.0000
  C   C44       1.0  0.7371200000000001  0.13813000000000009  0.82097  1.0000
  C   C45       1.0  0.9567500000000001  0.08002000000000001  0.88112  1.0000
  C   C46       1.0  0.009040000000000003  0.12542  0.88348  1.0000
  C   C47       1.0  0.1007  0.08010999999999999  0.89391  1.0000
  C   C48       1.0  0.14051999999999992  0.98865  0.90028  1.0000
  C   C49       1.0  0.09065999999999978  0.9420700000000003  0.89634  1.0000
  C   C50       1.0  0.9986299999999998  0.98842  0.88751  1.0000
  C   C51       1.0  0.15336000000000002  0.12711  0.90113  1.0000
  C   C52       1.0  0.15441000000000013  0.21092000000000002  0.85047  1.0000
  C   C53       1.0  0.20195000000000002  0.25577  0.85921  1.0000
  C   C54       1.0  0.24756000000000003  0.21884000000000003  0.9203  1.0000
  C   C55       1.0  0.24661999999999995  0.13531  0.97138  1.0000
  C   C56       1.0  0.20134000000000002  0.08955  0.9609  1.0000
  C   C57       1.0  0.29357  0.26948999999999995  0.93199  1.0000
  C   C58       1.0  0.13550999999999994  0.84596  0.90131  1.0000
  C   C59       1.0  0.23524999999999988  0.8100800000000002  0.86142  1.0000
  C   C60       1.0  0.2794499999999998  0.7196700000000003  0.86732  1.0000
  C   C61       1.0  0.22598999999999989  0.6621200000000003  0.91323  1.0000
  C   C62       1.0  0.12608999999999992  0.6973  0.95221  1.0000
  C   C63       1.0  0.0814600000000001  0.78815  0.94581  1.0000
  C   C64       1.0  0.27527999999999975  0.5650900000000004  0.91998  1.0000
  C   C65       1.0  0.4846899999999999  0.66501  0.63634  1.0000
  C   C66       1.0  0.5097699999999996  0.6398800000000001  0.70757  1.0000
  C   C67       1.0  0.5135000000000001  0.7040800000000003  0.73488  1.0000
  C   C68       1.0  0.4856100000000001  0.79204  0.69146  1.0000
  C   C69       1.0  0.46171999999999996  0.8118  0.62084  1.0000
  C   C70       1.0  0.54446  0.68182  0.8072  1.0000
  C   C71       1.0  0.5211599999999996  0.6155300000000004  0.87682  1.0000
  C   C72       1.0  0.5478700000000004  0.60036  0.94486  1.0000
  C   C73       1.0  0.6194100000000001  0.70935  0.87993  1.0000
  C   C74       1.0  0.5955500000000001  0.72861  0.80922  1.0000
  C   C75       1.0  0.41259  0.66705  0.43024  1.0000
  C   C76       1.0  0.36728999999999995  0.6171  0.41677  1.0000
  C   C77       1.0  0.32032999999999995  0.65581  0.35649  1.0000
  C   C78       1.0  0.2718400000000001  0.61246  0.34685  1.0000
  C   C79       1.0  0.2697399999999999  0.52877  0.39719  1.0000
  C   C80       1.0  0.3193199999999999  0.48956000000000016  0.4558  1.0000
  C   C81       1.0  0.36663000000000023  0.53306  0.46651  1.0000
  C   C82       1.0  0.21455999999999997  0.48238000000000003  0.39269  1.0000
  C   C83       1.0  0.12423000000000003  0.5283  0.38018  1.0000
  C   C84       1.0  0.06891  0.48323  0.38206  1.0000
  C   C85       1.0  0.10635999999999997  0.3906100000000001  0.39568  1.0000
  C   C86       1.0  0.1979300000000002  0.34306  0.4059  1.0000
  C   C87       1.0  0.25064999999999993  0.39029000000000014  0.40429  1.0000
  C   C88       1.0  0.97217  0.53254  0.37166  1.0000
  C   C89       1.0  0.9159199999999997  0.61399  0.39499  1.0000
  C   C90       1.0  0.82436  0.65994  0.38656  1.0000
  C   C91       1.0  0.78541  0.62544  0.35537  1.0000
  C   C92       1.0  0.84175  0.54518  0.3301  1.0000
  C   C93       1.0  0.93365  0.49974  0.33798  1.0000
  C   C94       1.0  0.6843  0.67187  0.35189  1.0000
  C   C95       1.0  0.23978999999999998  0.24571  0.41852  1.0000
  C   C96       1.0  0.21597999999999998  0.19865999999999998  0.38606  1.0000
  C   C97       1.0  0.26059999999999994  0.10764000000000001  0.3938  1.0000
  C   C98       1.0  0.33225999999999994  0.06110000000000002  0.43272  1.0000
  C   C99       1.0  0.35473  0.10682  0.46709  1.0000
  C   C100      1.0  0.3082  0.19727000000000006  0.46097  1.0000
  C   C101      1.0  0.38459999999999983  0.9642600000000001  0.43799  1.0000
  C   C102      1.0  0.42541999999999996  0.7435500000000002  0.15449  1.0000
  C   C103      1.0  0.32828  0.78962  0.14271  1.0000
  C   C104      1.0  0.2996500000000002  0.75996  0.09841  1.0000
  C   C105      1.0  0.20765999999999987  0.8020300000000002  0.08993  1.0000
  C   C106      1.0  0.14117999999999992  0.8739000000000002  0.12707  1.0000
  C   C107      1.0  0.17050999999999994  0.9026400000000001  0.17194  1.0000
  C   C108      1.0  0.26287  0.86187  0.17902  1.0000
  C   C109      1.0  0.04324  0.91998  0.11887  1.0000
  C   C110      1.0  0.9909599999999994  0.8745800000000002  0.11652  1.0000
  C   C111      1.0  0.8992999999999999  0.91989  0.10609  1.0000
  C   C112      1.0  0.85948  0.011349999999999999  0.09972  1.0000
  C   C113      1.0  0.90934  0.05794  0.10366  1.0000
  C   C114      1.0  0.001360000000000001  0.011590000000000005  0.11249  1.0000
  C   C115      1.0  0.8466399999999998  0.8728900000000003  0.09887  1.0000
  C   C116      1.0  0.8455900000000001  0.78909  0.14953  1.0000
  C   C117      1.0  0.79805  0.74424  0.14079  1.0000
  C   C118      1.0  0.7524400000000002  0.78117  0.0797  1.0000
  C   C119      1.0  0.7533799999999998  0.8647000000000002  0.028619999999999993  1.0000
  C   C120      1.0  0.79866  0.91046  0.03909  1.0000
  C   C121      1.0  0.7064299999999999  0.73051  0.06801  1.0000
  C   C122      1.0  0.8644900000000001  0.15404  0.09868  1.0000
  C   C123      1.0  0.7647500000000004  0.18993  0.13858  1.0000
  C   C124      1.0  0.7205500000000002  0.28034  0.13267  1.0000
  C   C125      1.0  0.7740100000000002  0.33788  0.08676  1.0000
  C   C126      1.0  0.8739100000000001  0.30270000000000014  0.04779  1.0000
  C   C127      1.0  0.9185400000000001  0.21185  0.05418  1.0000
  C   C128      1.0  0.72472  0.43491  0.08002  1.0000
  N   N1        1.0  0.53628  0.25074  0.40795  1.0000
  N   N2        1.0  0.40437  0.3536400000000001  0.05303  1.0000
  N   N3        1.0  0.46371999999999985  0.74927  0.59204  1.0000
  N   N4        1.0  0.5956199999999999  0.6463600000000003  0.94697  1.0000
  O   O1        1.0  0.57167  0.35173  0.50262  1.0000
  O   O2        1.0  0.56777  0.26606  0.62915  1.0000
  O   O3        1.0  0.3413499999999999  0.3610200000000002  0.68452  1.0000
  O   O4        1.0  0.36804000000000014  0.26191  0.61503  1.0000
  O   O5        1.0  0.65394  0.08147  0.57036  1.0000
  O   O6        1.0  0.5340500000000002  0.06998000000000006  0.5486399999999998  1.0000
  O   O7        1.0  0.5491199999999999  0.21405000000000007  0.81816  1.0000
  O   O8        1.0  0.52601  0.33335  0.85933  1.0000
  O   O9        1.0  0.32200999999999996  0.32964999999999994  0.86754  1.0000
  O   O10       1.0  0.3025999999999999  0.2578800000000001  0.00029  1.0000
  O   O11       1.0  0.22463000000000008  0.5142  0.95663  1.0000
  O   O12       1.0  0.36824999999999997  0.53505  0.88879  1.0000
  O   O13       1.0  0.42832999999999993  0.6482800000000002  0.49738  1.0000
  O   O14       1.0  0.43222  0.73395  0.37084  1.0000
  O   O15       1.0  0.6586499999999996  0.63899  0.31548  1.0000
  O   O16       1.0  0.63195  0.73809  0.38497  1.0000
  O   O17       1.0  0.34604999999999997  0.91853  0.42963  1.0000
  O   O18       1.0  0.46595000000000036  0.93002  0.45136  1.0000
  O   O19       1.0  0.45088  0.78596  0.18184  1.0000
  O   O20       1.0  0.47398999999999997  0.6666600000000003  0.14067  1.0000
  O   O21       1.0  0.6779900000000001  0.67036  0.13245  1.0000
  O   O22       1.0  0.6974000000000001  0.7421200000000002  0.9996999999999999  1.0000
  O   O23       1.0  0.77536  0.4858  0.04337  1.0000
  O   O24       1.0  0.6317399999999999  0.4649600000000001  0.11121  1.0000
