data_image0
_chemical_formula_structural       Ni8H96C144N16O32
_chemical_formula_sum              "Ni8 H96 C144 N16 O32"
_cell_length_a       9.99153
_cell_length_b       14.14792
_cell_length_c       27.810479999999995
_cell_angle_alpha    90.00155
_cell_angle_beta     89.99908
_cell_angle_gamma    103.38034

_symmetry_space_group_name_H-M    'P 1'
_symmetry_Int_Tables_number       1

loop_
  _symmetry_equiv_pos_as_xyz
  'x,y,z'

loop_
  _atom_site_type_symbol
  _atom_site_label
  _atom_site_symmetry_multiplicity
  _atom_site_fract_x
  _atom_site_fract_y
  _atom_site_fract_z
  _atom_site_occupancy
  Ni  Ni1       1.0  0.19569999999999999  0.8274  0.49499  1.0000
  Ni  Ni2       1.0  0.778  0.50141  0.3339800000000001  1.0000
  Ni  Ni3       1.0  0.30429999999999996  0.17261  0.9950100000000002  1.0000
  Ni  Ni4       1.0  0.72201  0.4986200000000001  0.8339800000000003  1.0000
  Ni  Ni5       1.0  0.80421  0.17269  0.50503  1.0000
  Ni  Ni6       1.0  0.22198  0.4986000000000001  0.6660200000000002  1.0000
  Ni  Ni7       1.0  0.69575  0.8273400000000002  0.005  1.0000
  Ni  Ni8       1.0  0.27799999999999997  0.50138  0.16602000000000003  1.0000
  H   H1        1.0  0.35099  0.72185  0.32326  1.0000
  H   H2        1.0  0.31143  0.74058  0.2339  1.0000
  H   H3        1.0  0.14063000000000006  0.83026  0.20749  1.0000
  H   H4        1.0  0.9895299999999998  0.88419  0.26802  1.0000
  H   H5        1.0  0.01744  0.00294  0.34741  1.0000
  H   H6        1.0  0.83461  0.03469  0.40106000000000014  1.0000
  H   H7        1.0  0.6847600000000001  0.8981700000000002  0.44659  1.0000
  H   H8        1.0  0.7110600000000001  0.7299700000000002  0.43465  1.0000
  H   H9        1.0  0.3961799999999999  0.2293  0.37013  1.0000
  H   H10       1.0  0.28488  0.05444  0.35198  1.0000
  H   H11       1.0  0.43210999999999994  0.9442600000000002  0.32466  1.0000
  H   H12       1.0  0.68504  0.0065000000000000014  0.31929  1.0000
  H   H13       1.0  0.8105799999999999  0.13116  0.26045  1.0000
  H   H14       1.0  0.057609999999999995  0.16506  0.24123  1.0000
  H   H15       1.0  0.23162000000000002  0.23691000000000006  0.30398000000000003  1.0000
  H   H16       1.0  0.14971  0.27342  0.38546  1.0000
  H   H17       1.0  0.92223  0.8455700000000003  0.54118  1.0000
  H   H18       1.0  0.20882  0.023050000000000008  0.45271  1.0000
  H   H19       1.0  0.40236  0.9369400000000002  0.42316000000000004  1.0000
  H   H20       1.0  0.38355000000000006  0.9267100000000003  0.57234  1.0000
  H   H21       1.0  0.55892  0.6055500000000003  0.3192600000000001  1.0000
  H   H22       1.0  0.8846199999999999  0.61692  0.24544  1.0000
  H   H23       1.0  0.001089999999999986  0.39697  0.32225000000000004  1.0000
  H   H24       1.0  0.67662  0.38659  0.24208000000000005  1.0000
  H   H25       1.0  0.14902  0.27816  0.82327  1.0000
  H   H26       1.0  0.18856999999999996  0.25941  0.7339100000000002  1.0000
  H   H27       1.0  0.3593699999999999  0.16974000000000003  0.70749  1.0000
  H   H28       1.0  0.51048  0.11582  0.7680200000000003  1.0000
  H   H29       1.0  0.48258  0.99706  0.84741  1.0000
  H   H30       1.0  0.6654  0.96532  0.90106  1.0000
  H   H31       1.0  0.8152499999999999  0.10185  0.9465800000000001  1.0000
  H   H32       1.0  0.7889399999999999  0.27004  0.93465  1.0000
  H   H33       1.0  0.10374000000000003  0.77065  0.8700900000000003  1.0000
  H   H34       1.0  0.2150900000000001  0.9455100000000002  0.85196  1.0000
  H   H35       1.0  0.06786999999999999  0.055740000000000005  0.82468  1.0000
  H   H36       1.0  0.81488  0.9935200000000002  0.8193500000000002  1.0000
  H   H37       1.0  0.6895099999999997  0.86886  0.76044  1.0000
  H   H38       1.0  0.44249  0.83498  0.74118  1.0000
  H   H39       1.0  0.2684200000000001  0.7631200000000002  0.8039  1.0000
  H   H40       1.0  0.35023  0.7267300000000002  0.8854200000000002  1.0000
  H   H41       1.0  0.57782  0.15446  0.04119  1.0000
  H   H42       1.0  0.29114  0.97699  0.95274  1.0000
  H   H43       1.0  0.09771  0.06309000000000001  0.9231600000000002  1.0000
  H   H44       1.0  0.11641  0.07324  0.07235  1.0000
  H   H45       1.0  0.941  0.39447  0.8192400000000002  1.0000
  H   H46       1.0  0.61544  0.38307  0.74543  1.0000
  H   H47       1.0  0.4989199999999999  0.6030300000000001  0.82223  1.0000
  H   H48       1.0  0.82333  0.6134200000000002  0.7420400000000003  1.0000
  H   H49       1.0  0.6489899999999998  0.27814  0.67675  1.0000
  H   H50       1.0  0.68856  0.25941  0.76612  1.0000
  H   H51       1.0  0.8593699999999999  0.16973000000000005  0.79252  1.0000
  H   H52       1.0  0.010460000000000007  0.11580000000000003  0.7319900000000003  1.0000
  H   H53       1.0  0.98253  0.99705  0.65257  1.0000
  H   H54       1.0  0.16536999999999993  0.96531  0.59893  1.0000
  H   H55       1.0  0.31523  0.10182  0.5534000000000001  1.0000
  H   H56       1.0  0.28896  0.27003  0.56535  1.0000
  H   H57       1.0  0.60376  0.7707  0.62988  1.0000
  H   H58       1.0  0.71506  0.94556  0.64801  1.0000
  H   H59       1.0  0.5678599999999999  0.05576  0.6753600000000002  1.0000
  H   H60       1.0  0.31490000000000007  0.9934900000000002  0.6807300000000002  1.0000
  H   H61       1.0  0.18963  0.86883  0.7395900000000002  1.0000
  H   H62       1.0  0.9426100000000001  0.8350100000000001  0.7588700000000002  1.0000
  H   H63       1.0  0.7685  0.7631600000000002  0.6961500000000002  1.0000
  H   H64       1.0  0.85033  0.72685  0.61461  1.0000
  H   H65       1.0  0.0777  0.15459  0.45875  1.0000
  H   H66       1.0  0.7911500000000001  0.9771  0.54725  1.0000
  H   H67       1.0  0.59769  0.063  0.57688  1.0000
  H   H68       1.0  0.61652  0.07325  0.4277  1.0000
  H   H69       1.0  0.44108  0.39445  0.6807400000000002  1.0000
  H   H70       1.0  0.11538  0.38307  0.75456  1.0000
  H   H71       1.0  0.9988799999999999  0.603  0.67775  1.0000
  H   H72       1.0  0.32338  0.6134200000000002  0.75792  1.0000
  H   H73       1.0  0.8509999999999999  0.72184  0.17673000000000005  1.0000
  H   H74       1.0  0.8114399999999999  0.74059  0.2661  1.0000
  H   H75       1.0  0.6406299999999999  0.83026  0.29251  1.0000
  H   H76       1.0  0.48952999999999997  0.88418  0.23198000000000005  1.0000
  H   H77       1.0  0.51744  0.0029500000000000004  0.15257  1.0000
  H   H78       1.0  0.33460999999999996  0.03468  0.09893000000000002  1.0000
  H   H79       1.0  0.18474999999999997  0.89816  0.05341000000000001  1.0000
  H   H80       1.0  0.21104999999999996  0.72996  0.06535  1.0000
  H   H81       1.0  0.8963  0.22935  0.12992  1.0000
  H   H82       1.0  0.78495  0.05449000000000001  0.14804000000000006  1.0000
  H   H83       1.0  0.93215  0.9442600000000002  0.17534  1.0000
  H   H84       1.0  0.18516  0.006490000000000002  0.18067  1.0000
  H   H85       1.0  0.31039  0.13117  0.23959000000000005  1.0000
  H   H86       1.0  0.5574  0.165  0.25887  1.0000
  H   H87       1.0  0.7315299999999999  0.23684  0.19616000000000003  1.0000
  H   H88       1.0  0.64975  0.27311  0.11461000000000003  1.0000
  H   H89       1.0  0.42221999999999993  0.84545  0.9587700000000002  1.0000
  H   H90       1.0  0.70888  0.02292  0.04724  1.0000
  H   H91       1.0  0.90226  0.9369400000000002  0.07685  1.0000
  H   H92       1.0  0.8835600000000001  0.9267800000000002  0.92767  1.0000
  H   H93       1.0  0.05899999999999998  0.60553  0.18077  1.0000
  H   H94       1.0  0.38457  0.61694  0.25457  1.0000
  H   H95       1.0  0.5011  0.39698  0.17777000000000007  1.0000
  H   H96       1.0  0.17666  0.3865600000000001  0.25796  1.0000
  C   C1        1.0  0.23089999999999994  0.78327  0.39655  1.0000
  C   C2        1.0  0.18756000000000006  0.7863300000000001  0.34449  1.0000
  C   C3        1.0  0.26996  0.75484  0.30986  1.0000
  C   C4        1.0  0.25055  0.76736  0.26085  1.0000
  C   C5        1.0  0.15253000000000005  0.8172900000000001  0.24571000000000007  1.0000
  C   C6        1.0  0.06857  0.84772  0.27962  1.0000
  C   C7        1.0  0.07937999999999999  0.82848  0.32894  1.0000
  C   C8        1.0  0.97227  0.8489500000000002  0.36189  1.0000
  C   C9        1.0  0.9518599999999999  0.94314  0.36709  1.0000
  C   C10       1.0  0.84894  0.9612200000000001  0.39742  1.0000
  C   C11       1.0  0.7650999999999999  0.8850800000000002  0.42295  1.0000
  C   C12       1.0  0.78062  0.7903400000000003  0.4168  1.0000
  C   C13       1.0  0.88205  0.77178  0.38599  1.0000
  C   C14       1.0  0.8692599999999999  0.6675500000000001  0.37219000000000013  1.0000
  C   C15       1.0  0.6499799999999999  0.32416  0.3582300000000001  1.0000
  C   C16       1.0  0.59947  0.21578  0.35418  1.0000
  C   C17       1.0  0.4571799999999999  0.17848  0.35913  1.0000
  C   C18       1.0  0.3958499999999999  0.0815  0.3488900000000001  1.0000
  C   C19       1.0  0.47835999999999995  0.01975  0.33363  1.0000
  C   C20       1.0  0.62073  0.05519  0.33023000000000013  1.0000
  C   C21       1.0  0.68454  0.15282  0.3406700000000001  1.0000
  C   C22       1.0  0.8369599999999999  0.18218000000000006  0.33356  1.0000
  C   C23       1.0  0.8852  0.16227000000000003  0.28798  1.0000
  C   C24       1.0  0.02516999999999999  0.18145  0.27699  1.0000
  C   C25       1.0  0.12204  0.22175000000000006  0.31193  1.0000
  C   C26       1.0  0.07677000000000002  0.24199000000000007  0.35743  1.0000
  C   C27       1.0  0.9360299999999999  0.22233  0.3690800000000001  1.0000
  C   C28       1.0  0.09682999999999994  0.76419  0.57911  1.0000
  C   C29       1.0  0.9572399999999999  0.91514  0.52313  1.0000
  C   C30       1.0  0.11593  0.01262  0.4743  1.0000
  C   C31       1.0  0.4455299999999999  0.96575  0.4574200000000001  1.0000
  C   C32       1.0  0.43613999999999997  0.95994  0.54021  1.0000
  C   C33       1.0  0.54458  0.55882  0.28775000000000006  1.0000
  C   C34       1.0  0.9499  0.56541  0.24786000000000005  1.0000
  C   C35       1.0  0.015830000000000007  0.4441  0.2909000000000001  1.0000
  C   C36       1.0  0.6113399999999999  0.43811  0.24461000000000002  1.0000
  C   C37       1.0  0.26910999999999996  0.21673000000000003  0.8965600000000001  1.0000
  C   C38       1.0  0.31243999999999994  0.21366  0.84449  1.0000
  C   C39       1.0  0.23004  0.24516  0.80987  1.0000
  C   C40       1.0  0.24944999999999998  0.23264000000000004  0.76086  1.0000
  C   C41       1.0  0.34748  0.18271  0.74571  1.0000
  C   C42       1.0  0.43143999999999993  0.15228  0.77962  1.0000
  C   C43       1.0  0.42061  0.17151000000000005  0.82895  1.0000
  C   C44       1.0  0.52773  0.15105000000000005  0.8619  1.0000
  C   C45       1.0  0.54814  0.056860000000000015  0.86709  1.0000
  C   C46       1.0  0.65106  0.03878000000000001  0.89743  1.0000
  C   C47       1.0  0.73489  0.11493000000000003  0.9229500000000002  1.0000
  C   C48       1.0  0.71938  0.20967  0.9168  1.0000
  C   C49       1.0  0.61794  0.22823  0.88599  1.0000
  C   C50       1.0  0.6307399999999997  0.33246  0.87219  1.0000
  C   C51       1.0  0.8499799999999998  0.6758500000000002  0.85826  1.0000
  C   C52       1.0  0.9004799999999998  0.7842300000000002  0.85419  1.0000
  C   C53       1.0  0.04278000000000002  0.8215100000000001  0.8591  1.0000
  C   C54       1.0  0.10412000000000007  0.9184700000000002  0.84885  1.0000
  C   C55       1.0  0.02161000000000002  0.98023  0.83361  1.0000
  C   C56       1.0  0.87923  0.94482  0.83023  1.0000
  C   C57       1.0  0.81542  0.8471900000000002  0.8406600000000002  1.0000
  C   C58       1.0  0.66301  0.8178600000000001  0.8335500000000001  1.0000
  C   C59       1.0  0.61484  0.83776  0.78796  1.0000
  C   C60       1.0  0.47490000000000004  0.8185900000000003  0.7769400000000002  1.0000
  C   C61       1.0  0.37799000000000005  0.7783  0.81187  1.0000
  C   C62       1.0  0.42318999999999996  0.75811  0.8573900000000001  1.0000
  C   C63       1.0  0.5639  0.77777  0.8690700000000002  1.0000
  C   C64       1.0  0.40318999999999994  0.23581  0.07912  1.0000
  C   C65       1.0  0.54278  0.08489000000000002  0.02314  1.0000
  C   C66       1.0  0.38404  0.9874200000000001  0.97432  1.0000
  C   C67       1.0  0.054509999999999996  0.03426  0.95742  1.0000
  C   C68       1.0  0.06384  0.04003  0.04021  1.0000
  C   C69       1.0  0.9553699999999999  0.44121000000000005  0.78773  1.0000
  C   C70       1.0  0.55015  0.4345700000000001  0.74784  1.0000
  C   C71       1.0  0.4842  0.55589  0.79088  1.0000
  C   C72       1.0  0.88862  0.5619  0.74459  1.0000
  C   C73       1.0  0.76911  0.21672000000000005  0.60347  1.0000
  C   C74       1.0  0.81243  0.21367  0.65553  1.0000
  C   C75       1.0  0.73002  0.24517  0.6901600000000001  1.0000
  C   C76       1.0  0.7494400000000001  0.23265000000000002  0.7391700000000001  1.0000
  C   C77       1.0  0.8474699999999998  0.18271  0.7543100000000003  1.0000
  C   C78       1.0  0.93143  0.15228  0.72039  1.0000
  C   C79       1.0  0.9206199999999999  0.17153000000000002  0.67107  1.0000
  C   C80       1.0  0.027720000000000015  0.15105000000000005  0.6381100000000001  1.0000
  C   C81       1.0  0.048119999999999996  0.056850000000000005  0.6329  1.0000
  C   C82       1.0  0.15104  0.03878000000000001  0.60257  1.0000
  C   C83       1.0  0.23489999999999997  0.11492  0.5770400000000002  1.0000
  C   C84       1.0  0.21938999999999997  0.20966  0.5832  1.0000
  C   C85       1.0  0.11795999999999998  0.22822  0.61401  1.0000
  C   C86       1.0  0.13075000000000003  0.33244000000000007  0.62781  1.0000
  C   C87       1.0  0.34994000000000003  0.6758500000000002  0.6417600000000001  1.0000
  C   C88       1.0  0.40047  0.7842200000000003  0.6458300000000002  1.0000
  C   C89       1.0  0.5427600000000001  0.8215300000000002  0.64088  1.0000
  C   C90       1.0  0.60409  0.9185000000000002  0.6511200000000003  1.0000
  C   C91       1.0  0.5216099999999999  0.9802600000000001  0.66639  1.0000
  C   C92       1.0  0.37924  0.94483  0.6697900000000002  1.0000
  C   C93       1.0  0.3154500000000001  0.8472000000000002  0.65935  1.0000
  C   C94       1.0  0.16307  0.8179  0.66648  1.0000
  C   C95       1.0  0.11493000000000005  0.8377700000000002  0.71208  1.0000
  C   C96       1.0  0.97499  0.81862  0.72311  1.0000
  C   C97       1.0  0.8780699999999999  0.77836  0.68818  1.0000
  C   C98       1.0  0.92325  0.75821  0.64265  1.0000
  C   C99       1.0  0.06391999999999996  0.77784  0.63096  1.0000
  C   C100      1.0  0.90286  0.23581  0.42091  1.0000
  C   C101      1.0  0.042720000000000015  0.08503000000000002  0.47682  1.0000
  C   C102      1.0  0.8840400000000002  0.9875500000000003  0.52566  1.0000
  C   C103      1.0  0.5545  0.0342  0.54261  1.0000
  C   C104      1.0  0.5638899999999999  0.04001000000000001  0.45982  1.0000
  C   C105      1.0  0.4554099999999999  0.4411900000000001  0.71225  1.0000
  C   C106      1.0  0.05010000000000004  0.4345700000000001  0.75214  1.0000
  C   C107      1.0  0.98414  0.5558700000000001  0.7091  1.0000
  C   C108      1.0  0.38867  0.5619  0.75538  1.0000
  C   C109      1.0  0.7309  0.78327  0.10345  1.0000
  C   C110      1.0  0.68757  0.7863300000000001  0.15552000000000005  1.0000
  C   C111      1.0  0.76997  0.75483  0.19014  1.0000
  C   C112      1.0  0.75056  0.7673500000000002  0.23915  1.0000
  C   C113      1.0  0.6525300000000002  0.8172800000000002  0.25429  1.0000
  C   C114      1.0  0.56856  0.8477100000000001  0.22038  1.0000
  C   C115      1.0  0.57939  0.82848  0.17106  1.0000
  C   C116      1.0  0.47228000000000003  0.8489500000000002  0.1381  1.0000
  C   C117      1.0  0.45188  0.94314  0.1329  1.0000
  C   C118      1.0  0.34895000000000004  0.9612200000000001  0.10257000000000002  1.0000
  C   C119      1.0  0.26511000000000007  0.8850700000000002  0.07705000000000002  1.0000
  C   C120      1.0  0.2806199999999999  0.79033  0.08320000000000001  1.0000
  C   C121      1.0  0.38205  0.7717700000000002  0.11401000000000001  1.0000
  C   C122      1.0  0.3692600000000001  0.6675400000000002  0.12781  1.0000
  C   C123      1.0  0.15007000000000004  0.3241500000000001  0.14174  1.0000
  C   C124      1.0  0.09955999999999998  0.21577  0.14582  1.0000
  C   C125      1.0  0.9572599999999999  0.17849000000000007  0.14091  1.0000
  C   C126      1.0  0.89591  0.08153  0.15117  1.0000
  C   C127      1.0  0.97841  0.01976  0.16641  1.0000
  C   C128      1.0  0.12078999999999998  0.055180000000000014  0.16979  1.0000
  C   C129      1.0  0.18459  0.15280000000000002  0.15935000000000002  1.0000
  C   C130      1.0  0.33697999999999995  0.1821  0.16647  1.0000
  C   C131      1.0  0.3851  0.16223  0.21207000000000006  1.0000
  C   C132      1.0  0.5250299999999999  0.18138  0.22311  1.0000
  C   C133      1.0  0.62197  0.22164000000000006  0.18818  1.0000
  C   C134      1.0  0.57681  0.24177000000000007  0.14265  1.0000
  C   C135      1.0  0.43613999999999997  0.22215000000000001  0.13096  1.0000
  C   C136      1.0  0.5969899999999999  0.76422  0.9209  1.0000
  C   C137      1.0  0.4572399999999999  0.91501  0.9768300000000002  1.0000
  C   C138      1.0  0.6159699999999999  0.012480000000000002  0.02566  1.0000
  C   C139      1.0  0.9454799999999999  0.9657700000000002  0.0426  1.0000
  C   C140      1.0  0.9361499999999999  0.9600000000000002  0.9598100000000003  1.0000
  C   C141      1.0  0.044629999999999996  0.55878  0.21227000000000004  1.0000
  C   C142      1.0  0.44985  0.56544  0.25215  1.0000
  C   C143      1.0  0.51581  0.44412  0.20912000000000003  1.0000
  C   C144      1.0  0.11137  0.43808000000000014  0.25541  1.0000
  N   N1        1.0  0.07496  0.92781  0.49782  1.0000
  N   N2        1.0  0.38077  0.92591  0.49754000000000004  1.0000
  N   N3        1.0  0.62595  0.4952900000000001  0.2838  1.0000
  N   N4        1.0  0.9348  0.50783  0.28695  1.0000
  N   N5        1.0  0.4250399999999999  0.07224  0.9978400000000002  1.0000
  N   N6        1.0  0.11924  0.07408  0.9975500000000003  1.0000
  N   N7        1.0  0.87401  0.5047500000000001  0.78379  1.0000
  N   N8        1.0  0.56523  0.49216  0.78693  1.0000
  N   N9        1.0  0.92502  0.07237000000000002  0.50215  1.0000
  N   N10       1.0  0.6192299999999998  0.07406  0.50249  1.0000
  N   N11       1.0  0.37404  0.5047200000000001  0.7162  1.0000
  N   N12       1.0  0.06518  0.49215  0.71305  1.0000
  N   N13       1.0  0.5749699999999999  0.92767  0.00214  1.0000
  N   N14       1.0  0.8807699999999999  0.9259300000000003  0.0024700000000000004  1.0000
  N   N15       1.0  0.12599000000000002  0.4952400000000001  0.21622  1.0000
  N   N16       1.0  0.43477999999999994  0.50785  0.21306000000000005  1.0000
  O   O1        1.0  0.16005  0.82337  0.4267  1.0000
  O   O2        1.0  0.33347999999999994  0.7519200000000001  0.4074400000000001  1.0000
  O   O3        1.0  0.7866799999999998  0.64342  0.33568  1.0000
  O   O4        1.0  0.9201799999999998  0.60557  0.39297  1.0000
  O   O5        1.0  0.7713599999999999  0.36103  0.34056  1.0000
  O   O6        1.0  0.57394  0.37639  0.37389  1.0000
  O   O7        1.0  0.21984999999999996  0.80558  0.56423  1.0000
  O   O8        1.0  0.005310000000000076  0.7242000000000002  0.54992  1.0000
  O   O9        1.0  0.33995  0.17664  0.9267100000000003  1.0000
  O   O10       1.0  0.16652  0.24809  0.90745  1.0000
  O   O11       1.0  0.71336  0.35659  0.8356900000000003  1.0000
  O   O12       1.0  0.57978  0.39445  0.89295  1.0000
  O   O13       1.0  0.7286399999999997  0.63899  0.8405500000000001  1.0000
  O   O14       1.0  0.9259599999999999  0.62361  0.8739400000000002  1.0000
  O   O15       1.0  0.28016  0.19441000000000005  0.06424  1.0000
  O   O16       1.0  0.49467  0.27583  0.04993  1.0000
  O   O17       1.0  0.83995  0.17661000000000004  0.57333  1.0000
  O   O18       1.0  0.6665399999999999  0.24809  0.5925600000000002  1.0000
  O   O19       1.0  0.21333  0.35658000000000006  0.66432  1.0000
  O   O20       1.0  0.07982000000000003  0.39443000000000006  0.60703  1.0000
  O   O21       1.0  0.22852  0.63896  0.65941  1.0000
  O   O22       1.0  0.42600999999999994  0.6236200000000002  0.62612  1.0000
  O   O23       1.0  0.77986  0.19426000000000004  0.43574  1.0000
  O   O24       1.0  0.99423  0.27584  0.45014  1.0000
  O   O25       1.0  0.66006  0.82338  0.07331000000000003  1.0000
  O   O26       1.0  0.83347  0.75191  0.09255000000000002  1.0000
  O   O27       1.0  0.28663999999999995  0.64341  0.16431  1.0000
  O   O28       1.0  0.42022  0.6055600000000001  0.10704  1.0000
  O   O29       1.0  0.27143  0.36102000000000006  0.15944  1.0000
  O   O30       1.0  0.07407  0.37639  0.12606  1.0000
  O   O31       1.0  0.7200199999999999  0.8056700000000002  0.9357400000000002  1.0000
  O   O32       1.0  0.50558  0.72421  0.95012  1.0000
