data_image0
_chemical_formula_structural       Zn16H80C128N48O32
_chemical_formula_sum              "Zn16 H80 C128 N48 O32"
_cell_length_a       13.47603
_cell_length_b       13.4859
_cell_length_c       27.47887
_cell_angle_alpha    90.0
_cell_angle_beta     90.0
_cell_angle_gamma    91.71792

_space_group_name_H-M_alt    "P 1"
_space_group_IT_number       1

loop_
  _space_group_symop_operation_xyz
  'x, y, z'

loop_
  _atom_site_type_symbol
  _atom_site_label
  _atom_site_symmetry_multiplicity
  _atom_site_fract_x
  _atom_site_fract_y
  _atom_site_fract_z
  _atom_site_occupancy
  Zn  Zn1       1.0  0.32192  0.31943  0.6901899999999997  1.0000
  Zn  Zn2       1.0  0.7488399999999997  0.21193  0.70017  1.0000
  Zn  Zn3       1.0  0.6780799999999998  0.6805699999999999  0.30981  1.0000
  Zn  Zn4       1.0  0.15240999999999993  0.27613  0.7970899999999997  1.0000
  Zn  Zn5       1.0  0.17808  0.18055999999999997  0.19019  1.0000
  Zn  Zn6       1.0  0.7825599999999999  0.11862  0.3083  1.0000
  Zn  Zn7       1.0  0.75116  0.28806  0.20017  1.0000
  Zn  Zn8       1.0  0.24884  0.71193  0.79983  1.0000
  Zn  Zn9       1.0  0.3475899999999999  0.22387  0.2970899999999999  1.0000
  Zn  Zn10      1.0  0.8219199999999999  0.81944  0.80981  1.0000
  Zn  Zn11      1.0  0.6524099999999999  0.77613  0.7028999999999999  1.0000
  Zn  Zn12      1.0  0.8475899999999997  0.72387  0.2029  1.0000
  Zn  Zn13      1.0  0.71745  0.38138000000000005  0.8083  1.0000
  Zn  Zn14      1.0  0.21743999999999997  0.88138  0.6917  1.0000
  Zn  Zn15      1.0  0.25115999999999994  0.78806  0.2998299999999999  1.0000
  Zn  Zn16      1.0  0.28256  0.61862  0.1917  1.0000
  H   H1        1.0  0.68698  0.90995  0.34415  1.0000
  H   H2        1.0  0.7252399999999998  0.13843  0.08328999999999998  1.0000
  H   H3        1.0  0.03474999999999999  0.31544  0.9669799999999997  1.0000
  H   H4        1.0  0.2968199999999999  0.00695  0.53202  1.0000
  H   H5        1.0  0.3099299999999999  0.98245  0.44241  1.0000
  H   H6        1.0  0.47296  0.38514  0.79187  1.0000
  H   H7        1.0  0.6367899999999997  0.53325  0.7203599999999998  1.0000
  H   H8        1.0  0.0017300000000000032  0.67004  0.57928  1.0000
  H   H9        1.0  0.29278999999999994  0.81461  0.09594999999999997  1.0000
  H   H10       1.0  0.50173  0.17004  0.92072  1.0000
  H   H11       1.0  0.528  0.14076  0.00909  1.0000
  H   H12       1.0  0.18917999999999993  0.51697  0.56056  1.0000
  H   H13       1.0  0.19735999999999995  0.49348000000000003  0.4707299999999999  1.0000
  H   H14       1.0  0.46925  0.75954  0.3405099999999999  1.0000
  H   H15       1.0  0.33819  0.22317  0.8911  1.0000
  H   H16       1.0  0.66181  0.77683  0.10889999999999997  1.0000
  H   H17       1.0  0.7927899999999998  0.31461  0.4040499999999999  1.0000
  H   H18       1.0  0.69736  0.99348  0.029259999999999994  1.0000
  H   H19       1.0  0.6091  0.83686  0.9325  1.0000
  H   H20       1.0  0.55309  0.14113  0.34377999999999986  1.0000
  H   H21       1.0  0.053089999999999984  0.64113  0.15622  1.0000
  H   H22       1.0  0.8196  0.06646  0.7963499999999999  1.0000
  H   H23       1.0  0.47199999999999986  0.85924  0.9908999999999998  1.0000
  H   H24       1.0  0.00837  0.77999  0.29151999999999995  1.0000
  H   H25       1.0  0.9692599999999998  0.25954  0.15948999999999994  1.0000
  H   H26       1.0  0.8632099999999998  0.96675  0.22035999999999994  1.0000
  H   H27       1.0  0.8099299999999999  0.48245  0.057589999999999995  1.0000
  H   H28       1.0  0.31302  0.09005  0.65585  1.0000
  H   H29       1.0  0.4652499999999999  0.18456  0.4669899999999999  1.0000
  H   H30       1.0  0.8381899999999998  0.7231700000000001  0.6089  1.0000
  H   H31       1.0  0.3908999999999999  0.16314  0.0675  1.0000
  H   H32       1.0  0.44595000000000007  0.23086  0.55405  1.0000
  H   H33       1.0  0.97296  0.8851399999999999  0.7081299999999998  1.0000
  H   H34       1.0  0.027039999999999995  0.11486  0.2918699999999999  1.0000
  H   H35       1.0  0.97201  0.35924  0.50909  1.0000
  H   H36       1.0  0.70318  0.99305  0.46797  1.0000
  H   H37       1.0  0.6804  0.43354  0.29635  1.0000
  H   H38       1.0  0.94595  0.73086  0.94595  1.0000
  H   H39       1.0  0.22524000000000002  0.63843  0.4167099999999999  1.0000
  H   H40       1.0  0.36321  0.46675  0.27964  1.0000
  H   H41       1.0  0.5307499999999999  0.24045  0.65949  1.0000
  H   H42       1.0  0.4916299999999999  0.72001  0.7915199999999998  1.0000
  H   H43       1.0  0.6891899999999999  0.01697  0.9394399999999998  1.0000
  H   H44       1.0  0.99827  0.32996  0.42071999999999987  1.0000
  H   H45       1.0  0.1091  0.33686  0.5675  1.0000
  H   H46       1.0  0.55405  0.76913  0.4459499999999999  1.0000
  H   H47       1.0  0.6679899999999999  0.99685  0.6661199999999999  1.0000
  H   H48       1.0  0.05404999999999999  0.26914  0.05405  1.0000
  H   H49       1.0  0.16181  0.27683  0.3911  1.0000
  H   H50       1.0  0.18039999999999995  0.93354  0.20364999999999994  1.0000
  H   H51       1.0  0.02799  0.64076  0.49089999999999995  1.0000
  H   H52       1.0  0.18698  0.40994  0.15584999999999996  1.0000
  H   H53       1.0  0.9916299999999998  0.22001  0.70848  1.0000
  H   H54       1.0  0.20721  0.68539  0.5959499999999999  1.0000
  H   H55       1.0  0.8909  0.66314  0.43249999999999994  1.0000
  H   H56       1.0  0.44690999999999986  0.85887  0.65621  1.0000
  H   H57       1.0  0.7072099999999999  0.18539  0.90405  1.0000
  H   H58       1.0  0.52704  0.61486  0.20812999999999998  1.0000
  H   H59       1.0  0.13678999999999994  0.03325  0.77964  1.0000
  H   H60       1.0  0.79682  0.50695  0.96797  1.0000
  H   H61       1.0  0.31959999999999994  0.56646  0.70365  1.0000
  H   H62       1.0  0.9469099999999998  0.35887  0.84378  1.0000
  H   H63       1.0  0.4982699999999999  0.8299600000000001  0.07928  1.0000
  H   H64       1.0  0.6900699999999997  0.01755  0.55759  1.0000
  H   H65       1.0  0.81082  0.48303  0.4394399999999999  1.0000
  H   H66       1.0  0.3026399999999999  0.00652  0.97073  1.0000
  H   H67       1.0  0.9652499999999999  0.68456  0.03301  1.0000
  H   H68       1.0  0.80264  0.50652  0.52926  1.0000
  H   H69       1.0  0.3320099999999999  0.00315  0.33387  1.0000
  H   H70       1.0  0.5347499999999998  0.81544  0.53301  1.0000
  H   H71       1.0  0.16798999999999994  0.49684999999999996  0.83387  1.0000
  H   H72       1.0  0.7747599999999999  0.36157  0.5832899999999999  1.0000
  H   H73       1.0  0.27475999999999995  0.8615699999999998  0.91671  1.0000
  H   H74       1.0  0.19006999999999993  0.51755  0.9424099999999997  1.0000
  H   H75       1.0  0.8130199999999997  0.59005  0.84415  1.0000
  H   H76       1.0  0.8320099999999998  0.50315  0.16611999999999993  1.0000
  H   H77       1.0  0.5083699999999999  0.27999  0.20847999999999994  1.0000
  H   H78       1.0  0.31080999999999986  0.98303  0.060559999999999996  1.0000
  H   H79       1.0  0.20318  0.49304999999999993  0.03203  1.0000
  H   H80       1.0  0.030739999999999996  0.74045  0.8405099999999998  1.0000
  C   C1        1.0  0.85018  0.71071  0.57039  1.0000
  C   C2        1.0  0.24395999999999995  0.87923  0.59988  1.0000
  C   C3        1.0  0.4901999999999999  0.65155  0.23788999999999993  1.0000
  C   C4        1.0  0.23648  0.74578  0.4751999999999999  1.0000
  C   C5        1.0  0.8192899999999997  0.92923  0.24821  1.0000
  C   C6        1.0  0.73792  0.17078  0.5549399999999999  1.0000
  C   C7        1.0  0.38522999999999996  0.24155  0.52875  1.0000
  C   C8        1.0  0.042679999999999996  0.74587  0.26029  1.0000
  C   C9        1.0  0.5098  0.3484499999999999  0.76211  1.0000
  C   C10       1.0  0.22275999999999999  0.64836  0.45592  1.0000
  C   C11       1.0  0.3224299999999999  0.2354  0.4461199999999999  1.0000
  C   C12       1.0  0.76904  0.32066  0.109  1.0000
  C   C13       1.0  0.4573199999999999  0.7541300000000001  0.7602899999999998  1.0000
  C   C14       1.0  0.8441099999999998  0.71169  0.10609  1.0000
  C   C15       1.0  0.0657  0.67492  0.19158  1.0000
  C   C16       1.0  0.20516999999999988  0.49126  0.7989999999999999  1.0000
  C   C17       1.0  0.7125499999999998  0.17472  0.9430899999999998  1.0000
  C   C18       1.0  0.20492  0.19474  0.09925  1.0000
  C   C19       1.0  0.7859599999999998  0.42084  0.03433  1.0000
  C   C20       1.0  0.23065999999999995  0.7596999999999999  0.5271399999999999  1.0000
  C   C21       1.0  0.11476999999999997  0.25845  0.02875  1.0000
  C   C22       1.0  0.17756999999999998  0.2646  0.9461199999999997  1.0000
  C   C23       1.0  0.9409399999999998  0.6802  0.55388  1.0000
  C   C24       1.0  0.4342999999999999  0.82507  0.69158  1.0000
  C   C25       1.0  0.22995999999999994  0.27385  0.46222  1.0000
  C   C26       1.0  0.2974099999999999  0.28015  0.5462899999999999  1.0000
  C   C27       1.0  0.7560399999999998  0.12076999999999999  0.40011999999999986  1.0000
  C   C28       1.0  0.6558899999999999  0.78831  0.60609  1.0000
  C   C29       1.0  0.2874499999999999  0.82528  0.05691  1.0000
  C   C30       1.0  0.8852299999999997  0.74155  0.97125  1.0000
  C   C31       1.0  0.26351  0.75422  0.9751999999999997  1.0000
  C   C32       1.0  0.20259  0.21985  0.04629  1.0000
  C   C33       1.0  0.5387699999999999  0.27478  0.6949899999999998  1.0000
  C   C34       1.0  0.76934  0.2403  0.47285999999999995  1.0000
  C   C35       1.0  0.8795199999999999  0.67591  0.47103  1.0000
  C   C36       1.0  0.12047999999999998  0.32409  0.52897  1.0000
  C   C37       1.0  0.74396  0.37923  0.9001199999999998  1.0000
  C   C38       1.0  0.7620899999999999  0.32922  0.05493999999999999  1.0000
  C   C39       1.0  0.25051999999999996  0.64297  0.04676  1.0000
  C   C40       1.0  0.27904  0.93459  0.51625  1.0000
  C   C41       1.0  0.27119999999999994  0.10031  0.68909  1.0000
  C   C42       1.0  0.54268  0.24587  0.23971  1.0000
  C   C43       1.0  0.7364899999999998  0.24578  0.0248  1.0000
  C   C44       1.0  0.2620799999999999  0.82922  0.44506  1.0000
  C   C45       1.0  0.25603999999999993  0.62077  0.09987999999999997  1.0000
  C   C46       1.0  0.24947999999999998  0.85703  0.54676  1.0000
  C   C47       1.0  0.22095999999999996  0.56541  0.01625  1.0000
  C   C48       1.0  0.6807099999999998  0.57077  0.74821  1.0000
  C   C49       1.0  0.9342999999999998  0.32507  0.80841  1.0000
  C   C50       1.0  0.21550999999999998  0.29329  0.5135  1.0000
  C   C51       1.0  0.8967599999999998  0.71682  0.020459999999999992  1.0000
  C   C52       1.0  0.7155099999999998  0.79329  0.9865  1.0000
  C   C53       1.0  0.21404  0.57916  0.9656699999999998  1.0000
  C   C54       1.0  0.7974099999999997  0.78014  0.9537099999999997  1.0000
  C   C55       1.0  0.2980899999999999  0.91896  0.03702  1.0000
  C   C56       1.0  0.82243  0.7354  0.05388  1.0000
  C   C57       1.0  0.29507  0.30526  0.59925  1.0000
  C   C58       1.0  0.15589  0.28831  0.89391  1.0000
  C   C59       1.0  0.7844899999999999  0.70671  0.4865  1.0000
  C   C60       1.0  0.10323999999999997  0.28318  0.97954  1.0000
  C   C61       1.0  0.27004999999999996  0.22615000000000002  0.96222  1.0000
  C   C62       1.0  0.23095999999999994  0.67934  0.8909999999999999  1.0000
  C   C63       1.0  0.7790399999999997  0.43459  0.98375  1.0000
  C   C64       1.0  0.7025899999999999  0.71985  0.45370999999999995  1.0000
  C   C65       1.0  0.21771999999999994  0.9735699999999999  0.23288999999999996  1.0000
  C   C66       1.0  0.7049299999999998  0.69474  0.40074  1.0000
  C   C67       1.0  0.78228  0.02643  0.7671099999999998  1.0000
  C   C68       1.0  0.18070999999999998  0.07076  0.75178  1.0000
  C   C69       1.0  0.67757  0.7646  0.55388  1.0000
  C   C70       1.0  0.46123  0.72522  0.30501  1.0000
  C   C71       1.0  0.20679  0.56759  0.48604999999999987  1.0000
  C   C72       1.0  0.44094  0.1802  0.94611  1.0000
  C   C73       1.0  0.72096  0.0654  0.4837499999999999  1.0000
  C   C74       1.0  0.54416  0.83651  0.003779999999999999  1.0000
  C   C75       1.0  0.2690399999999999  0.82066  0.391  1.0000
  C   C76       1.0  0.79321  0.4324  0.51395  1.0000
  C   C77       1.0  0.7505199999999997  0.14297  0.45324  1.0000
  C   C78       1.0  0.28448999999999997  0.20671  0.013499999999999996  1.0000
  C   C79       1.0  0.79508  0.80526  0.9007399999999999  1.0000
  C   C80       1.0  0.2288  0.39968  0.18909  1.0000
  C   C81       1.0  0.29482999999999987  0.00874  0.299  1.0000
  C   C82       1.0  0.27724  0.85164  0.95592  1.0000
  C   C83       1.0  0.73096  0.17934000000000003  0.609  1.0000
  C   C84       1.0  0.7227599999999998  0.14836  0.044079999999999994  1.0000
  C   C85       1.0  0.3441099999999999  0.21169  0.39391  1.0000
  C   C86       1.0  0.37952  0.17591  0.02897  1.0000
  C   C87       1.0  0.05905999999999999  0.3198  0.4461199999999999  1.0000
  C   C88       1.0  0.6147699999999998  0.75845  0.4712499999999999  1.0000
  C   C89       1.0  0.70517  0.9912600000000001  0.701  1.0000
  C   C90       1.0  0.78745  0.32528  0.44309  1.0000
  C   C91       1.0  0.0098  0.84845  0.7378899999999998  1.0000
  C   C92       1.0  0.7494799999999998  0.35703000000000007  0.9532399999999999  1.0000
  C   C93       1.0  0.64982  0.78929  0.07039  1.0000
  C   C94       1.0  0.5657  0.17492  0.30841  1.0000
  C   C95       1.0  0.038769999999999985  0.77478  0.80501  1.0000
  C   C96       1.0  0.7635199999999998  0.25422  0.5248  1.0000
  C   C97       1.0  0.4558399999999999  0.16349000000000002  0.9962199999999998  1.0000
  C   C98       1.0  0.3967599999999999  0.21681999999999998  0.4795399999999999  1.0000
  C   C99       1.0  0.7700399999999997  0.72615  0.53778  1.0000
  C   C100      1.0  0.7772399999999998  0.35163999999999995  0.5440799999999999  1.0000
  C   C101      1.0  0.29320999999999997  0.9324  0.9860499999999998  1.0000
  C   C102      1.0  0.20189999999999994  0.58104  0.53702  1.0000
  C   C103      1.0  0.26934  0.7403  0.027139999999999994  1.0000
  C   C104      1.0  0.04415999999999999  0.33651  0.4962199999999999  1.0000
  C   C105      1.0  0.7948299999999998  0.50874  0.20099999999999996  1.0000
  C   C106      1.0  0.9612299999999998  0.22522  0.19499  1.0000
  C   C107      1.0  0.7981  0.41896  0.46298  1.0000
  C   C108      1.0  0.9573199999999997  0.25413  0.73971  1.0000
  C   C109      1.0  0.3192899999999999  0.42922999999999994  0.25178  1.0000
  C   C110      1.0  0.14981999999999995  0.28929  0.4296099999999999  1.0000
  C   C111      1.0  0.9902  0.15155  0.26211  1.0000
  C   C112      1.0  0.72995  0.7738500000000001  0.03778  1.0000
  C   C113      1.0  0.95584  0.66349  0.50378  1.0000
  C   C114      1.0  0.5590599999999999  0.8198  0.05388  1.0000
  C   C115      1.0  0.28595999999999994  0.92084  0.46567  1.0000
  C   C116      1.0  0.6204799999999998  0.8240800000000001  0.97103  1.0000
  C   C117      1.0  0.7019099999999999  0.08104  0.96298  1.0000
  C   C118      1.0  0.7711999999999998  0.60031  0.8109  1.0000
  C   C119      1.0  0.21254999999999993  0.67472  0.55691  1.0000
  C   C120      1.0  0.70679  0.06759  0.01395  1.0000
  C   C121      1.0  0.7287999999999998  0.89969  0.3109  1.0000
  C   C122      1.0  0.35017999999999994  0.21071  0.9296099999999998  1.0000
  C   C123      1.0  0.7140399999999998  0.07916  0.53433  1.0000
  C   C124      1.0  0.71772  0.47357  0.26711  1.0000
  C   C125      1.0  0.23790999999999995  0.67078  0.9450599999999998  1.0000
  C   C126      1.0  0.28228  0.52643  0.73289  1.0000
  C   C127      1.0  0.73066  0.2597  0.97286  1.0000
  C   C128      1.0  0.6032399999999999  0.78318  0.52046  1.0000
  N   N1        1.0  0.34582999999999997  0.81721  0.7133799999999998  1.0000
  N   N2        1.0  0.12476  0.78151  0.7809899999999997  1.0000
  N   N3        1.0  0.86065  0.27167  0.7424399999999998  1.0000
  N   N4        1.0  0.2773299999999999  0.4744  0.21321999999999997  1.0000
  N   N5        1.0  0.006069999999999999  0.28582  0.7802699999999999  1.0000
  N   N6        1.0  0.20121  0.16822  0.7516399999999999  1.0000
  N   N7        1.0  0.49393  0.21417  0.28027  1.0000
  N   N8        1.0  0.72267  0.5256  0.78678  1.0000
  N   N9        1.0  0.6393499999999998  0.22833  0.24244  1.0000
  N   N10       1.0  0.23309999999999995  0.07182  0.23294  1.0000
  N   N11       1.0  0.7550499999999999  0.4312  0.22653  1.0000
  N   N12       1.0  0.9939299999999998  0.7141800000000001  0.21973  1.0000
  N   N13       1.0  0.77733  0.9744  0.28678  1.0000
  N   N14       1.0  0.24494999999999995  0.5688  0.7734699999999998  1.0000
  N   N15       1.0  0.7823999999999998  0.59418  0.22428999999999996  1.0000
  N   N16       1.0  0.24049999999999994  0.31316  0.2114  1.0000
  N   N17       1.0  0.7405  0.81316  0.2886  1.0000
  N   N18       1.0  0.7449499999999998  0.0688  0.72653  1.0000
  N   N19       1.0  0.87524  0.21849  0.21901  1.0000
  N   N20       1.0  0.6064799999999998  0.32903  0.7623299999999998  1.0000
  N   N21       1.0  0.39352  0.67097  0.23766999999999996  1.0000
  N   N22       1.0  0.7668999999999999  0.92818  0.7670599999999997  1.0000
  N   N23       1.0  0.2595  0.18684  0.7114  1.0000
  N   N24       1.0  0.5060699999999999  0.78582  0.71973  1.0000
  N   N25       1.0  0.7012099999999998  0.66822  0.74836  1.0000
  N   N26       1.0  0.21759999999999993  0.40581  0.7757099999999998  1.0000
  N   N27       1.0  0.29879  0.33178  0.25164  1.0000
  N   N28       1.0  0.7175999999999998  0.90581  0.72429  1.0000
  N   N29       1.0  0.6247699999999998  0.28151  0.71901  1.0000
  N   N30       1.0  0.22267  0.0256  0.7132199999999997  1.0000
  N   N31       1.0  0.7595  0.68684  0.7885999999999997  1.0000
  N   N32       1.0  0.13935  0.72833  0.25755  1.0000
  N   N33       1.0  0.7330999999999998  0.57182  0.26706  1.0000
  N   N34       1.0  0.96486  0.81615  0.77933  1.0000
  N   N35       1.0  0.84583  0.31721  0.78662  1.0000
  N   N36       1.0  0.03514  0.18385  0.22066999999999995  1.0000
  N   N37       1.0  0.53514  0.68385  0.27933  1.0000
  N   N38       1.0  0.7987899999999998  0.8317800000000001  0.24835999999999997  1.0000
  N   N39       1.0  0.28239999999999993  0.09418  0.27571  1.0000
  N   N40       1.0  0.10648  0.8290299999999999  0.73767  1.0000
  N   N41       1.0  0.2669  0.42817  0.73294  1.0000
  N   N42       1.0  0.3606499999999999  0.77167  0.7575499999999998  1.0000
  N   N43       1.0  0.25505  0.9312  0.27347  1.0000
  N   N44       1.0  0.15417  0.68278  0.21338  1.0000
  N   N45       1.0  0.8935199999999998  0.17097  0.26233  1.0000
  N   N46       1.0  0.65417  0.18278  0.28661999999999993  1.0000
  N   N47       1.0  0.46486  0.31615000000000004  0.72067  1.0000
  N   N48       1.0  0.37522999999999995  0.71849  0.28099  1.0000
  O   O1        1.0  0.8898999999999999  0.6352  0.11688  1.0000
  O   O2        1.0  0.21942  0.33547  0.62155  1.0000
  O   O3        1.0  0.8057499999999997  0.43983  0.88102  1.0000
  O   O4        1.0  0.17511999999999994  0.83499  0.62618  1.0000
  O   O5        1.0  0.19552  0.77915  0.36696  1.0000
  O   O6        1.0  0.8044799999999998  0.22085  0.63304  1.0000
  O   O7        1.0  0.3899  0.1352  0.38312  1.0000
  O   O8        1.0  0.3452099999999999  0.85489  0.36927  1.0000
  O   O9        1.0  0.6851199999999997  0.7247700000000001  0.63874  1.0000
  O   O10       1.0  0.28058  0.16452999999999998  0.12154999999999998  1.0000
  O   O11       1.0  0.67512  0.33499  0.87382  1.0000
  O   O12       1.0  0.7194199999999997  0.83547  0.87844  1.0000
  O   O13       1.0  0.6955199999999999  0.27915  0.13304  1.0000
  O   O14       1.0  0.11009999999999998  0.36479  0.8831199999999999  1.0000
  O   O15       1.0  0.8148799999999998  0.77522  0.13874  1.0000
  O   O16       1.0  0.3248799999999999  0.66501  0.12618  1.0000
  O   O17       1.0  0.8452199999999997  0.35489  0.13073  1.0000
  O   O18       1.0  0.19424999999999995  0.56017  0.11898  1.0000
  O   O19       1.0  0.31488  0.27522  0.36126  1.0000
  O   O20       1.0  0.6230299999999999  0.70624  0.3762599999999999  1.0000
  O   O21       1.0  0.6942499999999998  0.06017  0.38102  1.0000
  O   O22       1.0  0.18511999999999998  0.22477  0.8612599999999998  1.0000
  O   O23       1.0  0.15477999999999995  0.64511  0.86927  1.0000
  O   O24       1.0  0.7805799999999998  0.66452  0.37844  1.0000
  O   O25       1.0  0.6100999999999998  0.86479  0.61688  1.0000
  O   O26       1.0  0.12302999999999997  0.20624  0.12374  1.0000
  O   O27       1.0  0.30447999999999986  0.72085  0.86695  1.0000
  O   O28       1.0  0.30574999999999997  0.93983  0.6189799999999998  1.0000
  O   O29       1.0  0.65479  0.14511  0.63073  1.0000
  O   O30       1.0  0.8769699999999998  0.79376  0.87626  1.0000
  O   O31       1.0  0.82488  0.16501  0.37382  1.0000
  O   O32       1.0  0.3769699999999999  0.29376  0.6237399999999999  1.0000
