data_image0
_chemical_formula_structural       Zn16H48C144O64
_chemical_formula_sum              "Zn16 H48 C144 O64"
_cell_length_a       17.36975
_cell_length_b       17.36975
_cell_length_c       28.59386
_cell_angle_alpha    90.0
_cell_angle_beta     90.0
_cell_angle_gamma    90.0

_symmetry_space_group_name_H-M    'P 1'
_symmetry_Int_Tables_number       1

loop_
  _symmetry_equiv_pos_as_xyz
  'x,y,z'

loop_
  _atom_site_type_symbol
  _atom_site_label
  _atom_site_symmetry_multiplicity
  _atom_site_fract_x
  _atom_site_fract_y
  _atom_site_fract_z
  _atom_site_occupancy
  Zn  Zn1       1.0  0.8231000000000002  0.7500000000000002  0.7499999999999999  1.0000
  Zn  Zn2       1.0  0.67689  0.7500000000000002  0.7499999999999999  1.0000
  Zn  Zn3       1.0  0.7500000000000002  0.8231000000000002  0.25  1.0000
  Zn  Zn4       1.0  0.7500000000000002  0.67689  0.25  1.0000
  Zn  Zn5       1.0  0.17689000000000005  0.25  0.25  1.0000
  Zn  Zn6       1.0  0.3231000000000001  0.25  0.25  1.0000
  Zn  Zn7       1.0  0.25  0.17689000000000005  0.7499999999999999  1.0000
  Zn  Zn8       1.0  0.25  0.3231000000000001  0.7499999999999999  1.0000
  Zn  Zn9       1.0  0.04037  0.9596300000000001  0.52892  1.0000
  Zn  Zn10      1.0  0.45963  0.54037  0.52892  1.0000
  Zn  Zn11      1.0  0.54037  0.04037  0.02892  1.0000
  Zn  Zn12      1.0  0.9596300000000001  0.45963  0.02892  1.0000
  Zn  Zn13      1.0  0.45963  0.9596300000000001  0.97107  1.0000
  Zn  Zn14      1.0  0.04037  0.54037  0.97107  1.0000
  Zn  Zn15      1.0  0.9596300000000001  0.04037  0.47108  1.0000
  Zn  Zn16      1.0  0.54037  0.45963  0.47108  1.0000
  H   H1        1.0  0.6305600000000001  0.95424  0.66357  1.0000
  H   H2        1.0  0.85757  0.88155  0.62296  1.0000
  H   H3        1.0  0.74348  0.06006000000000001  0.54498  1.0000
  H   H4        1.0  0.86944  0.54575  0.66357  1.0000
  H   H5        1.0  0.64243  0.61845  0.62296  1.0000
  H   H6        1.0  0.75652  0.43994  0.54498  1.0000
  H   H7        1.0  0.54575  0.6305600000000001  0.16356999999999997  1.0000
  H   H8        1.0  0.61845  0.85757  0.12296  1.0000
  H   H9        1.0  0.43994  0.74348  0.04498  1.0000
  H   H10       1.0  0.95424  0.86944  0.16356999999999997  1.0000
  H   H11       1.0  0.88155  0.64243  0.12296  1.0000
  H   H12       1.0  0.06006000000000001  0.75652  0.04498  1.0000
  H   H13       1.0  0.86944  0.95424  0.83643  1.0000
  H   H14       1.0  0.64243  0.88155  0.87704  1.0000
  H   H15       1.0  0.75652  0.06006000000000001  0.95502  1.0000
  H   H16       1.0  0.6305600000000001  0.54575  0.83643  1.0000
  H   H17       1.0  0.85757  0.61845  0.87704  1.0000
  H   H18       1.0  0.74348  0.43994  0.95502  1.0000
  H   H19       1.0  0.95424  0.6305600000000001  0.33643  1.0000
  H   H20       1.0  0.88155  0.85757  0.37704  1.0000
  H   H21       1.0  0.06006000000000001  0.74348  0.45502  1.0000
  H   H22       1.0  0.54575  0.86944  0.33643  1.0000
  H   H23       1.0  0.61845  0.64243  0.37704  1.0000
  H   H24       1.0  0.43994  0.75652  0.45502  1.0000
  H   H25       1.0  0.36944  0.04575  0.33643  1.0000
  H   H26       1.0  0.14243  0.11845  0.37704  1.0000
  H   H27       1.0  0.25652  0.9399400000000001  0.45502  1.0000
  H   H28       1.0  0.13056  0.45425000000000004  0.33643  1.0000
  H   H29       1.0  0.35757000000000005  0.38155  0.37704  1.0000
  H   H30       1.0  0.24348000000000003  0.56006  0.45502  1.0000
  H   H31       1.0  0.45425000000000004  0.36944  0.83643  1.0000
  H   H32       1.0  0.38155  0.14243  0.87704  1.0000
  H   H33       1.0  0.56006  0.25652  0.95502  1.0000
  H   H34       1.0  0.04575  0.13056  0.83643  1.0000
  H   H35       1.0  0.11845  0.35757000000000005  0.87704  1.0000
  H   H36       1.0  0.9399400000000001  0.24348000000000003  0.95502  1.0000
  H   H37       1.0  0.13056  0.04575  0.16356999999999997  1.0000
  H   H38       1.0  0.35757000000000005  0.11845  0.12296  1.0000
  H   H39       1.0  0.24348000000000003  0.9399400000000001  0.04498  1.0000
  H   H40       1.0  0.36944  0.45425000000000004  0.16356999999999997  1.0000
  H   H41       1.0  0.14243  0.38155  0.12296  1.0000
  H   H42       1.0  0.25652  0.56006  0.04498  1.0000
  H   H43       1.0  0.04575  0.36944  0.66357  1.0000
  H   H44       1.0  0.11845  0.14243  0.62296  1.0000
  H   H45       1.0  0.9399400000000001  0.25652  0.54498  1.0000
  H   H46       1.0  0.45425000000000004  0.13056  0.66357  1.0000
  H   H47       1.0  0.38155  0.35757000000000005  0.62296  1.0000
  H   H48       1.0  0.56006  0.24348000000000003  0.54498  1.0000
  C   C1        1.0  0.67929  0.01465  0.60402  1.0000
  C   C2        1.0  0.67941  0.95908  0.63999  1.0000
  C   C3        1.0  0.74316  0.91105  0.64637  1.0000
  C   C4        1.0  0.8075200000000001  0.91776  0.61713  1.0000
  C   C5        1.0  0.8067600000000003  0.9707200000000002  0.58021  1.0000
  C   C6        1.0  0.7428900000000003  0.01858  0.57344  1.0000
  C   C7        1.0  0.7435  0.85323  0.68505  1.0000
  C   C8        1.0  0.87554  0.9787900000000002  0.54906  1.0000
  C   C9        1.0  0.61822  0.06851  0.60065  1.0000
  C   C10       1.0  0.8207100000000003  0.48535  0.60402  1.0000
  C   C11       1.0  0.8205800000000002  0.5409200000000002  0.63999  1.0000
  C   C12       1.0  0.7568300000000002  0.58894  0.64637  1.0000
  C   C13       1.0  0.69248  0.58223  0.61713  1.0000
  C   C14       1.0  0.69324  0.52928  0.58021  1.0000
  C   C15       1.0  0.7571  0.48142  0.57344  1.0000
  C   C16       1.0  0.7565  0.64677  0.68505  1.0000
  C   C17       1.0  0.62446  0.52121  0.54906  1.0000
  C   C18       1.0  0.8817700000000002  0.4314900000000001  0.60065  1.0000
  C   C19       1.0  0.48535  0.67929  0.10402  1.0000
  C   C20       1.0  0.5409200000000002  0.67941  0.13999  1.0000
  C   C21       1.0  0.58894  0.74316  0.14637  1.0000
  C   C22       1.0  0.58223  0.8075200000000001  0.11713  1.0000
  C   C23       1.0  0.52928  0.8067600000000003  0.08021  1.0000
  C   C24       1.0  0.48142  0.7428900000000003  0.07344  1.0000
  C   C25       1.0  0.64677  0.7435  0.18505  1.0000
  C   C26       1.0  0.5212  0.87553  0.04906  1.0000
  C   C27       1.0  0.4314900000000001  0.61822  0.10065  1.0000
  C   C28       1.0  0.01465  0.8207100000000003  0.10402  1.0000
  C   C29       1.0  0.95908  0.8205800000000002  0.13999  1.0000
  C   C30       1.0  0.91105  0.7568300000000002  0.14637  1.0000
  C   C31       1.0  0.91776  0.69248  0.11713  1.0000
  C   C32       1.0  0.9707200000000002  0.69324  0.08021  1.0000
  C   C33       1.0  0.01858  0.7571  0.07344  1.0000
  C   C34       1.0  0.85323  0.7565  0.18505  1.0000
  C   C35       1.0  0.9787900000000002  0.62446  0.04906  1.0000
  C   C36       1.0  0.06851  0.8817700000000002  0.10065  1.0000
  C   C37       1.0  0.8207100000000003  0.01465  0.89598  1.0000
  C   C38       1.0  0.8205800000000002  0.95908  0.86001  1.0000
  C   C39       1.0  0.7568300000000002  0.91105  0.85363  1.0000
  C   C40       1.0  0.69248  0.91776  0.88287  1.0000
  C   C41       1.0  0.69324  0.9707200000000002  0.91978  1.0000
  C   C42       1.0  0.7571  0.01858  0.92656  1.0000
  C   C43       1.0  0.7565  0.85323  0.81495  1.0000
  C   C44       1.0  0.62446  0.9787900000000002  0.95093  1.0000
  C   C45       1.0  0.8817700000000002  0.06851  0.89935  1.0000
  C   C46       1.0  0.67929  0.48535  0.89598  1.0000
  C   C47       1.0  0.67941  0.5409200000000002  0.86001  1.0000
  C   C48       1.0  0.74316  0.58894  0.85363  1.0000
  C   C49       1.0  0.8075200000000001  0.58223  0.88287  1.0000
  C   C50       1.0  0.8067600000000003  0.52928  0.91978  1.0000
  C   C51       1.0  0.7428900000000003  0.48142  0.92656  1.0000
  C   C52       1.0  0.7435  0.64677  0.81495  1.0000
  C   C53       1.0  0.87554  0.52121  0.95093  1.0000
  C   C54       1.0  0.61822  0.4314900000000001  0.89935  1.0000
  C   C55       1.0  0.01465  0.67929  0.39598  1.0000
  C   C56       1.0  0.95908  0.67941  0.36001  1.0000
  C   C57       1.0  0.91105  0.74316  0.35363  1.0000
  C   C58       1.0  0.91776  0.8075200000000001  0.38287  1.0000
  C   C59       1.0  0.9707200000000002  0.8067600000000003  0.41978  1.0000
  C   C60       1.0  0.01858  0.7428900000000003  0.42656  1.0000
  C   C61       1.0  0.85323  0.7435  0.31495  1.0000
  C   C62       1.0  0.9787900000000002  0.87553  0.45094  1.0000
  C   C63       1.0  0.06851  0.61822  0.39935  1.0000
  C   C64       1.0  0.48535  0.8207100000000003  0.39598  1.0000
  C   C65       1.0  0.5409200000000002  0.8205800000000002  0.36001  1.0000
  C   C66       1.0  0.58894  0.7568300000000002  0.35363  1.0000
  C   C67       1.0  0.58223  0.69248  0.38287  1.0000
  C   C68       1.0  0.52928  0.69324  0.41978  1.0000
  C   C69       1.0  0.48142  0.7571  0.42656  1.0000
  C   C70       1.0  0.64677  0.7565  0.31495  1.0000
  C   C71       1.0  0.5212  0.62446  0.45094  1.0000
  C   C72       1.0  0.4314900000000001  0.8817700000000002  0.39935  1.0000
  C   C73       1.0  0.32071  0.9853400000000002  0.39598  1.0000
  C   C74       1.0  0.32058  0.040920000000000005  0.36001  1.0000
  C   C75       1.0  0.25683  0.08895  0.35363  1.0000
  C   C76       1.0  0.19248  0.08223  0.38287  1.0000
  C   C77       1.0  0.19324000000000002  0.029280000000000004  0.41978  1.0000
  C   C78       1.0  0.2571000000000001  0.9814200000000001  0.42656  1.0000
  C   C79       1.0  0.2565  0.14677  0.31495  1.0000
  C   C80       1.0  0.12446000000000003  0.0212  0.45094  1.0000
  C   C81       1.0  0.38177000000000005  0.9314900000000002  0.39935  1.0000
  C   C82       1.0  0.17929000000000006  0.51465  0.39598  1.0000
  C   C83       1.0  0.17941  0.4590800000000001  0.36001  1.0000
  C   C84       1.0  0.24317000000000003  0.41105  0.35363  1.0000
  C   C85       1.0  0.30752000000000007  0.41777  0.38287  1.0000
  C   C86       1.0  0.3067600000000001  0.4707200000000001  0.41978  1.0000
  C   C87       1.0  0.24289  0.5185800000000003  0.42656  1.0000
  C   C88       1.0  0.2435  0.35323  0.31495  1.0000
  C   C89       1.0  0.37554  0.47880000000000006  0.45094  1.0000
  C   C90       1.0  0.11823  0.5685100000000002  0.39935  1.0000
  C   C91       1.0  0.51465  0.32071  0.89598  1.0000
  C   C92       1.0  0.4590800000000001  0.32058  0.86001  1.0000
  C   C93       1.0  0.41105  0.25683  0.85363  1.0000
  C   C94       1.0  0.41777  0.19248  0.88287  1.0000
  C   C95       1.0  0.4707200000000001  0.19324000000000002  0.91978  1.0000
  C   C96       1.0  0.5185800000000003  0.2571000000000001  0.92656  1.0000
  C   C97       1.0  0.35323  0.2565  0.81495  1.0000
  C   C98       1.0  0.47879  0.12446000000000003  0.95093  1.0000
  C   C99       1.0  0.5685100000000002  0.38177000000000005  0.89935  1.0000
  C   C100      1.0  0.9853400000000002  0.17929000000000006  0.89598  1.0000
  C   C101      1.0  0.040920000000000005  0.17941  0.86001  1.0000
  C   C102      1.0  0.08895  0.24317000000000003  0.85363  1.0000
  C   C103      1.0  0.08223  0.30752000000000007  0.88287  1.0000
  C   C104      1.0  0.029280000000000004  0.3067600000000001  0.91978  1.0000
  C   C105      1.0  0.9814200000000001  0.24289  0.92656  1.0000
  C   C106      1.0  0.14677  0.2435  0.81495  1.0000
  C   C107      1.0  0.02121  0.37554  0.95093  1.0000
  C   C108      1.0  0.9314900000000002  0.11822000000000002  0.89935  1.0000
  C   C109      1.0  0.17929000000000006  0.9853400000000002  0.10402  1.0000
  C   C110      1.0  0.17941  0.040920000000000005  0.13999  1.0000
  C   C111      1.0  0.24317000000000003  0.08895  0.14637  1.0000
  C   C112      1.0  0.30752000000000007  0.08223  0.11713  1.0000
  C   C113      1.0  0.3067600000000001  0.029280000000000004  0.08021  1.0000
  C   C114      1.0  0.24289  0.9814200000000001  0.07344  1.0000
  C   C115      1.0  0.2435  0.14677  0.18505  1.0000
  C   C116      1.0  0.37554  0.0212  0.04906  1.0000
  C   C117      1.0  0.11823  0.9314900000000002  0.10065  1.0000
  C   C118      1.0  0.32071  0.51465  0.10402  1.0000
  C   C119      1.0  0.32058  0.4590800000000001  0.13999  1.0000
  C   C120      1.0  0.25683  0.41105  0.14637  1.0000
  C   C121      1.0  0.19248  0.41777  0.11713  1.0000
  C   C122      1.0  0.19324000000000002  0.4707200000000001  0.08021  1.0000
  C   C123      1.0  0.2571000000000001  0.5185800000000003  0.07344  1.0000
  C   C124      1.0  0.2565  0.35323  0.18505  1.0000
  C   C125      1.0  0.12446000000000003  0.47880000000000006  0.04906  1.0000
  C   C126      1.0  0.38177000000000005  0.5685100000000002  0.10065  1.0000
  C   C127      1.0  0.9853400000000002  0.32071  0.60402  1.0000
  C   C128      1.0  0.040920000000000005  0.32058  0.63999  1.0000
  C   C129      1.0  0.08895  0.25683  0.64637  1.0000
  C   C130      1.0  0.08223  0.19248  0.61713  1.0000
  C   C131      1.0  0.029280000000000004  0.19324000000000002  0.58021  1.0000
  C   C132      1.0  0.9814200000000001  0.2571000000000001  0.57344  1.0000
  C   C133      1.0  0.14677  0.2565  0.68505  1.0000
  C   C134      1.0  0.02121  0.12446000000000003  0.54906  1.0000
  C   C135      1.0  0.9314900000000002  0.38177000000000005  0.60065  1.0000
  C   C136      1.0  0.51465  0.17929000000000006  0.60402  1.0000
  C   C137      1.0  0.4590800000000001  0.17941  0.63999  1.0000
  C   C138      1.0  0.41105  0.24317000000000003  0.64637  1.0000
  C   C139      1.0  0.41777  0.30752000000000007  0.61713  1.0000
  C   C140      1.0  0.4707200000000001  0.3067600000000001  0.58021  1.0000
  C   C141      1.0  0.5185800000000003  0.24289  0.57344  1.0000
  C   C142      1.0  0.35323  0.2435  0.68505  1.0000
  C   C143      1.0  0.47879  0.37554  0.54906  1.0000
  C   C144      1.0  0.5685100000000002  0.11822000000000002  0.60065  1.0000
  O   O1        1.0  0.8078000000000002  0.8207200000000002  0.69431  1.0000
  O   O2        1.0  0.67946  0.8402  0.70594  1.0000
  O   O3        1.0  0.9377100000000002  0.9455800000000002  0.5622599999999999  1.0000
  O   O4        1.0  0.86706  0.01913  0.51191  1.0000
  O   O5        1.0  0.6922  0.67928  0.69431  1.0000
  O   O6        1.0  0.8205400000000002  0.6598  0.70594  1.0000
  O   O7        1.0  0.56228  0.55442  0.5622599999999999  1.0000
  O   O8        1.0  0.63294  0.48087  0.51191  1.0000
  O   O9        1.0  0.67928  0.8078000000000002  0.19432  1.0000
  O   O10       1.0  0.6598  0.67946  0.20594  1.0000
  O   O11       1.0  0.55442  0.9377200000000001  0.06226  1.0000
  O   O12       1.0  0.48087  0.86706  0.01191  1.0000
  O   O13       1.0  0.8207200000000002  0.6922  0.19432  1.0000
  O   O14       1.0  0.8402  0.8205400000000002  0.20594  1.0000
  O   O15       1.0  0.9455800000000002  0.56228  0.06226  1.0000
  O   O16       1.0  0.01913  0.63294  0.01191  1.0000
  O   O17       1.0  0.6922  0.8207200000000002  0.80568  1.0000
  O   O18       1.0  0.8205400000000002  0.8402  0.79406  1.0000
  O   O19       1.0  0.56228  0.9455800000000002  0.93774  1.0000
  O   O20       1.0  0.63294  0.01913  0.98809  1.0000
  O   O21       1.0  0.8078000000000002  0.67928  0.80568  1.0000
  O   O22       1.0  0.67946  0.6598  0.79406  1.0000
  O   O23       1.0  0.9377100000000002  0.55442  0.93774  1.0000
  O   O24       1.0  0.86706  0.48087  0.98809  1.0000
  O   O25       1.0  0.8207200000000002  0.8078000000000002  0.30568  1.0000
  O   O26       1.0  0.8402  0.67946  0.29406  1.0000
  O   O27       1.0  0.9455800000000002  0.9377200000000001  0.43774  1.0000
  O   O28       1.0  0.01913  0.86706  0.4880899999999999  1.0000
  O   O29       1.0  0.67928  0.6922  0.30568  1.0000
  O   O30       1.0  0.6598  0.8205400000000002  0.29406  1.0000
  O   O31       1.0  0.55442  0.56228  0.43774  1.0000
  O   O32       1.0  0.48087  0.63294  0.4880899999999999  1.0000
  O   O33       1.0  0.19220000000000007  0.17928000000000005  0.30568  1.0000
  O   O34       1.0  0.3205400000000001  0.15980000000000003  0.29406  1.0000
  O   O35       1.0  0.06228  0.05442000000000002  0.43774  1.0000
  O   O36       1.0  0.13294  0.98087  0.4880899999999999  1.0000
  O   O37       1.0  0.3078  0.32072  0.30568  1.0000
  O   O38       1.0  0.17946000000000006  0.3402  0.29406  1.0000
  O   O39       1.0  0.43772  0.44558  0.43774  1.0000
  O   O40       1.0  0.36706  0.51912  0.4880899999999999  1.0000
  O   O41       1.0  0.32072  0.19220000000000007  0.80568  1.0000
  O   O42       1.0  0.3402  0.3205400000000001  0.79406  1.0000
  O   O43       1.0  0.44558  0.06228  0.93774  1.0000
  O   O44       1.0  0.51913  0.13294  0.98809  1.0000
  O   O45       1.0  0.17928000000000005  0.3078  0.80568  1.0000
  O   O46       1.0  0.15980000000000003  0.17946000000000006  0.79406  1.0000
  O   O47       1.0  0.05442000000000002  0.43771  0.93774  1.0000
  O   O48       1.0  0.98087  0.36706  0.98809  1.0000
  O   O49       1.0  0.3078  0.17928000000000005  0.19432  1.0000
  O   O50       1.0  0.17946000000000006  0.15980000000000003  0.20594  1.0000
  O   O51       1.0  0.43772  0.05442000000000002  0.06226  1.0000
  O   O52       1.0  0.36706  0.98087  0.01191  1.0000
  O   O53       1.0  0.19220000000000007  0.32072  0.19432  1.0000
  O   O54       1.0  0.3205400000000001  0.3402  0.20594  1.0000
  O   O55       1.0  0.06228  0.44558  0.06226  1.0000
  O   O56       1.0  0.13294  0.51912  0.01191  1.0000
  O   O57       1.0  0.17928000000000005  0.19220000000000007  0.69431  1.0000
  O   O58       1.0  0.15980000000000003  0.3205400000000001  0.70594  1.0000
  O   O59       1.0  0.05442000000000002  0.06228  0.5622599999999999  1.0000
  O   O60       1.0  0.98087  0.13294  0.51191  1.0000
  O   O61       1.0  0.32072  0.3078  0.69431  1.0000
  O   O62       1.0  0.3402  0.17946000000000006  0.70594  1.0000
  O   O63       1.0  0.44558  0.43771  0.5622599999999999  1.0000
  O   O64       1.0  0.51913  0.36706  0.51191  1.0000
