data_image0
_chemical_formula_structural       Co4H96C120N24O24
_chemical_formula_sum              "Co4 H96 C120 N24 O24"
_cell_length_a       20.32882
_cell_length_b       20.3285
_cell_length_c       20.33569
_cell_angle_alpha    109.46059999999999
_cell_angle_beta     109.53965999999998
_cell_angle_gamma    109.58579999999999

_space_group_name_H-M_alt    "P 1"
_space_group_IT_number       1

loop_
  _space_group_symop_operation_xyz
  'x, y, z'

loop_
  _atom_site_type_symbol
  _atom_site_label
  _atom_site_symmetry_multiplicity
  _atom_site_fract_x
  _atom_site_fract_y
  _atom_site_fract_z
  _atom_site_occupancy
  Co  Co1       1.0  0.99964  0.9998599999999999  0.49995  1.0000
  Co  Co2       1.0  0.99969  0.4997  0.9996000000000002  1.0000
  Co  Co3       1.0  0.49964  0.9995399999999999  0.99955  1.0000
  Co  Co4       1.0  0.49990999999999997  0.50005  0.5001199999999999  1.0000
  H   H1        1.0  0.32373  0.17670000000000002  0.06003  1.0000
  H   H2        1.0  0.9620100000000001  0.8915299999999999  0.63097  1.0000
  H   H3        1.0  0.38887999999999995  0.28364  0.58638  1.0000
  H   H4        1.0  0.8531199999999999  0.67591  0.737  1.0000
  H   H5        1.0  0.10509999999999997  0.30282  0.71688  1.0000
  H   H6        1.0  0.80198  0.41379999999999995  0.69693  1.0000
  H   H7        1.0  0.6313  0.7398999999999999  0.6690199999999998  1.0000
  H   H8        1.0  0.17694  0.85254  0.11619  1.0000
  H   H9        1.0  0.6093099999999999  0.41988999999999993  0.51262  1.0000
  H   H10       1.0  0.8023899999999999  0.10503  0.38832  1.0000
  H   H11       1.0  0.58627  0.38882  0.28365  1.0000
  H   H12       1.0  0.93952  0.67603  0.82364  1.0000
  H   H13       1.0  0.58618  0.30306999999999995  0.19777  1.0000
  H   H14       1.0  0.6307899999999999  0.9619499999999999  0.89131  1.0000
  H   H15       1.0  0.41997  0.81022  0.90663  1.0000
  H   H16       1.0  0.9392199999999999  0.11585  0.2635  1.0000
  H   H17       1.0  0.26373  0.93933  0.1164  1.0000
  H   H18       1.0  0.71644  0.41369999999999996  0.61135  1.0000
  H   H19       1.0  0.88339  0.73653  0.060739999999999995  1.0000
  H   H20       1.0  0.06025000000000001  0.32385  0.17625  1.0000
  H   H21       1.0  0.10986999999999994  0.07130000000000003  0.7403  1.0000
  H   H22       1.0  0.61077  0.71654  0.41352  1.0000
  H   H23       1.0  0.85287  0.11624999999999999  0.1771  1.0000
  H   H24       1.0  0.06076999999999999  0.88399  0.73646  1.0000
  H   H25       1.0  0.19777999999999996  0.5862199999999999  0.30325  1.0000
  H   H26       1.0  0.81054  0.39065999999999995  0.90352  1.0000
  H   H27       1.0  0.18972999999999998  0.09318999999999995  0.58017  1.0000
  H   H28       1.0  0.4869099999999999  0.9070899999999998  0.09621999999999999  1.0000
  H   H29       1.0  0.32388999999999996  0.26324  0.14652  1.0000
  H   H30       1.0  0.51264  0.09272000000000005  0.90303  1.0000
  H   H31       1.0  0.09294000000000001  0.58017  0.19014  1.0000
  H   H32       1.0  0.39012999999999987  0.90269  0.81012  1.0000
  H   H33       1.0  0.11652999999999997  0.26367999999999997  0.93952  1.0000
  H   H34       1.0  0.41369  0.61135  0.71633  1.0000
  H   H35       1.0  0.33057999999999993  0.369  0.25914  1.0000
  H   H36       1.0  0.09672999999999997  0.18967999999999993  0.6099  1.0000
  H   H37       1.0  0.7169  0.10526999999999995  0.30280999999999997  1.0000
  H   H38       1.0  0.90731  0.09682000000000002  0.48718000000000006  1.0000
  H   H39       1.0  0.3304  0.07079  0.96099  1.0000
  H   H40       1.0  0.69688  0.28307  0.89435  1.0000
  H   H41       1.0  0.67613  0.82334  0.93982  1.0000
  H   H42       1.0  0.3885  0.80248  0.10531  1.0000
  H   H43       1.0  0.66946  0.92919  0.03893  1.0000
  H   H44       1.0  0.0707299999999999  0.7394999999999998  0.10893  1.0000
  H   H45       1.0  0.9298699999999999  0.038419999999999926  0.6690199999999998  1.0000
  H   H46       1.0  0.9069999999999999  0.41988  0.81009  1.0000
  H   H47       1.0  0.89507  0.69734  0.28332  1.0000
  H   H48       1.0  0.82299  0.14743999999999993  0.88364  1.0000
  H   H49       1.0  0.60968  0.09668  0.18938  1.0000
  H   H50       1.0  0.6694  0.63098  0.74083  1.0000
  H   H51       1.0  0.7398799999999999  0.10890999999999999  0.07086  1.0000
  H   H52       1.0  0.30307  0.71697  0.10569  1.0000
  H   H53       1.0  0.18933999999999995  0.6093599999999999  0.09657  1.0000
  H   H54       1.0  0.8950499999999999  0.61165  0.1976  1.0000
  H   H55       1.0  0.19748999999999994  0.8944699999999999  0.61145  1.0000
  H   H56       1.0  0.28354  0.5864  0.3889  1.0000
  H   H57       1.0  0.73673  0.85306  0.67577  1.0000
  H   H58       1.0  0.10501  0.38829  0.80239  1.0000
  H   H59       1.0  0.89005  0.63077  0.96146  1.0000
  H   H60       1.0  0.39038  0.58034  0.48787  1.0000
  H   H61       1.0  0.96157  0.33071  0.07011  1.0000
  H   H62       1.0  0.92942  0.26068  0.89142  1.0000
  H   H63       1.0  0.36943000000000004  0.03832000000000001  0.1092  1.0000
  H   H64       1.0  0.26011  0.33087  0.36872  1.0000
  H   H65       1.0  0.57993  0.48721999999999993  0.39064  1.0000
  H   H66       1.0  0.17656  0.06037000000000003  0.32414  1.0000
  H   H67       1.0  0.038559999999999935  0.66937  0.92977  1.0000
  H   H68       1.0  0.9035399999999999  0.5131999999999999  0.09274  1.0000
  H   H69       1.0  0.57983  0.18967000000000003  0.09305  1.0000
  H   H70       1.0  0.10991  0.36959  0.03862  1.0000
  H   H71       1.0  0.11637999999999997  0.1769699999999999  0.85284  1.0000
  H   H72       1.0  0.67606  0.7368499999999999  0.8533999999999999  1.0000
  H   H73       1.0  0.6966100000000001  0.80217  0.41365  1.0000
  H   H74       1.0  0.30347  0.19778999999999997  0.58632  1.0000
  H   H75       1.0  0.73626  0.06068000000000007  0.88367  1.0000
  H   H76       1.0  0.8902899999999999  0.9288  0.25964  1.0000
  H   H77       1.0  0.51239  0.60914  0.41969  1.0000
  H   H78       1.0  0.14756000000000005  0.88428  0.82322  1.0000
  H   H79       1.0  0.2831299999999999  0.89473  0.69711  1.0000
  H   H80       1.0  0.41384  0.69696  0.80194  1.0000
  H   H81       1.0  0.74021  0.66927  0.63134  1.0000
  H   H82       1.0  0.09267000000000003  0.90289  0.51273  1.0000
  H   H83       1.0  0.03818999999999998  0.10876999999999999  0.36926  1.0000
  H   H84       1.0  0.0965699999999999  0.48685  0.90705  1.0000
  H   H85       1.0  0.07033999999999996  0.9614299999999999  0.33088  1.0000
  H   H86       1.0  0.36896999999999996  0.25988999999999995  0.33091999999999994  1.0000
  H   H87       1.0  0.6111  0.19729  0.89407  1.0000
  H   H88       1.0  0.1472  0.32397  0.26291  1.0000
  H   H89       1.0  0.9035  0.8106599999999999  0.39036  1.0000
  H   H90       1.0  0.26332  0.14687  0.32425  1.0000
  H   H91       1.0  0.4199399999999999  0.51286  0.60931  1.0000
  H   H92       1.0  0.48721  0.39117  0.58012  1.0000
  H   H93       1.0  0.8101399999999997  0.90666  0.41967  1.0000
  H   H94       1.0  0.82357  0.93982  0.67583  1.0000
  H   H95       1.0  0.26046  0.89147  0.9293799999999999  1.0000
  H   H96       1.0  0.8837199999999998  0.82293  0.1472  1.0000
  C   C1        1.0  0.52669  0.19303  0.08996  1.0000
  C   C2        1.0  0.85295  0.47246999999999995  0.74632  1.0000
  C   C3        1.0  0.6662999999999999  0.10318  0.19297  1.0000
  C   C4        1.0  0.31389  0.20283999999999996  0.45529  1.0000
  C   C5        1.0  0.10307999999999998  0.4368099999999999  0.9101  1.0000
  C   C6        1.0  0.61615  0.63148  0.74084  1.0000
  C   C7        1.0  0.1840799999999999  0.8009899999999998  0.11247  1.0000
  C   C8        1.0  0.47243  0.61937  0.72598  1.0000
  C   C9        1.0  0.19321999999999998  0.08999  0.52705  1.0000
  C   C10       1.0  0.47309  0.563  0.66612  1.0000
  C   C11       1.0  0.38089  0.27411  0.52771  1.0000
  C   C12       1.0  0.6888299999999999  0.80121  0.61699  1.0000
  C   C13       1.0  0.6190899999999999  0.1467  0.89289  1.0000
  C   C14       1.0  0.20286999999999994  0.8892199999999999  0.74772  1.0000
  C   C15       1.0  0.43692999999999993  0.91012  0.1029  1.0000
  C   C16       1.0  0.92834  0.11212  0.31131  1.0000
  C   C17       1.0  0.4549799999999999  0.25221  0.14126  1.0000
  C   C18       1.0  0.8586799999999994  0.54489  0.74787  1.0000
  C   C19       1.0  0.9846599999999999  0.61614  0.87621  1.0000
  C   C20       1.0  0.20287999999999998  0.45516  0.31364  1.0000
  C   C21       1.0  0.88912  0.68634  0.1414  1.0000
  C   C22       1.0  0.25988  0.38403  0.3682  1.0000
  C   C23       1.0  0.7475799999999998  0.85863  0.54468  1.0000
  C   C24       1.0  0.61734  0.81613  0.92882  1.0000
  C   C25       1.0  0.38377000000000006  0.36837000000000003  0.25913  1.0000
  C   C26       1.0  0.68615  0.79721  0.54463  1.0000
  C   C27       1.0  0.10664999999999998  0.25363  0.72628  1.0000
  C   C28       1.0  0.89068  0.8754399999999999  0.25942  1.0000
  C   C29       1.0  0.85318  0.10662999999999999  0.38056  1.0000
  C   C30       1.0  0.61728  0.68881  0.80157  1.0000
  C   C31       1.0  0.8759  0.2602  0.89158  1.0000
  C   C32       1.0  0.89062  0.63139  0.015249999999999998  1.0000
  C   C33       1.0  0.25239  0.14129999999999995  0.45524  1.0000
  C   C34       1.0  0.1991599999999999  0.88798  0.81617  1.0000
  C   C35       1.0  0.43713  0.33424  0.52703  1.0000
  C   C36       1.0  0.68615  0.14143999999999998  0.88898  1.0000
  C   C37       1.0  0.015700000000000068  0.89175  0.63157  1.0000
  C   C38       1.0  0.74613  0.8530399999999999  0.47228  1.0000
  C   C39       1.0  0.74029  0.10866  0.12431  1.0000
  C   C40       1.0  0.11266999999999999  0.18416000000000002  0.80132  1.0000
  C   C41       1.0  0.10655999999999997  0.3804499999999999  0.85312  1.0000
  C   C42       1.0  0.6161899999999999  0.8757399999999999  0.9849799999999999  1.0000
  C   C43       1.0  0.18382999999999997  0.07133999999999999  0.38292  1.0000
  C   C44       1.0  0.10324000000000001  0.19314000000000006  0.66643  1.0000
  C   C45       1.0  0.1093099999999999  0.3687999999999999  0.98476  1.0000
  C   C46       1.0  0.89685  0.80699  0.33369  1.0000
  C   C47       1.0  0.8587299999999999  0.11088  0.31386  1.0000
  C   C48       1.0  0.33363999999999994  0.8964599999999999  0.80667  1.0000
  C   C49       1.0  0.72629  0.10678  0.25363  1.0000
  C   C50       1.0  0.52741  0.25364  0.14697  1.0000
  C   C51       1.0  0.11268999999999997  0.3114499999999999  0.92859  1.0000
  C   C52       1.0  0.11091  0.3137100000000001  0.85868  1.0000
  C   C53       1.0  0.33384  0.52713  0.43741  1.0000
  C   C54       1.0  0.54494  0.6863299999999999  0.79726  1.0000
  C   C55       1.0  0.31132  0.19869999999999996  0.38299  1.0000
  C   C56       1.0  0.9285399999999999  0.61725  0.81642  1.0000
  C   C57       1.0  0.10938000000000003  0.12462000000000002  0.74058  1.0000
  C   C58       1.0  0.8069600000000003  0.33404  0.89694  1.0000
  C   C59       1.0  0.31149  0.92844  0.11257  1.0000
  C   C60       1.0  0.38365  0.12423  0.01497  1.0000
  C   C61       1.0  0.8933799999999997  0.7464599999999999  0.27385  1.0000
  C   C62       1.0  0.27398999999999996  0.52767  0.38083  1.0000
  C   C63       1.0  0.19895000000000004  0.38282000000000005  0.31092  1.0000
  C   C64       1.0  0.89345  0.6195699999999998  0.14689  1.0000
  C   C65       1.0  0.72601  0.47239  0.61929  1.0000
  C   C66       1.0  0.14143999999999993  0.88921  0.68629  1.0000
  C   C67       1.0  0.91024  0.10317000000000001  0.43705  1.0000
  C   C68       1.0  0.14139  0.45506  0.25216  1.0000
  C   C69       1.0  0.7971899999999998  0.54482  0.68627  1.0000
  C   C70       1.0  0.7972899999999999  0.11099  0.25239  1.0000
  C   C71       1.0  0.6660399999999999  0.47304999999999997  0.5629  1.0000
  C   C72       1.0  0.9844399999999999  0.10843  0.36854  1.0000
  C   C73       1.0  0.7404  0.61607  0.63181  1.0000
  C   C74       1.0  0.31389  0.85866  0.11107  1.0000
  C   C75       1.0  0.61893  0.7259399999999999  0.47221  1.0000
  C   C76       1.0  0.36848999999999993  0.25968  0.3841  1.0000
  C   C77       1.0  0.8890999999999999  0.7477299999999999  0.20282  1.0000
  C   C78       1.0  0.47254999999999997  0.7463199999999999  0.8529  1.0000
  C   C79       1.0  0.5275  0.38067  0.27403  1.0000
  C   C80       1.0  0.81629  0.92866  0.61703  1.0000
  C   C81       1.0  0.5627999999999999  0.08984000000000007  0.89671  1.0000
  C   C82       1.0  0.26008  0.89165  0.87591  1.0000
  C   C83       1.0  0.8159799999999999  0.19908999999999996  0.88757  1.0000
  C   C84       1.0  0.19302  0.66606  0.10326  1.0000
  C   C85       1.0  0.45507  0.31368  0.20272  1.0000
  C   C86       1.0  0.8872599999999999  0.68869  0.07152  1.0000
  C   C87       1.0  0.47316  0.8068399999999999  0.9098599999999999  1.0000
  C   C88       1.0  0.015449999999999986  0.38389999999999996  0.12370000000000002  1.0000
  C   C89       1.0  0.08983999999999999  0.89671  0.56295  1.0000
  C   C90       1.0  0.9100399999999998  0.47306  0.80681  1.0000
  C   C91       1.0  0.63143  0.015660000000000007  0.89156  1.0000
  C   C92       1.0  0.63179  0.7401499999999998  0.61588  1.0000
  C   C93       1.0  0.38065999999999994  0.8531999999999998  0.10678  1.0000
  C   C94       1.0  0.25376  0.7262  0.10705  1.0000
  C   C95       1.0  0.14696999999999996  0.52751  0.25376  1.0000
  C   C96       1.0  0.8012399999999998  0.11241  0.18416  1.0000
  C   C97       1.0  0.87623  0.98453  0.61587  1.0000
  C   C98       1.0  0.8068899999999999  0.9098599999999999  0.47287  1.0000
  C   C99       1.0  0.12422999999999998  0.73999  0.10873  1.0000
  C   C100      1.0  0.5449999999999999  0.7477699999999999  0.8587  1.0000
  C   C101      1.0  0.27377999999999997  0.8931599999999998  0.7463  1.0000
  C   C102      1.0  0.25396  0.14692000000000005  0.52766  1.0000
  C   C103      1.0  0.3687  0.98453  0.1088  1.0000
  C   C104      1.0  0.7475099999999999  0.20281999999999992  0.88896  1.0000
  C   C105      1.0  0.56267  0.66583  0.47286  1.0000
  C   C106      1.0  0.38256  0.18389  0.07116  1.0000
  C   C107      1.0  0.11093999999999998  0.25234  0.79732  1.0000
  C   C108      1.0  0.07143999999999996  0.3827  0.18352  1.0000
  C   C109      1.0  0.38269999999999993  0.31113999999999997  0.19837  1.0000
  C   C110      1.0  0.14684  0.8931599999999998  0.61938  1.0000
  C   C111      1.0  0.5267699999999998  0.43694999999999995  0.33393  1.0000
  C   C112      1.0  0.74621  0.27385  0.89304  1.0000
  C   C113      1.0  0.08995  0.52695  0.19324  1.0000
  C   C114      1.0  0.07169000000000002  0.88789  0.68872  1.0000
  C   C115      1.0  0.12398  0.015270000000000008  0.38406  1.0000
  C   C116      1.0  0.80133  0.61714  0.68896  1.0000
  C   C117      1.0  0.8873499999999998  0.8158499999999997  0.19876  1.0000
  C   C118      1.0  0.89693  0.56324  0.08981  1.0000
  C   C119      1.0  0.68852  0.07158999999999996  0.8875999999999998  1.0000
  C   C120      1.0  0.25242999999999993  0.79717  0.11111  1.0000
  N   N1        1.0  0.10458999999999995  0.43146999999999996  0.9761199999999999  1.0000
  N   N2        1.0  0.8721899999999999  0.97563  0.54443  1.0000
  N   N3        1.0  0.43123999999999996  0.32738  0.45551  1.0000
  N   N4        1.0  0.024259999999999882  0.8962  0.56879  1.0000
  N   N5        1.0  0.45516999999999996  0.43116  0.32684  1.0000
  N   N6        1.0  0.02410999999999997  0.45537999999999995  0.12801  1.0000
  N   N7        1.0  0.6729899999999998  0.10416999999999998  0.12826  1.0000
  N   N8        1.0  0.45508  0.12822  0.02387  1.0000
  N   N9        1.0  0.67288  0.54463  0.56885  1.0000
  N   N10       1.0  0.8720099999999998  0.32766999999999996  0.89643  1.0000
  N   N11       1.0  0.54466  0.56866  0.67318  1.0000
  N   N12       1.0  0.54472  0.87163  0.97607  1.0000
  N   N13       1.0  0.9760399999999999  0.5446399999999999  0.8718299999999999  1.0000
  N   N14       1.0  0.5688499999999999  0.67243  0.54446  1.0000
  N   N15       1.0  0.32718  0.45556  0.43148  1.0000
  N   N16       1.0  0.12818  0.67263  0.10409  1.0000
  N   N17       1.0  0.89536  0.8715  0.32678  1.0000
  N   N18       1.0  0.32716999999999985  0.8956599999999999  0.8716  1.0000
  N   N19       1.0  0.10478999999999998  0.12864  0.67328  1.0000
  N   N20       1.0  0.12809  0.024110000000000006  0.4555  1.0000
  N   N21       1.0  0.43126999999999993  0.97586  0.10391  1.0000
  N   N22       1.0  0.8954799999999999  0.56876  0.02388  1.0000
  N   N23       1.0  0.97605  0.10421999999999994  0.4314599999999999  1.0000
  N   N24       1.0  0.5687599999999999  0.02434000000000007  0.89638  1.0000
  O   O1        1.0  0.9326799999999998  0.3861899999999999  0.90205  1.0000
  O   O2        1.0  0.96882  0.45366999999999996  0.06828  1.0000
  O   O3        1.0  0.61504  0.09963  0.06846  1.0000
  O   O4        1.0  0.10030000000000003  0.06874000000000002  0.61528  1.0000
  O   O5        1.0  0.54663  0.9315299999999999  0.03142  1.0000
  O   O6        1.0  0.38528999999999997  0.8999699999999999  0.93121  1.0000
  O   O7        1.0  0.38523999999999997  0.45391  0.48512000000000005  1.0000
  O   O8        1.0  0.03127999999999996  0.54627  0.93145  1.0000
  O   O9        1.0  0.4530699999999999  0.0682  0.96862  1.0000
  O   O10       1.0  0.4843199999999999  0.031080000000000003  0.09872  1.0000
  O   O11       1.0  0.61489  0.54651  0.51554  1.0000
  O   O12       1.0  0.4529999999999999  0.48429  0.38478  1.0000
  O   O13       1.0  0.8999899999999998  0.93149  0.38475  1.0000
  O   O14       1.0  0.51616  0.61397  0.54673  1.0000
  O   O15       1.0  0.51603  0.96945  0.90218  1.0000
  O   O16       1.0  0.06758000000000006  0.96916  0.4534  1.0000
  O   O17       1.0  0.03134  0.09984  0.48501  1.0000
  O   O18       1.0  0.96897  0.90067  0.5152  1.0000
  O   O19       1.0  0.48423  0.38566999999999996  0.45335  1.0000
  O   O20       1.0  0.54659  0.51529  0.61515  1.0000
  O   O21       1.0  0.06760999999999998  0.6142  0.09854  1.0000
  O   O22       1.0  0.10005999999999995  0.48490999999999995  0.03149  1.0000
  O   O23       1.0  0.93285  0.030699999999999998  0.54665  1.0000
  O   O24       1.0  0.90008  0.51544  0.96852  1.0000
