data_image0
_chemical_formula_structural       Zn16H56C96O56
_chemical_formula_sum              "Zn16 H56 C96 O56"
_cell_length_a       14.78719
_cell_length_b       17.0046
_cell_length_c       18.32485
_cell_angle_alpha    90.13179
_cell_angle_beta     90.0
_cell_angle_gamma    90.0

_space_group_name_H-M_alt    "P 1"
_space_group_IT_number       1

loop_
  _space_group_symop_operation_xyz
  'x, y, z'

loop_
  _atom_site_type_symbol
  _atom_site_label
  _atom_site_symmetry_multiplicity
  _atom_site_fract_x
  _atom_site_fract_y
  _atom_site_fract_z
  _atom_site_occupancy
  Zn  Zn1       1.0  0.4706299999999999  0.9498999999999999  0.4389700000000001  1.0000
  Zn  Zn2       1.0  0.66558  0.9547699999999999  0.39085  1.0000
  Zn  Zn3       1.0  0.52956  0.44892  0.060770000000000005  1.0000
  Zn  Zn4       1.0  0.3346099999999999  0.45495  0.10772  1.0000
  Zn  Zn5       1.0  0.5293699999999998  0.050089999999999996  0.56103  1.0000
  Zn  Zn6       1.0  0.33442  0.04522  0.60915  1.0000
  Zn  Zn7       1.0  0.4704399999999999  0.55108  0.93922  1.0000
  Zn  Zn8       1.0  0.6653899999999998  0.54504  0.89228  1.0000
  Zn  Zn9       1.0  0.029559999999999993  0.05108  0.93922  1.0000
  Zn  Zn10      1.0  0.8346099999999997  0.04503999999999998  0.89228  1.0000
  Zn  Zn11      1.0  0.9706299999999999  0.55009  0.56103  1.0000
  Zn  Zn12      1.0  0.16558  0.54522  0.60915  1.0000
  Zn  Zn13      1.0  0.9704399999999997  0.94892  0.060770000000000005  1.0000
  Zn  Zn14      1.0  0.16538999999999998  0.9549499999999999  0.10772  1.0000
  Zn  Zn15      1.0  0.029369999999999997  0.4499  0.4389700000000001  1.0000
  Zn  Zn16      1.0  0.83442  0.4547699999999999  0.39085  1.0000
  H   H1        1.0  0.6270799999999997  0.94268  0.51726  1.0000
  H   H2        1.0  0.36211  0.12768  0.29756  1.0000
  H   H3        1.0  0.33628999999999987  0.24321999999999996  0.21502  1.0000
  H   H4        1.0  0.61257  0.2307  0.14327  1.0000
  H   H5        1.0  0.6384099999999999  0.1154  0.22584999999999997  1.0000
  H   H6        1.0  0.9212199999999998  0.8872999999999998  0.55827  1.0000
  H   H7        1.0  0.9225499999999998  0.0743  0.4011  1.0000
  H   H8        1.0  0.37487  0.4424299999999999  0.9814499999999999  1.0000
  H   H9        1.0  0.63691  0.62634  0.20246  1.0000
  H   H10       1.0  0.66265  0.7427599999999998  0.28469  1.0000
  H   H11       1.0  0.38649  0.73048  0.35671  1.0000
  H   H12       1.0  0.36099  0.6143  0.27441  1.0000
  H   H13       1.0  0.07987  0.38729  0.9423099999999999  1.0000
  H   H14       1.0  0.07675999999999997  0.576  0.09852  1.0000
  H   H15       1.0  0.37291999999999986  0.05732  0.48274000000000006  1.0000
  H   H16       1.0  0.6378899999999997  0.87231  0.70243  1.0000
  H   H17       1.0  0.6637099999999998  0.7567799999999998  0.78498  1.0000
  H   H18       1.0  0.38744  0.7693  0.85673  1.0000
  H   H19       1.0  0.3615899999999999  0.8845899999999998  0.77415  1.0000
  H   H20       1.0  0.07877999999999998  0.11269  0.44173  1.0000
  H   H21       1.0  0.07745  0.9256999999999999  0.5989  1.0000
  H   H22       1.0  0.62513  0.55756  0.01855  1.0000
  H   H23       1.0  0.3630899999999999  0.37366  0.79753  1.0000
  H   H24       1.0  0.33735  0.25723  0.71531  1.0000
  H   H25       1.0  0.6135099999999998  0.26952  0.64329  1.0000
  H   H26       1.0  0.6390099999999997  0.3856999999999999  0.72558  1.0000
  H   H27       1.0  0.9201299999999998  0.61271  0.05768  1.0000
  H   H28       1.0  0.9232399999999997  0.4239999999999999  0.90148  1.0000
  H   H29       1.0  0.87488  0.05756  0.01855  1.0000
  H   H30       1.0  0.13690999999999998  0.8736599999999998  0.79753  1.0000
  H   H31       1.0  0.16264999999999993  0.7572299999999997  0.71531  1.0000
  H   H32       1.0  0.8864899999999998  0.76952  0.64329  1.0000
  H   H33       1.0  0.8609899999999998  0.8856999999999998  0.72558  1.0000
  H   H34       1.0  0.57987  0.11271  0.05768  1.0000
  H   H35       1.0  0.5767599999999998  0.9239999999999998  0.90148  1.0000
  H   H36       1.0  0.12708  0.55732  0.48274000000000006  1.0000
  H   H37       1.0  0.8621099999999998  0.37231  0.70243  1.0000
  H   H38       1.0  0.8362899999999998  0.25678  0.78498  1.0000
  H   H39       1.0  0.11255999999999997  0.2693  0.85673  1.0000
  H   H40       1.0  0.13841  0.38459  0.77415  1.0000
  H   H41       1.0  0.42121999999999993  0.6126899999999997  0.44173  1.0000
  H   H42       1.0  0.42255  0.4256999999999999  0.5989  1.0000
  H   H43       1.0  0.12511999999999998  0.94243  0.9814499999999999  1.0000
  H   H44       1.0  0.86309  0.12634  0.20246  1.0000
  H   H45       1.0  0.83735  0.24275999999999998  0.28469  1.0000
  H   H46       1.0  0.11350999999999997  0.23048  0.35671  1.0000
  H   H47       1.0  0.13901  0.1143  0.27441  1.0000
  H   H48       1.0  0.42013  0.8872899999999998  0.9423099999999999  1.0000
  H   H49       1.0  0.42323999999999995  0.07599999999999997  0.09852  1.0000
  H   H50       1.0  0.8729299999999998  0.44268  0.51726  1.0000
  H   H51       1.0  0.13789  0.62768  0.29756  1.0000
  H   H52       1.0  0.16370999999999994  0.74322  0.21502  1.0000
  H   H53       1.0  0.8874399999999998  0.7306999999999998  0.14327  1.0000
  H   H54       1.0  0.8615899999999997  0.6154  0.22584999999999997  1.0000
  H   H55       1.0  0.5787799999999997  0.3873  0.55827  1.0000
  H   H56       1.0  0.5774499999999998  0.5743  0.4011  1.0000
  C   C1        1.0  0.5204899999999998  0.04981  0.3187  1.0000
  C   C2        1.0  0.50203  0.11532  0.26671  1.0000
  C   C3        1.0  0.4161899999999999  0.15045  0.26339  1.0000
  C   C4        1.0  0.4018699999999999  0.21450999999999998  0.21765  1.0000
  C   C5        1.0  0.47300999999999993  0.24396  0.17479  1.0000
  C   C6        1.0  0.55829  0.20770999999999995  0.17707  1.0000
  C   C7        1.0  0.5726199999999998  0.14373999999999998  0.2228  1.0000
  C   C8        1.0  0.4588899999999999  0.31631  0.1303  1.0000
  C   C9        1.0  0.81959  0.95588  0.45541  1.0000
  C   C10       1.0  0.9130099999999998  0.97849  0.4777  1.0000
  C   C11       1.0  0.95645  0.9365199999999998  0.53344  1.0000
  C   C12       1.0  0.9569999999999997  0.04218  0.4441800000000001  1.0000
  C   C13       1.0  0.4790599999999999  0.5478  0.18233  1.0000
  C   C14       1.0  0.4971899999999999  0.6140899999999998  0.23372  1.0000
  C   C15       1.0  0.5829399999999998  0.64936  0.23667  1.0000
  C   C16       1.0  0.5972299999999998  0.7138199999999998  0.2821  1.0000
  C   C17       1.0  0.52609  0.7435899999999998  0.32489  1.0000
  C   C18       1.0  0.4408299999999999  0.70732  0.32296  1.0000
  C   C19       1.0  0.42661  0.6428699999999999  0.27751  1.0000
  C   C20       1.0  0.54079  0.81667  0.36842  1.0000
  C   C21       1.0  0.181  0.4582  0.04438  1.0000
  C   C22       1.0  0.08724  0.47951999999999995  0.02233  1.0000
  C   C23       1.0  0.044169999999999994  0.4365499999999999  0.96689  1.0000
  C   C24       1.0  0.04263  0.5431899999999997  0.05559000000000001  1.0000
  C   C25       1.0  0.4795099999999999  0.9501799999999999  0.68129  1.0000
  C   C26       1.0  0.4979699999999999  0.88468  0.73328  1.0000
  C   C27       1.0  0.5838099999999999  0.8495499999999998  0.73661  1.0000
  C   C28       1.0  0.59813  0.78549  0.78235  1.0000
  C   C29       1.0  0.52699  0.75604  0.8252  1.0000
  C   C30       1.0  0.44171  0.79229  0.82292  1.0000
  C   C31       1.0  0.42738  0.85626  0.7772  1.0000
  C   C32       1.0  0.54111  0.68369  0.8697  1.0000
  C   C33       1.0  0.18041  0.04411  0.54458  1.0000
  C   C34       1.0  0.08699  0.02149999999999999  0.5223  1.0000
  C   C35       1.0  0.04355  0.06348  0.46656  1.0000
  C   C36       1.0  0.04299999999999998  0.95782  0.55581  1.0000
  C   C37       1.0  0.5209399999999997  0.45219  0.81766  1.0000
  C   C38       1.0  0.50281  0.38590999999999986  0.76628  1.0000
  C   C39       1.0  0.41706  0.35064  0.76333  1.0000
  C   C40       1.0  0.40277  0.28618  0.71789  1.0000
  C   C41       1.0  0.47390999999999994  0.2564099999999999  0.6751  1.0000
  C   C42       1.0  0.55917  0.29268  0.67704  1.0000
  C   C43       1.0  0.5733899999999997  0.35713  0.72249  1.0000
  C   C44       1.0  0.4592099999999999  0.18333  0.63157  1.0000
  C   C45       1.0  0.8189999999999997  0.5418  0.95562  1.0000
  C   C46       1.0  0.91276  0.5204799999999998  0.97767  1.0000
  C   C47       1.0  0.9558299999999997  0.5634499999999999  0.03311  1.0000
  C   C48       1.0  0.9573699999999998  0.45681  0.94441  1.0000
  C   C49       1.0  0.9790599999999998  0.95219  0.81766  1.0000
  C   C50       1.0  0.9971999999999998  0.88591  0.76628  1.0000
  C   C51       1.0  0.08293999999999997  0.85064  0.76333  1.0000
  C   C52       1.0  0.09722999999999998  0.78618  0.71789  1.0000
  C   C53       1.0  0.02609  0.75641  0.6751  1.0000
  C   C54       1.0  0.94083  0.7926799999999998  0.67704  1.0000
  C   C55       1.0  0.9266099999999998  0.85713  0.72249  1.0000
  C   C56       1.0  0.04079  0.6833299999999998  0.63157  1.0000
  C   C57       1.0  0.6809999999999998  0.0418  0.95562  1.0000
  C   C58       1.0  0.58724  0.020479999999999995  0.97767  1.0000
  C   C59       1.0  0.5441699999999998  0.06345  0.03311  1.0000
  C   C60       1.0  0.5426299999999997  0.9568099999999999  0.94441  1.0000
  C   C61       1.0  0.02049  0.45018  0.68129  1.0000
  C   C62       1.0  0.00203  0.38468  0.73328  1.0000
  C   C63       1.0  0.9161999999999998  0.34955  0.73661  1.0000
  C   C64       1.0  0.9018699999999998  0.28547999999999996  0.78235  1.0000
  C   C65       1.0  0.9730099999999998  0.25604  0.8252  1.0000
  C   C66       1.0  0.05829  0.29228999999999994  0.82292  1.0000
  C   C67       1.0  0.07262  0.3562599999999999  0.7772  1.0000
  C   C68       1.0  0.9588899999999998  0.18369  0.8697  1.0000
  C   C69       1.0  0.31959  0.54411  0.54458  1.0000
  C   C70       1.0  0.41301  0.5215  0.5223  1.0000
  C   C71       1.0  0.4564499999999999  0.56348  0.46656  1.0000
  C   C72       1.0  0.45699999999999996  0.4578199999999999  0.55581  1.0000
  C   C73       1.0  0.02094  0.0478  0.18233  1.0000
  C   C74       1.0  0.002809999999999999  0.11409  0.23372  1.0000
  C   C75       1.0  0.9170599999999998  0.14936  0.23667  1.0000
  C   C76       1.0  0.9027699999999999  0.21382  0.2821  1.0000
  C   C77       1.0  0.9739199999999998  0.24358999999999997  0.32489  1.0000
  C   C78       1.0  0.059169999999999986  0.20731999999999995  0.32296  1.0000
  C   C79       1.0  0.07338999999999997  0.14287  0.27751  1.0000
  C   C80       1.0  0.9592099999999998  0.31667  0.36842  1.0000
  C   C81       1.0  0.3189999999999999  0.9581999999999999  0.04438  1.0000
  C   C82       1.0  0.4127599999999999  0.97952  0.02233  1.0000
  C   C83       1.0  0.4558299999999999  0.93655  0.96689  1.0000
  C   C84       1.0  0.4573699999999999  0.04319  0.05559000000000001  1.0000
  C   C85       1.0  0.9795099999999998  0.54981  0.3187  1.0000
  C   C86       1.0  0.9979699999999999  0.61532  0.26671  1.0000
  C   C87       1.0  0.08380999999999997  0.65045  0.26339  1.0000
  C   C88       1.0  0.09812999999999997  0.7145099999999998  0.21765  1.0000
  C   C89       1.0  0.026989999999999993  0.74396  0.17479  1.0000
  C   C90       1.0  0.9417099999999998  0.7077099999999997  0.17707  1.0000
  C   C91       1.0  0.9273799999999998  0.6437399999999998  0.2228  1.0000
  C   C92       1.0  0.04110999999999999  0.81631  0.1303  1.0000
  C   C93       1.0  0.68041  0.45588  0.45541  1.0000
  C   C94       1.0  0.5869899999999998  0.47849  0.4777  1.0000
  C   C95       1.0  0.54355  0.43652  0.53344  1.0000
  C   C96       1.0  0.543  0.5421799999999998  0.4441800000000001  1.0000
  O   O1        1.0  0.59208  0.98073  0.48863  1.0000
  O   O2        1.0  0.45441999999999994  0.02475  0.35775  1.0000
  O   O3        1.0  0.6013699999999997  0.0244  0.32147  1.0000
  O   O4        1.0  0.52725  0.3412  0.09281  1.0000
  O   O5        1.0  0.38165  0.34892  0.1333  1.0000
  O   O6        1.0  0.7898899999999998  0.98834  0.39528  1.0000
  O   O7        1.0  0.7722299999999997  0.9093899999999998  0.49267  1.0000
  O   O8        1.0  0.40857  0.48062  0.01104  1.0000
  O   O9        1.0  0.54477  0.52447  0.14178  1.0000
  O   O10       1.0  0.3991499999999999  0.51999  0.18144  1.0000
  O   O11       1.0  0.47339  0.84183  0.40699  1.0000
  O   O12       1.0  0.61783  0.8494299999999998  0.36326  1.0000
  O   O13       1.0  0.21157999999999993  0.49190999999999996  0.10381  1.0000
  O   O14       1.0  0.22819999999999993  0.41132  0.007259999999999999  1.0000
  O   O15       1.0  0.4079199999999999  0.019269999999999995  0.51136  1.0000
  O   O16       1.0  0.54558  0.97525  0.64225  1.0000
  O   O17       1.0  0.39863  0.9756  0.67853  1.0000
  O   O18       1.0  0.4727499999999999  0.6588  0.90719  1.0000
  O   O19       1.0  0.6183499999999997  0.65108  0.8667  1.0000
  O   O20       1.0  0.21010999999999994  0.01166  0.60472  1.0000
  O   O21       1.0  0.22776999999999997  0.09060999999999997  0.50733  1.0000
  O   O22       1.0  0.59143  0.51938  0.9889599999999998  1.0000
  O   O23       1.0  0.4552299999999999  0.47552999999999995  0.85822  1.0000
  O   O24       1.0  0.60085  0.48  0.81856  1.0000
  O   O25       1.0  0.5266099999999998  0.15816999999999995  0.59301  1.0000
  O   O26       1.0  0.38217  0.15057  0.63673  1.0000
  O   O27       1.0  0.7884299999999997  0.50809  0.8961899999999999  1.0000
  O   O28       1.0  0.7717999999999998  0.58868  0.99273  1.0000
  O   O29       1.0  0.9085699999999998  0.01938  0.9889599999999998  1.0000
  O   O30       1.0  0.04476999999999998  0.97553  0.85822  1.0000
  O   O31       1.0  0.89915  0.9799999999999999  0.81856  1.0000
  O   O32       1.0  0.9733899999999998  0.65817  0.59301  1.0000
  O   O33       1.0  0.11783  0.65057  0.63673  1.0000
  O   O34       1.0  0.7115799999999998  0.00809  0.89618  1.0000
  O   O35       1.0  0.7281999999999997  0.08868000000000001  0.99273  1.0000
  O   O36       1.0  0.09207999999999997  0.51927  0.51136  1.0000
  O   O37       1.0  0.95442  0.47525  0.64225  1.0000
  O   O38       1.0  0.10137  0.4756  0.67853  1.0000
  O   O39       1.0  0.027249999999999993  0.1588  0.90719  1.0000
  O   O40       1.0  0.8816499999999998  0.15107999999999994  0.8667  1.0000
  O   O41       1.0  0.28988999999999987  0.51166  0.60472  1.0000
  O   O42       1.0  0.27223  0.59061  0.50733  1.0000
  O   O43       1.0  0.09142999999999998  0.98062  0.01104  1.0000
  O   O44       1.0  0.9552299999999999  0.024469999999999992  0.14178  1.0000
  O   O45       1.0  0.10085  0.01999  0.18144  1.0000
  O   O46       1.0  0.02661  0.34183  0.40699  1.0000
  O   O47       1.0  0.88217  0.34943  0.36326  1.0000
  O   O48       1.0  0.2884299999999999  0.99191  0.10381  1.0000
  O   O49       1.0  0.27179999999999993  0.91132  0.007259999999999999  1.0000
  O   O50       1.0  0.90792  0.48072999999999994  0.48863  1.0000
  O   O51       1.0  0.04558  0.52475  0.35775  1.0000
  O   O52       1.0  0.8986299999999998  0.5244  0.32147  1.0000
  O   O53       1.0  0.97275  0.8411999999999997  0.09281  1.0000
  O   O54       1.0  0.11835  0.84892  0.1333  1.0000
  O   O55       1.0  0.7101099999999998  0.48834  0.39528  1.0000
  O   O56       1.0  0.7277699999999998  0.40938999999999987  0.49267  1.0000
