data_image0
_chemical_formula_structural       La4Co4H72C144N24O48
_chemical_formula_sum              "La4 Co4 H72 C144 N24 O48"
_cell_length_a       18.37688
_cell_length_b       18.39103
_cell_length_c       21.86721
_cell_angle_alpha    110.76991
_cell_angle_beta     110.61414
_cell_angle_gamma    99.02115999999998

_space_group_name_H-M_alt    "P 1"
_space_group_IT_number       1

loop_
  _space_group_symop_operation_xyz
  'x, y, z'

loop_
  _atom_site_type_symbol
  _atom_site_label
  _atom_site_symmetry_multiplicity
  _atom_site_fract_x
  _atom_site_fract_y
  _atom_site_fract_z
  _atom_site_occupancy
  La  La1       1.0  0.64727  0.39765  0.25020000000000003  1.0000
  La  La2       1.0  0.10317  0.85322  0.24980000000000002  1.0000
  La  La3       1.0  0.35272999999999993  0.60235  0.7498  1.0000
  La  La4       1.0  0.89682  0.14677999999999994  0.7502  1.0000
  Co  Co1       1.0  0.60936  0.8915999999999998  0.25020000000000003  1.0000
  Co  Co2       1.0  0.14067  0.359  0.24989000000000003  1.0000
  Co  Co3       1.0  0.3906299999999999  0.10840000000000002  0.7498  1.0000
  Co  Co4       1.0  0.8593299999999998  0.64099  0.75011  1.0000
  H   H1        1.0  0.5398799999999999  0.9479  0.13259000000000004  1.0000
  H   H2        1.0  0.54329  0.08794  0.13738  1.0000
  H   H3        1.0  0.69479  0.19574000000000008  0.3669800000000001  1.0000
  H   H4        1.0  0.7594600000000001  0.16967000000000002  0.4575600000000001  1.0000
  H   H5        1.0  0.78373  0.97683  0.5209  1.0000
  H   H6        1.0  0.69508  0.87386  0.38968000000000014  1.0000
  H   H7        1.0  0.9937399999999997  0.23355  0.22802000000000003  1.0000
  H   H8        1.0  0.8556499999999999  0.23910999999999996  0.22363000000000002  1.0000
  H   H9        1.0  0.9229599999999999  0.48681  0.25314  1.0000
  H   H10       1.0  0.09250000000000003  0.18506000000000006  0.13206000000000004  1.0000
  H   H11       1.0  0.09402  0.049890000000000004  0.1368  1.0000
  H   H12       1.0  0.17152999999999993  0.17143  0.36649  1.0000
  H   H13       1.0  0.19777  0.28795  0.45712  1.0000
  H   H14       1.0  0.23703  0.54416  0.52104  1.0000
  H   H15       1.0  0.19434999999999994  0.51625  0.38967  1.0000
  H   H16       1.0  0.73427  0.9952099999999999  0.22821  1.0000
  H   H17       1.0  0.8676999999999998  0.98492  0.223  1.0000
  H   H18       1.0  0.8296199999999998  0.76643  0.25215  1.0000
  H   H19       1.0  0.55273  0.96114  0.36803  1.0000
  H   H20       1.0  0.41283000000000003  0.95744  0.36337  1.0000
  H   H21       1.0  0.30543  0.80524  0.13369  1.0000
  H   H22       1.0  0.33159  0.74115  0.0434  1.0000
  H   H23       1.0  0.52397  0.71579  0.97913  1.0000
  H   H24       1.0  0.62719  0.80505  0.11022  1.0000
  H   H25       1.0  0.26725  0.50574  0.27245  1.0000
  H   H26       1.0  0.26261  0.644  0.27709  1.0000
  H   H27       1.0  0.014729999999999998  0.57813  0.24767  1.0000
  H   H28       1.0  0.31439  0.40668  0.36758  1.0000
  H   H29       1.0  0.4498200000000001  0.40650000000000003  0.3630900000000001  1.0000
  H   H30       1.0  0.32894  0.32874000000000003  0.13335000000000005  1.0000
  H   H31       1.0  0.21242999999999998  0.30187  0.04267  1.0000
  H   H32       1.0  0.95619  0.26258  0.97888  1.0000
  H   H33       1.0  0.9838  0.30526  0.11019  1.0000
  H   H34       1.0  0.50496  0.76682  0.27213  1.0000
  H   H35       1.0  0.51464  0.63358  0.27715  1.0000
  H   H36       1.0  0.7331  0.67021  0.24748  1.0000
  H   H37       1.0  0.46011  0.052100000000000105  0.8674100000000002  1.0000
  H   H38       1.0  0.4567100000000001  0.9120600000000001  0.8626300000000001  1.0000
  H   H39       1.0  0.30521  0.8042499999999999  0.63302  1.0000
  H   H40       1.0  0.24054000000000006  0.8303199999999998  0.54244  1.0000
  H   H41       1.0  0.21627  0.023159999999999997  0.47911  1.0000
  H   H42       1.0  0.30492  0.12614000000000009  0.6103300000000002  1.0000
  H   H43       1.0  0.006259999999999971  0.76645  0.77198  1.0000
  H   H44       1.0  0.14434999999999998  0.76088  0.77637  1.0000
  H   H45       1.0  0.07704000000000011  0.5131900000000003  0.7468600000000002  1.0000
  H   H46       1.0  0.9075  0.81494  0.86794  1.0000
  H   H47       1.0  0.90598  0.9501  0.8632100000000001  1.0000
  H   H48       1.0  0.8284699999999999  0.8285600000000002  0.6335100000000002  1.0000
  H   H49       1.0  0.80223  0.71205  0.54288  1.0000
  H   H50       1.0  0.76296  0.45583  0.47896  1.0000
  H   H51       1.0  0.80565  0.48375  0.61034  1.0000
  H   H52       1.0  0.26573  0.004789999999999999  0.77179  1.0000
  H   H53       1.0  0.13230000000000006  0.01508000000000001  0.777  1.0000
  H   H54       1.0  0.17037999999999995  0.23356  0.74785  1.0000
  H   H55       1.0  0.44727  0.03886  0.63198  1.0000
  H   H56       1.0  0.58716  0.042559999999999966  0.63663  1.0000
  H   H57       1.0  0.69457  0.19475  0.86632  1.0000
  H   H58       1.0  0.6683999999999999  0.25885  0.95661  1.0000
  H   H59       1.0  0.47603  0.2842  0.02087  1.0000
  H   H60       1.0  0.3728099999999999  0.19493999999999997  0.88978  1.0000
  H   H61       1.0  0.73275  0.4942500000000001  0.72756  1.0000
  H   H62       1.0  0.7373800000000001  0.35599000000000003  0.7229100000000002  1.0000
  H   H63       1.0  0.9852599999999999  0.4218600000000001  0.7523300000000003  1.0000
  H   H64       1.0  0.68561  0.59332  0.6324300000000002  1.0000
  H   H65       1.0  0.55018  0.5935  0.63691  1.0000
  H   H66       1.0  0.67105  0.67125  0.86665  1.0000
  H   H67       1.0  0.7875699999999999  0.69813  0.95733  1.0000
  H   H68       1.0  0.04381000000000001  0.73742  0.02112  1.0000
  H   H69       1.0  0.016190000000000055  0.69474  0.88981  1.0000
  H   H70       1.0  0.49503  0.23317999999999994  0.72788  1.0000
  H   H71       1.0  0.48536  0.36642  0.72285  1.0000
  H   H72       1.0  0.2669000000000001  0.3297800000000002  0.7525200000000002  1.0000
  C   C1        1.0  0.57287  0.003729999999999995  0.18341  1.0000
  C   C2        1.0  0.57516  0.08071  0.18617  1.0000
  C   C3        1.0  0.61913  0.15099  0.253  1.0000
  C   C4        1.0  0.66001  0.14109  0.31513  1.0000
  C   C5        1.0  0.65524  0.062450000000000006  0.30958  1.0000
  C   C6        1.0  0.69445  0.04471000000000001  0.37087  1.0000
  C   C7        1.0  0.74448  0.10407999999999999  0.44215  1.0000
  C   C8        1.0  0.77712  0.08037999999999994  0.49722  1.0000
  C   C9        1.0  0.7592000000000001  0.9963700000000001  0.47841000000000006  1.0000
  C   C10       1.0  0.70992  0.93943  0.40614  1.0000
  C   C11       1.0  0.62318  0.23609  0.25783  1.0000
  C   C12       1.0  0.82907  0.14657  0.57583  1.0000
  C   C13       1.0  0.97602  0.28813  0.2327  1.0000
  C   C14       1.0  0.90033  0.29148  0.23063  1.0000
  C   C15       1.0  0.88116  0.36391000000000007  0.23879  1.0000
  C   C16       1.0  0.9380800000000001  0.43038  0.24632000000000004  1.0000
  C   C17       1.0  0.012590000000000013  0.4233700000000001  0.24646000000000004  1.0000
  C   C18       1.0  0.8019399999999998  0.37154999999999994  0.24289  1.0000
  C   C19       1.0  0.11025  0.18006  0.18291  1.0000
  C   C20       1.0  0.11087  0.10587  0.18565  1.0000
  C   C21       1.0  0.13375000000000004  0.10245000000000004  0.25253000000000003  1.0000
  C   C22       1.0  0.15466  0.17436  0.31467  1.0000
  C   C23       1.0  0.15382  0.24744999999999998  0.30915  1.0000
  C   C24       1.0  0.17587  0.32643  0.37051  1.0000
  C   C25       1.0  0.19736000000000006  0.3382400000000001  0.4418500000000001  1.0000
  C   C26       1.0  0.21998000000000006  0.4169399999999999  0.49707  1.0000
  C   C27       1.0  0.21905999999999998  0.48223999999999995  0.47837  1.0000
  C   C28       1.0  0.1959  0.46705  0.40604000000000007  1.0000
  C   C29       1.0  0.1349  0.022310000000000007  0.25743  1.0000
  C   C30       1.0  0.24630999999999995  0.4293100000000001  0.57569  1.0000
  C   C31       1.0  0.7565799999999999  0.94514  0.23250000000000004  1.0000
  C   C32       1.0  0.83002  0.93955  0.23004  1.0000
  C   C33       1.0  0.8573099999999998  0.87516  0.23799  1.0000
  C   C34       1.0  0.80793  0.81623  0.24557  1.0000
  C   C35       1.0  0.73378  0.82361  0.24616  1.0000
  C   C36       1.0  0.94074  0.87198  0.24207  1.0000
  C   C37       1.0  0.49703  0.928  0.31717  1.0000
  C   C38       1.0  0.41998999999999986  0.92548  0.31446  1.0000
  C   C39       1.0  0.34982  0.88146  0.24760000000000001  1.0000
  C   C40       1.0  0.35995999999999984  0.84035  0.18553000000000003  1.0000
  C   C41       1.0  0.43867999999999996  0.84544  0.19101  1.0000
  C   C42       1.0  0.45653  0.80613  0.12965  1.0000
  C   C43       1.0  0.3971  0.7559  0.05845000000000001  1.0000
  C   C44       1.0  0.4206  0.72298  0.0031600000000000005  1.0000
  C   C45       1.0  0.50459  0.74067  0.021780000000000008  1.0000
  C   C46       1.0  0.5616399999999999  0.79025  0.09398  1.0000
  C   C47       1.0  0.26463  0.8779000000000001  0.24253000000000002  1.0000
  C   C48       1.0  0.35431000000000007  0.67104  0.92459  1.0000
  C   C49       1.0  0.21279999999999996  0.52376  0.26775  1.0000
  C   C50       1.0  0.20999000000000004  0.59961  0.27006  1.0000
  C   C51       1.0  0.13772  0.6192200000000001  0.26188  1.0000
  C   C52       1.0  0.07096  0.56261  0.25432000000000005  1.0000
  C   C53       1.0  0.07740999999999998  0.48786999999999997  0.25383  1.0000
  C   C54       1.0  0.13069  0.69842  0.25745  1.0000
  C   C55       1.0  0.31955999999999996  0.3891800000000001  0.31675000000000003  1.0000
  C   C56       1.0  0.39399  0.38928  0.31412  1.0000
  C   C57       1.0  0.39781  0.36681  0.24734  1.0000
  C   C58       1.0  0.32586999999999994  0.3454  0.18516  1.0000
  C   C59       1.0  0.25255  0.34564  0.19059  1.0000
  C   C60       1.0  0.17367  0.32361  0.12927  1.0000
  C   C61       1.0  0.16207999999999997  0.30228  0.05797000000000001  1.0000
  C   C62       1.0  0.0835  0.27981  0.0027900000000000004  1.0000
  C   C63       1.0  0.018079999999999992  0.28062  0.021490000000000006  1.0000
  C   C64       1.0  0.03308000000000001  0.30373000000000006  0.09379000000000001  1.0000
  C   C65       1.0  0.47830999999999996  0.36653  0.24260000000000004  1.0000
  C   C66       1.0  0.07152999999999993  0.25330999999999987  0.92421  1.0000
  C   C67       1.0  0.55497  0.7444  0.26769  1.0000
  C   C68       1.0  0.5602899999999998  0.67097  0.27017  1.0000
  C   C69       1.0  0.62467  0.64347  0.26229  1.0000
  C   C70       1.0  0.6835900000000001  0.69242  0.25435  1.0000
  C   C71       1.0  0.67649  0.76658  0.25377  1.0000
  C   C72       1.0  0.6282399999999999  0.56036  0.25865000000000005  1.0000
  C   C73       1.0  0.42712000000000006  0.9962600000000003  0.8165900000000003  1.0000
  C   C74       1.0  0.42484  0.91928  0.81383  1.0000
  C   C75       1.0  0.38087000000000004  0.84901  0.747  1.0000
  C   C76       1.0  0.3399900000000001  0.8589100000000001  0.6848700000000002  1.0000
  C   C77       1.0  0.34475  0.93755  0.69042  1.0000
  C   C78       1.0  0.30555  0.95528  0.62914  1.0000
  C   C79       1.0  0.25552  0.89591  0.55785  1.0000
  C   C80       1.0  0.22288  0.9196099999999999  0.50279  1.0000
  C   C81       1.0  0.24079999999999996  0.003629999999999976  0.5216  1.0000
  C   C82       1.0  0.29008  0.06057000000000001  0.59387  1.0000
  C   C83       1.0  0.37681000000000003  0.7639  0.74217  1.0000
  C   C84       1.0  0.17093  0.85342  0.42417  1.0000
  C   C85       1.0  0.023979999999999987  0.71186  0.76731  1.0000
  C   C86       1.0  0.09966999999999998  0.70852  0.76937  1.0000
  C   C87       1.0  0.11883999999999999  0.63609  0.76121  1.0000
  C   C88       1.0  0.06191999999999998  0.56961  0.75368  1.0000
  C   C89       1.0  0.9874099999999999  0.57663  0.75354  1.0000
  C   C90       1.0  0.19805999999999999  0.62844  0.75711  1.0000
  C   C91       1.0  0.8897400000000002  0.8199300000000002  0.8170900000000002  1.0000
  C   C92       1.0  0.8891199999999999  0.89413  0.81436  1.0000
  C   C93       1.0  0.8662500000000001  0.89754  0.7474700000000001  1.0000
  C   C94       1.0  0.8453399999999996  0.82563  0.6853300000000001  1.0000
  C   C95       1.0  0.8461800000000005  0.75254  0.69086  1.0000
  C   C96       1.0  0.82413  0.67356  0.6295000000000002  1.0000
  C   C97       1.0  0.80264  0.66176  0.55815  1.0000
  C   C98       1.0  0.7800199999999999  0.58305  0.50293  1.0000
  C   C99       1.0  0.78094  0.51775  0.52164  1.0000
  C   C100      1.0  0.8040999999999998  0.53295  0.59397  1.0000
  C   C101      1.0  0.8650999999999999  0.9776800000000001  0.7425800000000001  1.0000
  C   C102      1.0  0.75369  0.57069  0.42432  1.0000
  C   C103      1.0  0.24342  0.054860000000000034  0.7675  1.0000
  C   C104      1.0  0.16998000000000008  0.06044000000000011  0.7699600000000002  1.0000
  C   C105      1.0  0.14268999999999998  0.12483999999999999  0.76202  1.0000
  C   C106      1.0  0.19206  0.18376000000000006  0.75443  1.0000
  C   C107      1.0  0.26622  0.17637999999999995  0.75385  1.0000
  C   C108      1.0  0.05926000000000001  0.12802  0.75793  1.0000
  C   C109      1.0  0.50296  0.07198999999999997  0.68284  1.0000
  C   C110      1.0  0.58001  0.07451999999999999  0.68555  1.0000
  C   C111      1.0  0.65018  0.1185300000000001  0.7524000000000002  1.0000
  C   C112      1.0  0.6400299999999999  0.15964000000000012  0.8144700000000002  1.0000
  C   C113      1.0  0.56132  0.1545500000000001  0.8090000000000002  1.0000
  C   C114      1.0  0.5434699999999999  0.19386  0.87035  1.0000
  C   C115      1.0  0.6028899999999999  0.24408999999999995  0.9415500000000001  1.0000
  C   C116      1.0  0.5794  0.27700999999999987  0.99684  1.0000
  C   C117      1.0  0.49541  0.25932  0.97822  1.0000
  C   C118      1.0  0.43835999999999997  0.20974000000000007  0.90602  1.0000
  C   C119      1.0  0.73537  0.12209999999999997  0.75747  1.0000
  C   C120      1.0  0.64569  0.32896  0.07542000000000003  1.0000
  C   C121      1.0  0.7871999999999998  0.47622999999999993  0.73225  1.0000
  C   C122      1.0  0.7900100000000001  0.40039  0.7299500000000001  1.0000
  C   C123      1.0  0.86228  0.3807700000000001  0.7381200000000002  1.0000
  C   C124      1.0  0.92904  0.43738  0.74569  1.0000
  C   C125      1.0  0.9225899999999999  0.51212  0.74617  1.0000
  C   C126      1.0  0.86931  0.3015800000000001  0.7425500000000003  1.0000
  C   C127      1.0  0.6804299999999999  0.61082  0.6832500000000001  1.0000
  C   C128      1.0  0.60601  0.61071  0.68588  1.0000
  C   C129      1.0  0.6021900000000004  0.6331900000000003  0.7526700000000002  1.0000
  C   C130      1.0  0.67413  0.6546000000000001  0.8148500000000001  1.0000
  C   C131      1.0  0.7474499999999997  0.65436  0.80941  1.0000
  C   C132      1.0  0.82633  0.67638  0.87073  1.0000
  C   C133      1.0  0.8379199999999999  0.69771  0.94203  1.0000
  C   C134      1.0  0.9164999999999999  0.7201800000000002  0.9972100000000002  1.0000
  C   C135      1.0  0.98192  0.71937  0.97852  1.0000
  C   C136      1.0  0.96692  0.69626  0.90621  1.0000
  C   C137      1.0  0.5216800000000001  0.63346  0.7574000000000001  1.0000
  C   C138      1.0  0.92846  0.74668  0.07579000000000001  1.0000
  C   C139      1.0  0.44502  0.2555899999999999  0.73231  1.0000
  C   C140      1.0  0.4397000000000001  0.32902000000000003  0.7298400000000002  1.0000
  C   C141      1.0  0.37533  0.35652  0.73771  1.0000
  C   C142      1.0  0.3164100000000001  0.30756999999999995  0.7456600000000001  1.0000
  C   C143      1.0  0.32351  0.23341000000000003  0.74623  1.0000
  C   C144      1.0  0.37175999999999987  0.43964  0.74136  1.0000
  N   N1        1.0  0.6119599999999998  0.9943799999999999  0.24399000000000004  1.0000
  N   N2        1.0  0.67736  0.96277  0.3531200000000001  1.0000
  N   N3        1.0  0.03131  0.35272999999999993  0.24053  1.0000
  N   N4        1.0  0.13164  0.24995  0.24354  1.0000
  N   N5        1.0  0.17534  0.39072  0.35287000000000013  1.0000
  N   N6        1.0  0.7092199999999999  0.88843  0.24049000000000004  1.0000
  N   N7        1.0  0.50661  0.88912  0.25656  1.0000
  N   N8        1.0  0.53843  0.82327  0.14717  1.0000
  N   N9        1.0  0.1478  0.46865  0.25959  1.0000
  N   N10       1.0  0.24974000000000005  0.36752  0.2561300000000001  1.0000
  N   N11       1.0  0.10928  0.3242  0.14692  1.0000
  N   N12       1.0  0.61187  0.79154  0.25969000000000003  1.0000
  N   N13       1.0  0.38803999999999994  0.005610000000000057  0.7560200000000001  1.0000
  N   N14       1.0  0.32264  0.03722000000000003  0.64688  1.0000
  N   N15       1.0  0.96869  0.64726  0.75947  1.0000
  N   N16       1.0  0.8683499999999997  0.75004  0.75647  1.0000
  N   N17       1.0  0.82466  0.6092700000000001  0.6471300000000001  1.0000
  N   N18       1.0  0.29078  0.11155999999999998  0.75951  1.0000
  N   N19       1.0  0.49339  0.11086999999999997  0.74345  1.0000
  N   N20       1.0  0.46157  0.17673000000000003  0.85283  1.0000
  N   N21       1.0  0.85219  0.53135  0.74041  1.0000
  N   N22       1.0  0.75025  0.63248  0.74387  1.0000
  N   N23       1.0  0.8907099999999999  0.6758  0.8530800000000001  1.0000
  N   N24       1.0  0.38813  0.20845000000000002  0.7403100000000001  1.0000
  O   O1        1.0  0.5777799999999998  0.23832  0.19984  1.0000
  O   O2        1.0  0.67211  0.29679  0.31816  1.0000
  O   O3        1.0  0.8426799999999999  0.21916999999999995  0.58524  1.0000
  O   O4        1.0  0.85074  0.11665999999999999  0.6215  1.0000
  O   O5        1.0  0.74649  0.30593000000000004  0.22209000000000004  1.0000
  O   O6        1.0  0.7993  0.44394000000000006  0.26934  1.0000
  O   O7        1.0  0.12315  0.96238  0.19954  1.0000
  O   O8        1.0  0.14576  0.021719999999999993  0.31766  1.0000
  O   O9        1.0  0.24277000000000007  0.36619  0.58524  1.0000
  O   O10       1.0  0.2695999999999999  0.5048  0.62123  1.0000
  O   O11       1.0  0.9754  0.91778  0.222  1.0000
  O   O12       1.0  0.9698799999999999  0.8254700000000001  0.26770000000000005  1.0000
  O   O13       1.0  0.26211999999999996  0.92336  0.30046  1.0000
  O   O14       1.0  0.20403000000000002  0.8293400000000001  0.18199  1.0000
  O   O15       1.0  0.28176  0.65847  0.91536  1.0000
  O   O16       1.0  0.38410999999999995  0.64869  0.8788  1.0000
  O   O17       1.0  0.19661  0.75315  0.2779  1.0000
  O   O18       1.0  0.05854000000000001  0.70168  0.2311  1.0000
  O   O19       1.0  0.5381899999999997  0.37814000000000003  0.30035000000000006  1.0000
  O   O20       1.0  0.47927  0.35627  0.18257  1.0000
  O   O21       1.0  0.1349  0.25737999999999994  0.91495  1.0000
  O   O22       1.0  0.99611  0.22916000000000003  0.8784200000000001  1.0000
  O   O23       1.0  0.5845499999999998  0.52683  0.28096  1.0000
  O   O24       1.0  0.6731699999999999  0.53046  0.23109000000000002  1.0000
  O   O25       1.0  0.4222199999999999  0.76168  0.80016  1.0000
  O   O26       1.0  0.32789  0.70321  0.68185  1.0000
  O   O27       1.0  0.15732000000000002  0.78083  0.4147600000000001  1.0000
  O   O28       1.0  0.14925999999999998  0.8833299999999998  0.3785  1.0000
  O   O29       1.0  0.25351  0.69407  0.77791  1.0000
  O   O30       1.0  0.2007  0.55606  0.73067  1.0000
  O   O31       1.0  0.87685  0.03762000000000001  0.80046  1.0000
  O   O32       1.0  0.8542399999999999  0.9782800000000001  0.68234  1.0000
  O   O33       1.0  0.75723  0.6338  0.41477  1.0000
  O   O34       1.0  0.7303899999999999  0.4952  0.37878000000000006  1.0000
  O   O35       1.0  0.024599999999999973  0.08221999999999997  0.778  1.0000
  O   O36       1.0  0.03011000000000007  0.1745200000000001  0.7323000000000001  1.0000
  O   O37       1.0  0.7378700000000001  0.07663000000000006  0.6995400000000002  1.0000
  O   O38       1.0  0.7959600000000001  0.1706600000000001  0.8180100000000001  1.0000
  O   O39       1.0  0.71824  0.34153  0.08464  1.0000
  O   O40       1.0  0.61589  0.35131  0.12121  1.0000
  O   O41       1.0  0.8033900000000002  0.24685000000000012  0.7221000000000002  1.0000
  O   O42       1.0  0.94146  0.29832  0.7689  1.0000
  O   O43       1.0  0.46181  0.6218500000000001  0.6996500000000001  1.0000
  O   O44       1.0  0.52073  0.64373  0.8174300000000001  1.0000
  O   O45       1.0  0.8650999999999999  0.74261  0.08506000000000002  1.0000
  O   O46       1.0  0.003880000000000007  0.77083  0.12158  1.0000
  O   O47       1.0  0.41545  0.47317  0.71904  1.0000
  O   O48       1.0  0.32682999999999995  0.46954000000000007  0.7689200000000002  1.0000
