data_image0
_chemical_formula_structural       Ni6H144C180N12O36
_chemical_formula_sum              "Ni6 H144 C180 N12 O36"
_cell_length_a       16.7935
_cell_length_b       18.91746
_cell_length_c       18.91744
_cell_angle_alpha    111.66879
_cell_angle_beta     107.19282000000001
_cell_angle_gamma    107.19326

_symmetry_space_group_name_H-M    'P 1'
_symmetry_Int_Tables_number       1

loop_
  _symmetry_equiv_pos_as_xyz
  'x,y,z'

loop_
  _atom_site_type_symbol
  _atom_site_label
  _atom_site_symmetry_multiplicity
  _atom_site_fract_x
  _atom_site_fract_y
  _atom_site_fract_z
  _atom_site_occupancy
  Ni  Ni1       1.0  0.6306499999999998  0.38078  0.76159  1.0000
  Ni  Ni2       1.0  0.25  0.38054  0.61946  1.0000
  Ni  Ni3       1.0  0.86934  0.23840999999999998  0.61922  1.0000
  Ni  Ni4       1.0  0.36934000000000006  0.6192200000000001  0.23841000000000007  1.0000
  Ni  Ni5       1.0  0.75  0.61946  0.38054  1.0000
  Ni  Ni6       1.0  0.13065000000000007  0.76159  0.3807800000000001  1.0000
  H   H1        1.0  0.8171600000000001  0.93548  0.8421200000000002  1.0000
  H   H2        1.0  0.72741  0.7884400000000001  0.9637700000000002  1.0000
  H   H3        1.0  0.80823  0.66508  0.72957  1.0000
  H   H4        1.0  0.8601799999999997  0.82169  0.8074  1.0000
  H   H5        1.0  0.6702000000000001  0.6307700000000003  0.8808300000000002  1.0000
  H   H6        1.0  0.43167  0.23551999999999998  0.52139  1.0000
  H   H7        1.0  0.5071699999999999  0.20198999999999995  0.57401  1.0000
  H   H8        1.0  0.93584  0.59642  0.046230000000000014  1.0000
  H   H9        1.0  0.7780700000000002  0.5478100000000001  0.9364400000000003  1.0000
  H   H10       1.0  0.77848  0.33163  0.7705  1.0000
  H   H11       1.0  0.9351399999999999  0.36925  0.87131  1.0000
  H   H12       1.0  0.4707100000000001  0.25665  0.67262  1.0000
  H   H13       1.0  0.88138  0.9066600000000001  0.06431  1.0000
  H   H14       1.0  0.93924  0.1754  0.21141  1.0000
  H   H15       1.0  0.14209000000000005  0.06403000000000006  0.33495000000000014  1.0000
  H   H16       1.0  0.03859000000000008  0.98558  0.17824000000000007  1.0000
  H   H17       1.0  0.03894000000000001  0.24999000000000002  0.36912  1.0000
  H   H18       1.0  0.19603  0.28564  0.76462  1.0000
  H   H19       1.0  0.30537  0.37159  0.79823  1.0000
  H   H20       1.0  0.3395699999999999  0.44984999999999997  0.40397  1.0000
  H   H21       1.0  0.23047  0.38864  0.45269  1.0000
  H   H22       1.0  0.447  0.43903  0.66854  1.0000
  H   H23       1.0  0.56586  0.50203  0.63085  1.0000
  H   H24       1.0  0.2153700000000001  0.4162200000000001  0.7440800000000002  1.0000
  H   H25       1.0  0.9748299999999999  0.15773999999999996  0.09321  1.0000
  H   H26       1.0  0.7636999999999999  0.03640000000000012  0.8244800000000002  1.0000
  H   H27       1.0  0.07844  0.2703  0.93543  1.0000
  H   H28       1.0  0.05274  0.19247  0.01416  1.0000
  H   H29       1.0  0.78942  0.11929  0.74988  1.0000
  H   H30       1.0  0.91042  0.4786099999999999  0.71441  1.0000
  H   H31       1.0  0.93363  0.42595  0.62831  1.0000
  H   H32       1.0  0.8893800000000001  0.95379  0.54994  1.0000
  H   H33       1.0  0.84141  0.06372999999999995  0.61126  1.0000
  H   H34       1.0  0.007720000000000007  0.22952  0.5612  1.0000
  H   H35       1.0  0.06384  0.12870999999999994  0.4982  1.0000
  H   H36       1.0  0.79853  0.32716  0.58408  1.0000
  H   H37       1.0  0.52517  0.90679  0.84226  1.0000
  H   H38       1.0  0.7363  0.17552  0.9636  1.0000
  H   H39       1.0  0.42156  0.06458000000000001  0.7297  1.0000
  H   H40       1.0  0.44726000000000016  0.9858400000000003  0.8075300000000002  1.0000
  H   H41       1.0  0.71058  0.2501200000000001  0.8807100000000002  1.0000
  H   H42       1.0  0.58958  0.28559  0.52139  1.0000
  H   H43       1.0  0.56637  0.37169  0.57405  1.0000
  H   H44       1.0  0.61062  0.45006000000000007  0.046210000000000015  1.0000
  H   H45       1.0  0.65859  0.38874  0.93627  1.0000
  H   H46       1.0  0.49228000000000005  0.43880000000000013  0.7704800000000003  1.0000
  H   H47       1.0  0.43616  0.5018  0.87129  1.0000
  H   H48       1.0  0.70147  0.41592  0.67284  1.0000
  H   H49       1.0  0.68284  0.15788  0.06452000000000002  1.0000
  H   H50       1.0  0.77259  0.03623000000000003  0.21157000000000006  1.0000
  H   H51       1.0  0.69177  0.27043  0.33492  1.0000
  H   H52       1.0  0.63982  0.19261  0.17831  1.0000
  H   H53       1.0  0.8298  0.11916999999999997  0.36923  1.0000
  H   H54       1.0  0.06833000000000002  0.47862000000000005  0.76448  1.0000
  H   H55       1.0  0.99283  0.42599  0.79802  1.0000
  H   H56       1.0  0.56416  0.9537700000000001  0.40358  1.0000
  H   H57       1.0  0.7219299999999997  0.06356  0.45219  1.0000
  H   H58       1.0  0.72152  0.2295  0.66837  1.0000
  H   H59       1.0  0.56486  0.12869000000000008  0.6307500000000003  1.0000
  H   H60       1.0  0.029290000000000052  0.32738000000000006  0.7433600000000001  1.0000
  H   H61       1.0  0.6186199999999997  0.9356799999999998  0.09334  1.0000
  H   H62       1.0  0.56075  0.78859  0.82459  1.0000
  H   H63       1.0  0.35791  0.66505  0.93597  1.0000
  H   H64       1.0  0.46140999999999993  0.82176  0.014410000000000003  1.0000
  H   H65       1.0  0.4610599999999999  0.63088  0.75001  1.0000
  H   H66       1.0  0.30397  0.23539000000000002  0.71437  1.0000
  H   H67       1.0  0.19463000000000005  0.2017700000000001  0.6284100000000001  1.0000
  H   H68       1.0  0.16043  0.59603  0.55015  1.0000
  H   H69       1.0  0.26953  0.54731  0.61136  1.0000
  H   H70       1.0  0.053  0.33146  0.56097  1.0000
  H   H71       1.0  0.93413  0.3691500000000001  0.49797000000000013  1.0000
  H   H72       1.0  0.28462  0.25592  0.58378  1.0000
  H   H73       1.0  0.18284  0.06452  0.15788  1.0000
  H   H74       1.0  0.27259  0.21157  0.03623  1.0000
  H   H75       1.0  0.19177000000000008  0.33492000000000005  0.2704300000000001  1.0000
  H   H76       1.0  0.13982000000000006  0.17831000000000005  0.19260000000000005  1.0000
  H   H77       1.0  0.32980000000000004  0.36923000000000006  0.11917000000000003  1.0000
  H   H78       1.0  0.56833  0.76448  0.47861  1.0000
  H   H79       1.0  0.49283000000000005  0.79802  0.42599  1.0000
  H   H80       1.0  0.06415999999999993  0.40358  0.95377  1.0000
  H   H81       1.0  0.22193000000000002  0.45219000000000004  0.06356  1.0000
  H   H82       1.0  0.22152  0.66837  0.22950000000000007  1.0000
  H   H83       1.0  0.06486  0.63075  0.12869  1.0000
  H   H84       1.0  0.5292900000000001  0.7433600000000001  0.3273800000000001  1.0000
  H   H85       1.0  0.11861999999999995  0.09334  0.93569  1.0000
  H   H86       1.0  0.06075999999999998  0.8246  0.78859  1.0000
  H   H87       1.0  0.8579099999999998  0.93597  0.66505  1.0000
  H   H88       1.0  0.9614099999999999  0.01442  0.82176  1.0000
  H   H89       1.0  0.96106  0.75001  0.63088  1.0000
  H   H90       1.0  0.8039699999999999  0.71437  0.23538  1.0000
  H   H91       1.0  0.69463  0.62841  0.20177  1.0000
  H   H92       1.0  0.66043  0.55015  0.59603  1.0000
  H   H93       1.0  0.76953  0.61136  0.54731  1.0000
  H   H94       1.0  0.553  0.56097  0.33146000000000003  1.0000
  H   H95       1.0  0.43414  0.49796999999999997  0.36915  1.0000
  H   H96       1.0  0.78463  0.58378  0.25592  1.0000
  H   H97       1.0  0.025169999999999963  0.84226  0.90679  1.0000
  H   H98       1.0  0.23629999999999993  0.9635999999999999  0.17552  1.0000
  H   H99       1.0  0.92156  0.7297  0.06457  1.0000
  H   H100      1.0  0.94726  0.80753  0.98584  1.0000
  H   H101      1.0  0.21057999999999993  0.8807099999999999  0.25012  1.0000
  H   H102      1.0  0.08957999999999999  0.52139  0.28559  1.0000
  H   H103      1.0  0.06637  0.57405  0.37169  1.0000
  H   H104      1.0  0.11062000000000002  0.04621000000000004  0.4500600000000001  1.0000
  H   H105      1.0  0.15859000000000012  0.9362700000000002  0.38874  1.0000
  H   H106      1.0  0.9922799999999999  0.7704800000000002  0.43880000000000013  1.0000
  H   H107      1.0  0.9361599999999998  0.87129  0.5018  1.0000
  H   H108      1.0  0.20147000000000007  0.6728400000000001  0.41592  1.0000
  H   H109      1.0  0.47483  0.09321  0.15774  1.0000
  H   H110      1.0  0.2637  0.82448  0.0364  1.0000
  H   H111      1.0  0.57844  0.93542  0.2703  1.0000
  H   H112      1.0  0.5527400000000001  0.014160000000000002  0.19247  1.0000
  H   H113      1.0  0.28942  0.74988  0.11929000000000002  1.0000
  H   H114      1.0  0.41042  0.71441  0.47861  1.0000
  H   H115      1.0  0.43362999999999996  0.62831  0.42595  1.0000
  H   H116      1.0  0.38938000000000006  0.54994  0.95379  1.0000
  H   H117      1.0  0.34140999999999994  0.61126  0.06373  1.0000
  H   H118      1.0  0.5077200000000001  0.5612  0.22952000000000006  1.0000
  H   H119      1.0  0.56384  0.4982  0.12871  1.0000
  H   H120      1.0  0.2985300000000001  0.58408  0.3271600000000001  1.0000
  H   H121      1.0  0.31716000000000016  0.8421200000000001  0.9354800000000002  1.0000
  H   H122      1.0  0.22740999999999997  0.96377  0.78843  1.0000
  H   H123      1.0  0.30823000000000006  0.72957  0.66508  1.0000
  H   H124      1.0  0.36018  0.8074  0.82169  1.0000
  H   H125      1.0  0.1702  0.88083  0.63077  1.0000
  H   H126      1.0  0.93167  0.52139  0.23552  1.0000
  H   H127      1.0  0.007170000000000041  0.57401  0.20198  1.0000
  H   H128      1.0  0.43584  0.04624  0.59642  1.0000
  H   H129      1.0  0.27807  0.93644  0.54781  1.0000
  H   H130      1.0  0.27848  0.7705  0.33163  1.0000
  H   H131      1.0  0.43513999999999997  0.87131  0.36925  1.0000
  H   H132      1.0  0.97071  0.67262  0.25664  1.0000
  H   H133      1.0  0.38138000000000016  0.06432000000000015  0.9066600000000002  1.0000
  H   H134      1.0  0.43925  0.21141000000000001  0.1754  1.0000
  H   H135      1.0  0.64209  0.33495  0.06403  1.0000
  H   H136      1.0  0.5385900000000001  0.1782500000000001  0.98559  1.0000
  H   H137      1.0  0.53894  0.36913  0.24999  1.0000
  H   H138      1.0  0.69603  0.76461  0.28563  1.0000
  H   H139      1.0  0.8053699999999999  0.79823  0.37159  1.0000
  H   H140      1.0  0.8395700000000001  0.40398  0.44985  1.0000
  H   H141      1.0  0.7304699999999997  0.45269000000000004  0.38864  1.0000
  H   H142      1.0  0.9469999999999998  0.66855  0.43903  1.0000
  H   H143      1.0  0.06587  0.63085  0.50203  1.0000
  H   H144      1.0  0.71538  0.74408  0.41622  1.0000
  C   C1        1.0  0.70707  0.54413  0.75602  1.0000
  C   C2        1.0  0.7369100000000001  0.63833  0.8011100000000002  1.0000
  C   C3        1.0  0.84728  0.9637000000000001  0.9112  1.0000
  C   C4        1.0  0.74519  0.76152  0.91253  1.0000
  C   C5        1.0  0.7892600000000001  0.69249  0.7797600000000002  1.0000
  C   C6        1.0  0.84166  0.91033  0.9468200000000002  1.0000
  C   C7        1.0  0.95237  0.48744  0.96909  1.0000
  C   C8        1.0  0.7994200000000001  0.81643  0.89264  1.0000
  C   C9        1.0  0.81865  0.78025  0.82389  1.0000
  C   C10       1.0  0.71328  0.67361  0.86657  1.0000
  C   C11       1.0  0.49735  0.25775  0.57702  1.0000
  C   C12       1.0  0.9053  0.5373700000000001  0.9860100000000003  1.0000
  C   C13       1.0  0.81587  0.5103800000000001  0.9249800000000002  1.0000
  C   C14       1.0  0.8157  0.38946  0.83225  1.0000
  C   C15       1.0  0.90465  0.41187  0.88972  1.0000
  C   C16       1.0  0.16167  0.21119  0.4558  1.0000
  C   C17       1.0  0.0977  0.16242  0.3616  1.0000
  C   C18       1.0  0.88352  0.94756  0.036150000000000015  1.0000
  C   C19       1.0  0.98374  0.15099000000000007  0.23835000000000006  1.0000
  C   C20       1.0  0.09598999999999999  0.08692000000000003  0.30743  1.0000
  C   C21       1.0  0.9315  0.03658  0.08954  1.0000
  C   C22       1.0  0.46501999999999993  0.48166999999999993  0.51267  1.0000
  C   C23       1.0  0.98316  0.07621  0.1834  1.0000
  C   C24       1.0  0.03825000000000002  0.04346000000000002  0.21959000000000006  1.0000
  C   C25       1.0  0.03924  0.19286  0.3263  1.0000
  C   C26       1.0  0.23967999999999998  0.31897  0.74245  1.0000
  C   C27       1.0  0.36805999999999994  0.44866  0.46297  1.0000
  C   C28       1.0  0.30565000000000003  0.41459000000000007  0.4899800000000001  1.0000
  C   C29       1.0  0.42635000000000023  0.44280000000000014  0.6106900000000002  1.0000
  C   C30       1.0  0.49283000000000005  0.47784  0.58819  1.0000
  C   C31       1.0  0.9513000000000001  0.24399  0.78819  1.0000
  C   C32       1.0  0.93582  0.19878999999999994  0.83709  1.0000
  C   C33       1.0  0.93604  0.08866  0.0523  1.0000
  C   C34       1.0  0.8327499999999998  0.08751000000000002  0.84884  1.0000
  C   C35       1.0  0.009390000000000039  0.22008000000000008  0.91261  1.0000
  C   C36       1.0  0.8948000000000002  0.05305000000000016  0.9632800000000002  1.0000
  C   C37       1.0  0.9831899999999999  0.030889999999999997  0.51831  1.0000
  C   C38       1.0  0.9068000000000005  0.10726000000000005  0.9236100000000003  1.0000
  C   C39       1.0  0.9947299999999997  0.17597999999999991  0.95623  1.0000
  C   C40       1.0  0.84677  0.13343000000000002  0.80689  1.0000
  C   C41       1.0  0.9205800000000001  0.4229900000000001  0.6810000000000003  1.0000
  C   C42       1.0  0.91911  0.014019999999999984  0.5512  1.0000
  C   C43       1.0  0.89062  0.07504000000000005  0.58523  1.0000
  C   C44       1.0  0.98326  0.16775  0.55718  1.0000
  C   C45       1.0  0.014820000000000024  0.11028000000000004  0.52222  1.0000
  C   C46       1.0  0.5487  0.21181000000000005  0.75601  1.0000
  C   C47       1.0  0.56418  0.16291  0.80121  1.0000
  C   C48       1.0  0.56396  0.9477000000000002  0.9113400000000003  1.0000
  C   C49       1.0  0.66725  0.15116999999999992  0.91249  1.0000
  C   C50       1.0  0.49061000000000016  0.08739000000000009  0.7799200000000002  1.0000
  C   C51       1.0  0.6052  0.03672000000000008  0.94695  1.0000
  C   C52       1.0  0.51681  0.48168999999999995  0.96911  1.0000
  C   C53       1.0  0.5931999999999998  0.07638999999999993  0.89275  1.0000
  C   C54       1.0  0.50527  0.04377  0.82403  1.0000
  C   C55       1.0  0.65323  0.19311999999999999  0.86657  1.0000
  C   C56       1.0  0.57942  0.319  0.57701  1.0000
  C   C57       1.0  0.58089  0.44880000000000003  0.98599  1.0000
  C   C58       1.0  0.60938  0.41477  0.92496  1.0000
  C   C59       1.0  0.5167399999999999  0.44282  0.83225  1.0000
  C   C60       1.0  0.48517999999999994  0.47778000000000004  0.88972  1.0000
  C   C61       1.0  0.7929199999999998  0.24397999999999997  0.45588  1.0000
  C   C62       1.0  0.76309  0.19889000000000007  0.3616700000000001  1.0000
  C   C63       1.0  0.65272  0.0888  0.0363  1.0000
  C   C64       1.0  0.7548099999999998  0.08748000000000003  0.23848000000000005  1.0000
  C   C65       1.0  0.71074  0.22024  0.30751  1.0000
  C   C66       1.0  0.65834  0.05318000000000001  0.08967000000000003  1.0000
  C   C67       1.0  0.5476300000000002  0.030910000000000135  0.5125700000000002  1.0000
  C   C68       1.0  0.7005799999999998  0.10736  0.18357  1.0000
  C   C69       1.0  0.68135  0.17611  0.21975  1.0000
  C   C70       1.0  0.78672  0.13343  0.32639  1.0000
  C   C71       1.0  0.0026499999999999597  0.4229899999999999  0.74225  1.0000
  C   C72       1.0  0.5947000000000001  0.013990000000000051  0.46264  1.0000
  C   C73       1.0  0.68413  0.07502000000000002  0.48962  1.0000
  C   C74       1.0  0.6843  0.16774999999999995  0.61054  1.0000
  C   C75       1.0  0.59535  0.11029  0.58813  1.0000
  C   C76       1.0  0.33832999999999996  0.5442  0.78881  1.0000
  C   C77       1.0  0.40229  0.6384  0.83758  1.0000
  C   C78       1.0  0.61648  0.96385  0.05243  1.0000
  C   C79       1.0  0.51626  0.76165  0.84901  1.0000
  C   C80       1.0  0.40401000000000015  0.6925700000000001  0.9130800000000002  1.0000
  C   C81       1.0  0.56849  0.9104700000000001  0.96342  1.0000
  C   C82       1.0  0.03498  0.48733000000000004  0.51833  1.0000
  C   C83       1.0  0.51684  0.8165999999999999  0.92379  1.0000
  C   C84       1.0  0.46175000000000005  0.7804100000000003  0.9565400000000002  1.0000
  C   C85       1.0  0.46076  0.6737  0.80714  1.0000
  C   C86       1.0  0.26032  0.25755000000000006  0.68103  1.0000
  C   C87       1.0  0.13194  0.53703  0.55134  1.0000
  C   C88       1.0  0.19435  0.51002  0.58541  1.0000
  C   C89       1.0  0.07364999999999998  0.38931  0.5572  1.0000
  C   C90       1.0  0.0071600000000000465  0.41181000000000006  0.52216  1.0000
  C   C91       1.0  0.29291999999999996  0.45588000000000006  0.24398000000000006  1.0000
  C   C92       1.0  0.26309  0.36167  0.19889  1.0000
  C   C93       1.0  0.15272  0.03629999999999999  0.0888  1.0000
  C   C94       1.0  0.25481  0.23848  0.08747  1.0000
  C   C95       1.0  0.21074  0.30751  0.22024  1.0000
  C   C96       1.0  0.15834  0.08967  0.05318000000000001  1.0000
  C   C97       1.0  0.04762999999999998  0.51256  0.030910000000000007  1.0000
  C   C98       1.0  0.20058000000000004  0.18357000000000004  0.10736  1.0000
  C   C99       1.0  0.18135  0.21975  0.17611  1.0000
  C   C100      1.0  0.28672000000000003  0.32639  0.13343000000000005  1.0000
  C   C101      1.0  0.50265  0.74225  0.42298  1.0000
  C   C102      1.0  0.09470000000000003  0.4626400000000001  0.013990000000000004  1.0000
  C   C103      1.0  0.18413  0.48962  0.07502  1.0000
  C   C104      1.0  0.18429999999999996  0.61054  0.16775  1.0000
  C   C105      1.0  0.09535  0.58813  0.11028000000000003  1.0000
  C   C106      1.0  0.83833  0.7888100000000001  0.5442  1.0000
  C   C107      1.0  0.9023  0.83758  0.6384  1.0000
  C   C108      1.0  0.11648000000000006  0.05244000000000007  0.9638500000000002  1.0000
  C   C109      1.0  0.016260000000000014  0.84901  0.76165  1.0000
  C   C110      1.0  0.9040099999999998  0.9130799999999999  0.69257  1.0000
  C   C111      1.0  0.06849999999999999  0.96342  0.91046  1.0000
  C   C112      1.0  0.53498  0.51833  0.48733  1.0000
  C   C113      1.0  0.01684000000000008  0.9237900000000001  0.8166  1.0000
  C   C114      1.0  0.96175  0.9565399999999998  0.7804100000000003  1.0000
  C   C115      1.0  0.9607599999999998  0.80715  0.6737  1.0000
  C   C116      1.0  0.76032  0.68104  0.25755  1.0000
  C   C117      1.0  0.6319400000000001  0.5513400000000003  0.5370300000000002  1.0000
  C   C118      1.0  0.6943499999999998  0.58541  0.51002  1.0000
  C   C119      1.0  0.57365  0.5572  0.38931  1.0000
  C   C120      1.0  0.5071699999999999  0.52216  0.41181  1.0000
  C   C121      1.0  0.048700000000000035  0.75601  0.21181  1.0000
  C   C122      1.0  0.06418  0.80121  0.16291  1.0000
  C   C123      1.0  0.06395999999999992  0.9113399999999999  0.9477  1.0000
  C   C124      1.0  0.16725  0.9124900000000001  0.15116  1.0000
  C   C125      1.0  0.99061  0.7799200000000001  0.08739000000000002  1.0000
  C   C126      1.0  0.10519999999999993  0.9469499999999998  0.036720000000000017  1.0000
  C   C127      1.0  0.016810000000000123  0.9691100000000001  0.48169  1.0000
  C   C128      1.0  0.09320000000000006  0.8927400000000001  0.07639  1.0000
  C   C129      1.0  0.005270000000000017  0.82403  0.04377  1.0000
  C   C130      1.0  0.15323  0.86657  0.19311  1.0000
  C   C131      1.0  0.07942  0.57701  0.319  1.0000
  C   C132      1.0  0.08089000000000003  0.98598  0.4488  1.0000
  C   C133      1.0  0.10937999999999999  0.92496  0.41477  1.0000
  C   C134      1.0  0.016740000000000088  0.8322500000000003  0.44282  1.0000
  C   C135      1.0  0.9851800000000004  0.8897200000000001  0.47778  1.0000
  C   C136      1.0  0.45130000000000003  0.78819  0.24399000000000007  1.0000
  C   C137      1.0  0.43582  0.83709  0.19879  1.0000
  C   C138      1.0  0.43604  0.0523  0.08866  1.0000
  C   C139      1.0  0.33275  0.84884  0.08751  1.0000
  C   C140      1.0  0.50939  0.91261  0.22008  1.0000
  C   C141      1.0  0.39479999999999993  0.9632800000000001  0.05305  1.0000
  C   C142      1.0  0.48319  0.51831  0.03089  1.0000
  C   C143      1.0  0.4068  0.9236099999999999  0.10725  1.0000
  C   C144      1.0  0.49472999999999995  0.95623  0.17597000000000004  1.0000
  C   C145      1.0  0.34676999999999997  0.80689  0.13343000000000005  1.0000
  C   C146      1.0  0.42058000000000006  0.6810000000000002  0.42299  1.0000
  C   C147      1.0  0.41911  0.5512  0.01401  1.0000
  C   C148      1.0  0.39062  0.58523  0.07504  1.0000
  C   C149      1.0  0.4832600000000001  0.55718  0.16775  1.0000
  C   C150      1.0  0.51482  0.52222  0.11028000000000003  1.0000
  C   C151      1.0  0.20708000000000007  0.7560200000000001  0.54412  1.0000
  C   C152      1.0  0.23690999999999998  0.80111  0.63833  1.0000
  C   C153      1.0  0.34728  0.9112  0.9637  1.0000
  C   C154      1.0  0.24518999999999996  0.9125299999999998  0.7615200000000002  1.0000
  C   C155      1.0  0.28926  0.77976  0.69249  1.0000
  C   C156      1.0  0.34166  0.94682  0.9103300000000002  1.0000
  C   C157      1.0  0.45236999999999994  0.9690899999999999  0.48743  1.0000
  C   C158      1.0  0.29942  0.8926399999999999  0.81643  1.0000
  C   C159      1.0  0.3186500000000001  0.8238900000000002  0.7802500000000002  1.0000
  C   C160      1.0  0.21327999999999997  0.86657  0.6736100000000003  1.0000
  C   C161      1.0  0.9973499999999998  0.5770200000000001  0.25775  1.0000
  C   C162      1.0  0.4053  0.98601  0.53736  1.0000
  C   C163      1.0  0.31587000000000004  0.9249799999999999  0.51038  1.0000
  C   C164      1.0  0.3157  0.83225  0.38946  1.0000
  C   C165      1.0  0.40465000000000007  0.8897200000000001  0.41187  1.0000
  C   C166      1.0  0.6616699999999999  0.4558  0.21119  1.0000
  C   C167      1.0  0.5977  0.36161  0.16242000000000004  1.0000
  C   C168      1.0  0.3835199999999999  0.036150000000000015  0.94757  1.0000
  C   C169      1.0  0.48374  0.23835000000000003  0.15099  1.0000
  C   C170      1.0  0.59599  0.30743  0.08692  1.0000
  C   C171      1.0  0.4315  0.08954000000000001  0.03658  1.0000
  C   C172      1.0  0.96502  0.51267  0.48167  1.0000
  C   C173      1.0  0.48316  0.18340000000000006  0.07621000000000003  1.0000
  C   C174      1.0  0.53825  0.21959  0.04346  1.0000
  C   C175      1.0  0.53924  0.3263  0.19286  1.0000
  C   C176      1.0  0.7396800000000001  0.74245  0.31897  1.0000
  C   C177      1.0  0.86806  0.46297  0.44866  1.0000
  C   C178      1.0  0.80565  0.4899800000000001  0.41459  1.0000
  C   C179      1.0  0.92635  0.61069  0.4428  1.0000
  C   C180      1.0  0.9928399999999998  0.5882  0.47784  1.0000
  N   N1        1.0  0.77064  0.43699  0.84919  1.0000
  N   N2        1.0  0.33377  0.41211  0.5633  1.0000
  N   N3        1.0  0.9212  0.15081  0.58765  1.0000
  N   N4        1.0  0.5788  0.41235  0.8492  1.0000
  N   N5        1.0  0.72936  0.15081  0.56301  1.0000
  N   N6        1.0  0.16623000000000004  0.4367  0.58789  1.0000
  N   N7        1.0  0.22936000000000004  0.56301  0.15081  1.0000
  N   N8        1.0  0.66623  0.5878900000000001  0.4367000000000001  1.0000
  N   N9        1.0  0.07879999999999998  0.8492  0.41235  1.0000
  N   N10       1.0  0.4212  0.58765  0.1508  1.0000
  N   N11       1.0  0.27063999999999994  0.84919  0.43699  1.0000
  N   N12       1.0  0.83377  0.5633  0.41211  1.0000
  O   O1        1.0  0.64618  0.49915  0.77003  1.0000
  O   O2        1.0  0.49072  0.30102  0.6543  1.0000
  O   O3        1.0  0.74177  0.51511  0.70742  1.0000
  O   O4        1.0  0.14721  0.27148  0.50072  1.0000
  O   O5        1.0  0.19018000000000002  0.35338  0.69945  1.0000
  O   O6        1.0  0.22378000000000006  0.19003000000000006  0.4848500000000001  1.0000
  O   O7        1.0  0.8764699999999999  0.22929000000000005  0.72859  1.0000
  O   O8        1.0  0.83675  0.34571  0.64692  1.0000
  O   O9        1.0  0.03460999999999999  0.29323  0.80859  1.0000
  O   O10       1.0  0.6235299999999999  0.27141999999999994  0.77071  1.0000
  O   O11       1.0  0.66325  0.35309  0.65429  1.0000
  O   O12       1.0  0.46539  0.19141  0.70678  1.0000
  O   O13       1.0  0.8538200000000001  0.22996999999999998  0.50085  1.0000
  O   O14       1.0  0.009279999999999988  0.3457  0.69898  1.0000
  O   O15       1.0  0.75823  0.29258000000000006  0.4848900000000001  1.0000
  O   O16       1.0  0.35279  0.49928  0.72851  1.0000
  O   O17       1.0  0.30982  0.30056  0.64662  1.0000
  O   O18       1.0  0.27623000000000003  0.51515  0.80998  1.0000
  O   O19       1.0  0.35382  0.50085  0.22997  1.0000
  O   O20       1.0  0.5092799999999998  0.69898  0.3457  1.0000
  O   O21       1.0  0.25823  0.48488999999999993  0.29258  1.0000
  O   O22       1.0  0.85279  0.7285200000000001  0.4992800000000001  1.0000
  O   O23       1.0  0.80982  0.64662  0.30055  1.0000
  O   O24       1.0  0.77622  0.80997  0.5151500000000002  1.0000
  O   O25       1.0  0.12352999999999997  0.77071  0.27141  1.0000
  O   O26       1.0  0.16324999999999998  0.65429  0.35308  1.0000
  O   O27       1.0  0.96539  0.70677  0.19141000000000002  1.0000
  O   O28       1.0  0.37647  0.72859  0.22929  1.0000
  O   O29       1.0  0.33675  0.64692  0.34571  1.0000
  O   O30       1.0  0.53461  0.80859  0.29322  1.0000
  O   O31       1.0  0.14618  0.77003  0.49915  1.0000
  O   O32       1.0  0.9907199999999999  0.6543  0.30102  1.0000
  O   O33       1.0  0.2417700000000001  0.7074200000000002  0.5151100000000002  1.0000
  O   O34       1.0  0.64721  0.50072  0.2714800000000001  1.0000
  O   O35       1.0  0.6901799999999998  0.69945  0.35338  1.0000
  O   O36       1.0  0.7237699999999999  0.48485  0.19002  1.0000
