data_image0
_chemical_formula_structural       Ba6Zn6H96C60O60
_chemical_formula_sum              "Ba6 Zn6 H96 C60 O60"
_cell_length_a       12.50881
_cell_length_b       16.51229
_cell_length_c       16.51264
_cell_angle_alpha    113.91592
_cell_angle_beta     104.59811
_cell_angle_gamma    104.59604000000002

_symmetry_space_group_name_H-M    'P 1'
_symmetry_Int_Tables_number       1

loop_
  _symmetry_equiv_pos_as_xyz
  'x,y,z'

loop_
  _atom_site_type_symbol
  _atom_site_label
  _atom_site_symmetry_multiplicity
  _atom_site_fract_x
  _atom_site_fract_y
  _atom_site_fract_z
  _atom_site_occupancy
  Ba  Ba1       1.0  0.99999  0.29905  0.70095  1.0000
  Ba  Ba2       1.0  0.2982100000000001  0.2984500000000002  0.5978800000000002  1.0000
  Ba  Ba3       1.0  0.70177  0.40212000000000014  0.70156  1.0000
  Ba  Ba4       1.0  2.0000000000124848e-05  0.7009600000000002  0.2990500000000001  1.0000
  Ba  Ba5       1.0  0.7018000000000001  0.7015600000000002  0.40212000000000003  1.0000
  Ba  Ba6       1.0  0.29824000000000006  0.5978800000000001  0.2984400000000001  1.0000
  Zn  Zn1       1.0  0.7405599999999999  9.000000000002426e-05  0.63128  1.0000
  Zn  Zn2       1.0  0.10614  0.36898  0.36898  1.0000
  Zn  Zn3       1.0  0.7405599999999999  0.63128  9.000000000000003e-05  1.0000
  Zn  Zn4       1.0  0.89387  0.63102  0.63102  1.0000
  Zn  Zn5       1.0  0.25944  0.9999100000000001  0.36872  1.0000
  Zn  Zn6       1.0  0.2594500000000001  0.36872000000000016  0.9999100000000001  1.0000
  H   H1        1.0  0.7185600000000001  0.18756000000000006  0.65574  1.0000
  H   H2        1.0  0.69539  0.19756999999999997  0.5615  1.0000
  H   H3        1.0  0.3757200000000001  0.9359800000000003  0.73702  1.0000
  H   H4        1.0  0.6483999999999999  0.06403000000000002  0.86001  1.0000
  H   H5        1.0  0.20099000000000003  0.06556  0.74607  1.0000
  H   H6        1.0  0.9900400000000001  0.9360100000000005  0.7638200000000003  1.0000
  H   H7        1.0  0.06288000000000012  0.34485000000000027  0.5324100000000002  1.0000
  H   H8        1.0  0.13527000000000006  0.4388600000000001  0.6369  1.0000
  H   H9        1.0  0.63706  0.26197  0.19734  1.0000
  H   H10       1.0  0.78932  0.14064000000000002  0.20501000000000003  1.0000
  H   H11       1.0  0.4529  0.2546100000000001  0.31945  1.0000
  H   H12       1.0  0.22512000000000001  0.23546000000000009  0.17102000000000006  1.0000
  H   H13       1.0  0.5320700000000002  0.4689600000000002  0.8122400000000002  1.0000
  H   H14       1.0  0.49886000000000025  0.36485000000000023  0.8022800000000002  1.0000
  H   H15       1.0  0.44073000000000007  0.8016600000000003  0.06528000000000002  1.0000
  H   H16       1.0  0.5838000000000002  0.7948600000000005  0.9352800000000002  1.0000
  H   H17       1.0  0.1359800000000002  0.6816900000000005  0.9358400000000002  1.0000
  H   H18       1.0  0.053900000000000045  0.82829  0.06525000000000002  1.0000
  H   H19       1.0  0.9370500000000002  0.4675600000000001  0.65511  1.0000
  H   H20       1.0  0.86467  0.3630700000000001  0.5611  1.0000
  H   H21       1.0  0.36295  0.80266  0.73804  1.0000
  H   H22       1.0  0.2106900000000001  0.7949800000000002  0.85937  1.0000
  H   H23       1.0  0.5471100000000003  0.6805600000000005  0.7453800000000003  1.0000
  H   H24       1.0  0.77489  0.8289900000000002  0.76454  1.0000
  H   H25       1.0  0.4679400000000001  0.18777000000000008  0.5310500000000001  1.0000
  H   H26       1.0  0.50114  0.19772  0.63515  1.0000
  H   H27       1.0  0.55929  0.93473  0.19836000000000006  1.0000
  H   H28       1.0  0.41620000000000007  0.06472000000000003  0.20514000000000002  1.0000
  H   H29       1.0  0.86403  0.06416000000000002  0.31831  1.0000
  H   H30       1.0  0.9461  0.9347500000000002  0.17172  1.0000
  H   H31       1.0  0.28144000000000025  0.34426000000000023  0.8124400000000003  1.0000
  H   H32       1.0  0.30462000000000017  0.4385000000000002  0.8024400000000003  1.0000
  H   H33       1.0  0.62429  0.26296  0.06401  1.0000
  H   H34       1.0  0.35161000000000003  0.13998000000000002  0.9359800000000001  1.0000
  H   H35       1.0  0.79903  0.2539400000000001  0.93444  1.0000
  H   H36       1.0  0.009980000000000029  0.23618000000000006  0.06399  1.0000
  H   H37       1.0  0.28145  0.8124500000000002  0.34426  1.0000
  H   H38       1.0  0.30462  0.80243  0.4385000000000001  1.0000
  H   H39       1.0  0.62429  0.06402  0.26298  1.0000
  H   H40       1.0  0.35161000000000014  0.9359700000000002  0.13999  1.0000
  H   H41       1.0  0.79902  0.9344400000000003  0.25393  1.0000
  H   H42       1.0  0.009970000000000038  0.06399000000000005  0.23618000000000006  1.0000
  H   H43       1.0  0.9371300000000002  0.6551500000000002  0.46759  1.0000
  H   H44       1.0  0.8647400000000001  0.5611400000000002  0.3631  1.0000
  H   H45       1.0  0.36295000000000016  0.7380300000000004  0.8026600000000003  1.0000
  H   H46       1.0  0.2106900000000001  0.8593600000000002  0.79499  1.0000
  H   H47       1.0  0.54711  0.7453900000000002  0.68055  1.0000
  H   H48       1.0  0.7748900000000001  0.7645500000000003  0.8289900000000002  1.0000
  H   H49       1.0  0.4679400000000001  0.5310500000000002  0.18776  1.0000
  H   H50       1.0  0.5011500000000001  0.6351500000000002  0.19772000000000006  1.0000
  H   H51       1.0  0.5592800000000001  0.1983500000000001  0.9347200000000002  1.0000
  H   H52       1.0  0.41621  0.20514  0.06472000000000001  1.0000
  H   H53       1.0  0.86403  0.3183100000000001  0.06416000000000001  1.0000
  H   H54       1.0  0.9461100000000001  0.17172000000000015  0.9347500000000002  1.0000
  H   H55       1.0  0.06296000000000009  0.5324500000000002  0.34489  1.0000
  H   H56       1.0  0.13534000000000004  0.6369300000000002  0.4389  1.0000
  H   H57       1.0  0.63706  0.19735  0.26197  1.0000
  H   H58       1.0  0.78932  0.20502  0.14063  1.0000
  H   H59       1.0  0.4529000000000001  0.3194400000000001  0.25462  1.0000
  H   H60       1.0  0.22512  0.17101  0.23546  1.0000
  H   H61       1.0  0.5320700000000003  0.8122300000000002  0.46895  1.0000
  H   H62       1.0  0.49887000000000004  0.8022800000000002  0.36485  1.0000
  H   H63       1.0  0.44072  0.06528000000000002  0.80164  1.0000
  H   H64       1.0  0.58381  0.9352900000000002  0.79486  1.0000
  H   H65       1.0  0.13597999999999996  0.93584  0.68169  1.0000
  H   H66       1.0  0.05391000000000002  0.06525000000000003  0.82828  1.0000
  H   H67       1.0  0.71857  0.6557400000000001  0.18756000000000006  1.0000
  H   H68       1.0  0.69539  0.5615  0.19756000000000007  1.0000
  H   H69       1.0  0.37572  0.73704  0.93599  1.0000
  H   H70       1.0  0.6483999999999999  0.8600200000000002  0.06403000000000002  1.0000
  H   H71       1.0  0.20098000000000002  0.7460700000000002  0.06556  1.0000
  H   H72       1.0  0.99003  0.7638300000000003  0.9360100000000002  1.0000
  H   H73       1.0  0.3472199999999999  0.0006700000000000077  0.67662  1.0000
  H   H74       1.0  0.70344  0.9998600000000001  0.77693  1.0000
  H   H75       1.0  0.14719  0.9999800000000001  0.61835  1.0000
  H   H76       1.0  0.89652  0.00017000000000008905  0.7594100000000003  1.0000
  H   H77       1.0  0.6672800000000001  0.32216  0.32216  1.0000
  H   H78       1.0  0.9268400000000001  0.22437000000000012  0.22436000000000006  1.0000
  H   H79       1.0  0.52582  0.3825000000000002  0.3825000000000001  1.0000
  H   H80       1.0  0.13432000000000002  0.23824000000000006  0.23825000000000002  1.0000
  H   H81       1.0  0.34722000000000003  0.6766300000000002  0.0006700000000000001  1.0000
  H   H82       1.0  0.70343  0.7769200000000003  0.99985  1.0000
  H   H83       1.0  0.14718000000000012  0.6183400000000002  0.9999700000000001  1.0000
  H   H84       1.0  0.8965099999999999  0.7594200000000002  0.00017  1.0000
  H   H85       1.0  0.33273000000000014  0.6778400000000001  0.6778400000000002  1.0000
  H   H86       1.0  0.0731700000000001  0.7756400000000002  0.77564  1.0000
  H   H87       1.0  0.47419000000000006  0.6175100000000003  0.6175000000000002  1.0000
  H   H88       1.0  0.8656900000000002  0.7617600000000003  0.7617600000000002  1.0000
  H   H89       1.0  0.6527800000000001  0.9993400000000002  0.3233800000000001  1.0000
  H   H90       1.0  0.29657000000000006  0.00014000000000003002  0.22308000000000006  1.0000
  H   H91       1.0  0.85282  3.000000000001735e-05  0.38165  1.0000
  H   H92       1.0  0.10349000000000003  0.9998300000000001  0.24059  1.0000
  H   H93       1.0  0.65278  0.32336999999999994  0.99933  1.0000
  H   H94       1.0  0.29658  0.22308  0.00015  1.0000
  H   H95       1.0  0.85282  0.38166  3.0000000000000008e-05  1.0000
  H   H96       1.0  0.10350000000000004  0.2405800000000001  0.9998300000000001  1.0000
  C   C1        1.0  0.57813  0.08845999999999998  0.6977  1.0000
  C   C2        1.0  0.99714  0.09113  0.67059  1.0000
  C   C3        1.0  0.87781  0.3022300000000001  0.39056  1.0000
  C   C4        1.0  0.32318  0.3289400000000001  0.41964  1.0000
  C   C5        1.0  0.4901800000000001  0.6096400000000002  0.9118000000000003  1.0000
  C   C6        1.0  0.90679  0.57958  0.90984  1.0000
  C   C7        1.0  0.12219000000000015  0.60943  0.6977600000000003  1.0000
  C   C8        1.0  0.6768300000000002  0.5803700000000004  0.6710600000000001  1.0000
  C   C9        1.0  0.50983  0.08821000000000002  0.39037  1.0000
  C   C10       1.0  0.09320999999999999  0.09016000000000003  0.42042  1.0000
  C   C11       1.0  0.42188  0.3022900000000001  0.91154  1.0000
  C   C12       1.0  0.0028700000000001645  0.3294100000000002  0.9088700000000002  1.0000
  C   C13       1.0  0.42188  0.91155  0.30230000000000007  1.0000
  C   C14       1.0  0.002870000000000129  0.9088700000000002  0.32941  1.0000
  C   C15       1.0  0.12220000000000027  0.6977700000000004  0.6094400000000002  1.0000
  C   C16       1.0  0.6768300000000002  0.6710600000000002  0.58036  1.0000
  C   C17       1.0  0.5098300000000001  0.3903600000000001  0.08820000000000003  1.0000
  C   C18       1.0  0.09322000000000007  0.4204200000000001  0.09016000000000002  1.0000
  C   C19       1.0  0.87782  0.3905800000000001  0.30224  1.0000
  C   C20       1.0  0.32318  0.41964000000000024  0.32895  1.0000
  C   C21       1.0  0.49018  0.91179  0.60963  1.0000
  C   C22       1.0  0.9068  0.90985  0.57958  1.0000
  C   C23       1.0  0.57813  0.69771  0.08846000000000002  1.0000
  C   C24       1.0  0.99714  0.6706  0.09113  1.0000
  C   C25       1.0  0.5265100000000001  0.00030000000000011793  0.7096700000000002  1.0000
  C   C26       1.0  0.41559999999999997  0.0005099999999999893  0.73268  1.0000
  C   C27       1.0  0.6215600000000001  0.9999200000000001  0.7898200000000001  1.0000
  C   C28       1.0  0.0061199999999999935  0.0004799999999999997  0.67285  1.0000
  C   C29       1.0  0.1304400000000001  0.0005700000000000796  0.6804900000000003  1.0000
  C   C30       1.0  0.98505  0.00046000000000002517  0.7613300000000001  1.0000
  C   C31       1.0  0.81496  0.29037000000000013  0.29036  1.0000
  C   C32       1.0  0.6806900000000001  0.26639  0.26639000000000007  1.0000
  C   C33       1.0  0.8317400000000001  0.2106900000000001  0.21069000000000004  1.0000
  C   C34       1.0  0.33024  0.32678  0.3267800000000001  1.0000
  C   C35       1.0  0.44775  0.3202100000000001  0.32021  1.0000
  C   C36       1.0  0.22179  0.23767000000000005  0.23767  1.0000
  C   C37       1.0  0.52651  0.70968  0.00031  1.0000
  C   C38       1.0  0.41559999999999997  0.7327000000000002  0.0005200000000000001  1.0000
  C   C39       1.0  0.6215600000000002  0.78983  0.9999200000000001  1.0000
  C   C40       1.0  0.006110000000000083  0.6728500000000002  0.0004800000000000001  1.0000
  C   C41       1.0  0.13043000000000002  0.68049  0.0005700000000000002  1.0000
  C   C42       1.0  0.98504  0.76134  0.0004500000000000001  1.0000
  C   C43       1.0  0.18505000000000005  0.7096300000000002  0.70964  1.0000
  C   C44       1.0  0.3193200000000001  0.7336100000000002  0.7336200000000002  1.0000
  C   C45       1.0  0.1682700000000001  0.7893100000000002  0.78932  1.0000
  C   C46       1.0  0.66977  0.67323  0.6732200000000002  1.0000
  C   C47       1.0  0.5522600000000002  0.6798000000000004  0.6797900000000002  1.0000
  C   C48       1.0  0.7782200000000001  0.7623300000000003  0.7623300000000001  1.0000
  C   C49       1.0  0.4735000000000001  0.9997000000000001  0.29033000000000003  1.0000
  C   C50       1.0  0.5844100000000001  0.9994900000000002  0.26732  1.0000
  C   C51       1.0  0.37844000000000005  8.000000000002311e-05  0.21018000000000006  1.0000
  C   C52       1.0  0.9938900000000004  0.9995200000000002  0.3271500000000001  1.0000
  C   C53       1.0  0.86956  0.9994300000000002  0.31951000000000007  1.0000
  C   C54       1.0  0.014960000000000086  0.9995500000000002  0.23867000000000005  1.0000
  C   C55       1.0  0.47349999999999987  0.29033  0.99969  1.0000
  C   C56       1.0  0.5844100000000001  0.26731000000000016  0.9994800000000001  1.0000
  C   C57       1.0  0.37845  0.21017000000000005  8e-05  1.0000
  C   C58       1.0  0.99389  0.3271500000000002  0.9995200000000001  1.0000
  C   C59       1.0  0.86957  0.31951  0.9994300000000002  1.0000
  C   C60       1.0  0.014960000000000034  0.23866000000000007  0.99955  1.0000
  O   O1        1.0  0.6801300000000001  0.1032200000000001  0.6867700000000002  1.0000
  O   O2        1.0  0.52083  0.1398400000000001  0.69665  1.0000
  O   O3        1.0  0.89687  0.10360000000000004  0.66671  1.0000
  O   O4        1.0  0.08447999999999994  0.15185  0.675  1.0000
  O   O5        1.0  0.7466400000000001  0.23290000000000016  0.6324400000000001  1.0000
  O   O6        1.0  0.9909400000000002  0.3138500000000001  0.4170300000000001  1.0000
  O   O7        1.0  0.82053  0.30205  0.4420500000000001  1.0000
  O   O8        1.0  0.22642000000000007  0.33198000000000005  0.43564000000000014  1.0000
  O   O9        1.0  0.40682999999999997  0.32547  0.4764500000000001  1.0000
  O   O10       1.0  0.11485000000000004  0.3677300000000001  0.60079  1.0000
  O   O11       1.0  0.57733  0.58377  0.8969700000000002  1.0000
  O   O12       1.0  0.38164000000000003  0.5575500000000002  0.85976  1.0000
  O   O13       1.0  0.7938500000000002  0.5633900000000004  0.8964500000000002  1.0000
  O   O14       1.0  0.9342000000000003  0.5226700000000003  0.8500400000000001  1.0000
  O   O15       1.0  0.5137899999999999  0.40007  0.7665  1.0000
  O   O16       1.0  0.009070000000000206  0.5829600000000003  0.6861500000000003  1.0000
  O   O17       1.0  0.17947  0.55792  0.69791  1.0000
  O   O18       1.0  0.7735900000000002  0.5643700000000003  0.6680200000000002  1.0000
  O   O19       1.0  0.5931800000000002  0.5235600000000002  0.67454  1.0000
  O   O20       1.0  0.88506  0.3991900000000001  0.63223  1.0000
  O   O21       1.0  0.42268  0.10303000000000005  0.41624  1.0000
  O   O22       1.0  0.6183700000000001  0.14025000000000007  0.44246000000000013  1.0000
  O   O23       1.0  0.20615000000000003  0.10355000000000003  0.43661  1.0000
  O   O24       1.0  0.06579000000000002  0.14995000000000006  0.47733  1.0000
  O   O25       1.0  0.4862000000000001  0.23351000000000002  0.59994  1.0000
  O   O26       1.0  0.3198900000000002  0.31324000000000024  0.8967800000000002  1.0000
  O   O27       1.0  0.47919000000000017  0.3033400000000002  0.8601600000000003  1.0000
  O   O28       1.0  0.10314000000000008  0.33328000000000013  0.8964000000000002  1.0000
  O   O29       1.0  0.91551  0.325  0.84815  1.0000
  O   O30       1.0  0.25336  0.3675700000000001  0.7671  1.0000
  O   O31       1.0  0.3198800000000001  0.8967900000000002  0.31323000000000006  1.0000
  O   O32       1.0  0.47918  0.8601700000000002  0.30335  1.0000
  O   O33       1.0  0.10314000000000001  0.8964  0.33329  1.0000
  O   O34       1.0  0.91553  0.84815  0.3250000000000001  1.0000
  O   O35       1.0  0.2533700000000001  0.7671  0.3675600000000001  1.0000
  O   O36       1.0  0.009070000000000135  0.6861600000000002  0.58297  1.0000
  O   O37       1.0  0.17948  0.69795  0.55795  1.0000
  O   O38       1.0  0.7735900000000002  0.6680200000000002  0.56437  1.0000
  O   O39       1.0  0.5931800000000002  0.6745400000000001  0.5235600000000001  1.0000
  O   O40       1.0  0.8851600000000002  0.6322800000000002  0.39922  1.0000
  O   O41       1.0  0.42268  0.41623  0.10303000000000001  1.0000
  O   O42       1.0  0.61837  0.44246000000000013  0.14024  1.0000
  O   O43       1.0  0.20616000000000007  0.4366100000000001  0.10355  1.0000
  O   O44       1.0  0.06581000000000002  0.47733  0.14996  1.0000
  O   O45       1.0  0.48622  0.59993  0.2335  1.0000
  O   O46       1.0  0.9909400000000002  0.41704000000000013  0.31385  1.0000
  O   O47       1.0  0.8205399999999999  0.44208  0.30209  1.0000
  O   O48       1.0  0.2264200000000001  0.43563000000000024  0.33198000000000005  1.0000
  O   O49       1.0  0.40682999999999997  0.4764400000000001  0.32547  1.0000
  O   O50       1.0  0.11495  0.60081  0.36777  1.0000
  O   O51       1.0  0.5773300000000002  0.8969700000000002  0.5837700000000002  1.0000
  O   O52       1.0  0.3816399999999999  0.85976  0.55754  1.0000
  O   O53       1.0  0.7938600000000001  0.8964500000000002  0.56339  1.0000
  O   O54       1.0  0.93422  0.8500500000000001  0.52267  1.0000
  O   O55       1.0  0.5138100000000001  0.7665000000000002  0.4000600000000001  1.0000
  O   O56       1.0  0.68012  0.6867700000000002  0.10322  1.0000
  O   O57       1.0  0.52082  0.69666  0.13984  1.0000
  O   O58       1.0  0.89687  0.6667200000000002  0.10361  1.0000
  O   O59       1.0  0.08449999999999999  0.67501  0.15185000000000007  1.0000
  O   O60       1.0  0.74665  0.6324400000000002  0.23290000000000005  1.0000
