data_image0
_chemical_formula_structural       Cu12H48C160N12Cl36O48
_chemical_formula_sum              "Cu12 H48 C160 N12 Cl36 O48"
_cell_length_a       18.32237
_cell_length_b       18.32483
_cell_length_c       18.32586
_cell_angle_alpha    75.37585
_cell_angle_beta     75.36576
_cell_angle_gamma    75.32777

_symmetry_space_group_name_H-M    'P 1'
_symmetry_Int_Tables_number       1

loop_
  _symmetry_equiv_pos_as_xyz
  'x,y,z'

loop_
  _atom_site_type_symbol
  _atom_site_label
  _atom_site_symmetry_multiplicity
  _atom_site_fract_x
  _atom_site_fract_y
  _atom_site_fract_z
  _atom_site_occupancy
  Cu  Cu1       1.0  0.73236  0.59274  0.15767000000000006  1.0000
  Cu  Cu2       1.0  0.5922000000000001  0.15745  0.73196  1.0000
  Cu  Cu3       1.0  0.15715999999999997  0.73242  0.59252  1.0000
  Cu  Cu4       1.0  0.90688  0.76736  0.3424000000000001  1.0000
  Cu  Cu5       1.0  0.34106  0.9053400000000001  0.76924  1.0000
  Cu  Cu6       1.0  0.76876  0.34182  0.90587  1.0000
  Cu  Cu7       1.0  0.26762  0.40719  0.8423  1.0000
  Cu  Cu8       1.0  0.4078099999999999  0.84256  0.26802  1.0000
  Cu  Cu9       1.0  0.84286  0.26746  0.40738000000000013  1.0000
  Cu  Cu10      1.0  0.09332999999999998  0.23249  0.65794  1.0000
  Cu  Cu11      1.0  0.659  0.09470999999999999  0.2307  1.0000
  Cu  Cu12      1.0  0.23118999999999998  0.65817  0.0943  1.0000
  H   H1        1.0  0.7034  0.55294  0.02011  1.0000
  H   H2        1.0  0.63456  0.61881  0.9126200000000002  1.0000
  H   H3        1.0  0.58521  0.82778  0.00228  1.0000
  H   H4        1.0  0.65627  0.75153  0.10678  1.0000
  H   H5        1.0  0.55278  0.019440000000000006  0.70356  1.0000
  H   H6        1.0  0.6191399999999999  0.91191  0.63501  1.0000
  H   H7        1.0  0.8273599999999999  0.002960000000000016  0.58493  1.0000
  H   H8        1.0  0.75071  0.10705000000000002  0.65633  1.0000
  H   H9        1.0  0.01922999999999988  0.7038600000000002  0.5526900000000002  1.0000
  H   H10       1.0  0.91194  0.63502  0.61885  1.0000
  H   H11       1.0  0.0029899999999999805  0.58492  0.8271  1.0000
  H   H12       1.0  0.10692999999999996  0.6565499999999999  0.7505800000000002  1.0000
  H   H13       1.0  0.9462700000000001  0.7951199999999999  0.48029000000000005  1.0000
  H   H14       1.0  0.8812699999999999  0.86454  0.58743  1.0000
  H   H15       1.0  0.67218  0.91588  0.49754000000000004  1.0000
  H   H16       1.0  0.74741  0.84356  0.3938  1.0000
  H   H17       1.0  0.47962  0.9461600000000001  0.79596  1.0000
  H   H18       1.0  0.5873099999999999  0.8811299999999999  0.8648500000000002  1.0000
  H   H19       1.0  0.49816999999999967  0.67174  0.9157000000000002  1.0000
  H   H20       1.0  0.39379999999999993  0.7470700000000001  0.84414  1.0000
  H   H21       1.0  0.7960699999999999  0.48011000000000004  0.94628  1.0000
  H   H22       1.0  0.8647899999999996  0.5877700000000001  0.88091  1.0000
  H   H23       1.0  0.9158299999999999  0.4977  0.6719600000000002  1.0000
  H   H24       1.0  0.84369  0.3938999999999999  0.7474200000000002  1.0000
  H   H25       1.0  0.29654999999999987  0.44698  0.9798200000000001  1.0000
  H   H26       1.0  0.36540000000000006  0.38118  0.08733000000000003  1.0000
  H   H27       1.0  0.41479999999999984  0.17214  0.99779  1.0000
  H   H28       1.0  0.34373999999999993  0.24832  0.89326  1.0000
  H   H29       1.0  0.4471999999999999  0.9805500000000001  0.29642  1.0000
  H   H30       1.0  0.38086  0.08806000000000001  0.36499  1.0000
  H   H31       1.0  0.17261999999999997  0.99703  0.41512  1.0000
  H   H32       1.0  0.24923999999999996  0.8929599999999999  0.3436700000000001  1.0000
  H   H33       1.0  0.98072  0.29609  0.44731000000000004  1.0000
  H   H34       1.0  0.08806999999999998  0.36487  0.38118  1.0000
  H   H35       1.0  0.9970600000000001  0.4150400000000001  0.17289  1.0000
  H   H36       1.0  0.8930600000000001  0.34346999999999994  0.24939000000000003  1.0000
  H   H37       1.0  0.053809999999999976  0.20488  0.51986  1.0000
  H   H38       1.0  0.11874000000000003  0.13549  0.41267  1.0000
  H   H39       1.0  0.3279  0.08407000000000002  0.50243  1.0000
  H   H40       1.0  0.25273000000000007  0.15627  0.60627  1.0000
  H   H41       1.0  0.5205  0.05387999999999998  0.20400000000000004  1.0000
  H   H42       1.0  0.41274  0.11884999999999997  0.13518000000000005  1.0000
  H   H43       1.0  0.50177  0.32831  0.08427000000000003  1.0000
  H   H44       1.0  0.60622  0.25304  0.15574  1.0000
  H   H45       1.0  0.20391999999999996  0.51988  0.053750000000000006  1.0000
  H   H46       1.0  0.13524999999999998  0.41218  0.11911000000000001  1.0000
  H   H47       1.0  0.08414  0.50223  0.32807000000000003  1.0000
  H   H48       1.0  0.15623  0.60607  0.25263  1.0000
  C   C1        1.0  0.09920999999999999  0.72978  0.06603  1.0000
  C   C2        1.0  0.025839999999999974  0.7480800000000001  0.03575  1.0000
  C   C3        1.0  0.007619999999999952  0.8143100000000002  0.98044  1.0000
  C   C4        1.0  0.9332699999999998  0.8377699999999999  0.96072  1.0000
  C   C5        1.0  0.6775399999999999  0.6140200000000001  0.01271  1.0000
  C   C6        1.0  0.63875  0.65129  0.95323  1.0000
  C   C7        1.0  0.60406  0.7295699999999999  0.9489700000000001  1.0000
  C   C8        1.0  0.61212  0.76739  0.00329  1.0000
  C   C9        1.0  0.6509799999999999  0.72558  0.06158000000000001  1.0000
  C   C10       1.0  0.8519199999999999  0.65562  0.06624  1.0000
  C   C11       1.0  0.9012599999999998  0.71613  0.04307  1.0000
  C   C12       1.0  0.9719500000000001  0.70015  0.06658  1.0000
  C   C13       1.0  0.8815400000000001  0.78614  0.9937300000000002  1.0000
  C   C14       1.0  0.72996  0.06671  0.09837  1.0000
  C   C15       1.0  0.74805  0.0362  0.02522  1.0000
  C   C16       1.0  0.8144199999999999  0.981  0.006970000000000001  1.0000
  C   C17       1.0  0.83772  0.96113  0.9327500000000001  1.0000
  C   C18       1.0  0.61386  0.012259999999999997  0.67768  1.0000
  C   C19       1.0  0.6514100000000002  0.95283  0.6388900000000002  1.0000
  C   C20       1.0  0.72958  0.94897  0.60389  1.0000
  C   C21       1.0  0.76705  0.0036000000000000185  0.61188  1.0000
  C   C22       1.0  0.72504  0.06171000000000002  0.65094  1.0000
  C   C23       1.0  0.6546999999999998  0.06623000000000002  0.8521  1.0000
  C   C24       1.0  0.7157300000000001  0.04323999999999998  0.9009200000000002  1.0000
  C   C25       1.0  0.6998899999999999  0.06690000000000003  0.9715  1.0000
  C   C26       1.0  0.7859  0.994  0.8811200000000002  1.0000
  C   C27       1.0  0.06691999999999998  0.09888999999999999  0.72995  1.0000
  C   C28       1.0  0.03601999999999999  0.025899999999999996  0.74784  1.0000
  C   C29       1.0  0.9808500000000001  0.00758999999999994  0.8141500000000003  1.0000
  C   C30       1.0  0.96112  0.9332799999999997  0.8374400000000002  1.0000
  C   C31       1.0  0.012069999999999971  0.67795  0.6137500000000002  1.0000
  C   C32       1.0  0.95274  0.6390500000000001  0.6512  1.0000
  C   C33       1.0  0.94895  0.60407  0.72934  1.0000
  C   C34       1.0  0.003570000000000008  0.61202  0.76686  1.0000
  C   C35       1.0  0.06157999999999999  0.65116  0.72492  1.0000
  C   C36       1.0  0.06612  0.85241  0.65478  1.0000
  C   C37       1.0  0.04301000000000004  0.90157  0.71548  1.0000
  C   C38       1.0  0.06655999999999986  0.9722000000000001  0.6996200000000002  1.0000
  C   C39       1.0  0.9940300000000002  0.88162  0.78568  1.0000
  C   C40       1.0  0.77033  0.40002  0.43467  1.0000
  C   C41       1.0  0.75194  0.47358000000000006  0.46492  1.0000
  C   C42       1.0  0.68583  0.49210000000000004  0.52039  1.0000
  C   C43       1.0  0.6629600000000002  0.56643  0.54029  1.0000
  C   C44       1.0  0.88531  0.8216  0.48756000000000005  1.0000
  C   C45       1.0  0.84848  0.8607700000000001  0.54689  1.0000
  C   C46       1.0  0.7703700000000001  0.8961599999999998  0.55105  1.0000
  C   C47       1.0  0.7324  0.8883900000000001  0.4967000000000001  1.0000
  C   C48       1.0  0.7737199999999999  0.84896  0.4386800000000001  1.0000
  C   C49       1.0  0.8460899999999999  0.6465400000000001  0.4339800000000001  1.0000
  C   C50       1.0  0.7851899999999999  0.59754  0.4580500000000001  1.0000
  C   C51       1.0  0.8003500000000001  0.52712  0.43419  1.0000
  C   C52       1.0  0.7152999999999999  0.61754  0.50755  1.0000
  C   C53       1.0  0.43468000000000007  0.77067  0.40073  1.0000
  C   C54       1.0  0.46461  0.75245  0.47439  1.0000
  C   C55       1.0  0.52024  0.68641  0.49272000000000005  1.0000
  C   C56       1.0  0.54007  0.66319  0.56703  1.0000
  C   C57       1.0  0.4871699999999999  0.8851799999999999  0.8222600000000001  1.0000
  C   C58       1.0  0.5467399999999999  0.84837  0.86111  1.0000
  C   C59       1.0  0.5511899999999998  0.7702  0.8962300000000002  1.0000
  C   C60       1.0  0.4970000000000001  0.73205  0.88847  1.0000
  C   C61       1.0  0.43868999999999997  0.7733900000000001  0.84947  1.0000
  C   C62       1.0  0.43093  0.8447800000000001  0.6492  1.0000
  C   C63       1.0  0.45655999999999997  0.7846799999999999  0.59911  1.0000
  C   C64       1.0  0.43344  0.8005300000000001  0.52822  1.0000
  C   C65       1.0  0.50677  0.71507  0.61856  1.0000
  C   C66       1.0  0.40053999999999995  0.43427999999999994  0.7704200000000002  1.0000
  C   C67       1.0  0.4740000000000001  0.46441  0.75228  1.0000
  C   C68       1.0  0.4924399999999998  0.51974  0.6861100000000002  1.0000
  C   C69       1.0  0.56655  0.53994  0.66332  1.0000
  C   C70       1.0  0.8222199999999997  0.48757  0.8852800000000002  1.0000
  C   C71       1.0  0.86109  0.54705  0.84828  1.0000
  C   C72       1.0  0.89627  0.55119  0.77016  1.0000
  C   C73       1.0  0.88853  0.49681  0.73221  1.0000
  C   C74       1.0  0.8492500000000001  0.43876999999999994  0.77364  1.0000
  C   C75       1.0  0.64769  0.43200000000000005  0.84569  1.0000
  C   C76       1.0  0.5984  0.45683  0.78492  1.0000
  C   C77       1.0  0.5278299999999998  0.43322  0.8003100000000002  1.0000
  C   C78       1.0  0.61783  0.50713  0.71549  1.0000
  C   C79       1.0  0.9003699999999999  0.27021999999999996  0.9342700000000003  1.0000
  C   C80       1.0  0.9740600000000001  0.2518  0.9641200000000001  1.0000
  C   C81       1.0  0.99233  0.18558  0.01946  1.0000
  C   C82       1.0  0.06667000000000002  0.16217  0.03921  1.0000
  C   C83       1.0  0.32243  0.3859  0.98725  1.0000
  C   C84       1.0  0.36122  0.34867  0.04674  1.0000
  C   C85       1.0  0.39592999999999995  0.27039  0.051040000000000016  1.0000
  C   C86       1.0  0.38787000000000005  0.23252999999999996  0.99674  1.0000
  C   C87       1.0  0.3490200000000001  0.27429999999999993  0.93843  1.0000
  C   C88       1.0  0.14805000000000001  0.3442799999999999  0.9337600000000001  1.0000
  C   C89       1.0  0.09866999999999998  0.28381  0.9568600000000002  1.0000
  C   C90       1.0  0.027960000000000013  0.29975999999999997  0.93334  1.0000
  C   C91       1.0  0.11838  0.21381  0.006230000000000002  1.0000
  C   C92       1.0  0.27009000000000005  0.9334499999999999  0.9014  1.0000
  C   C93       1.0  0.2519599999999999  0.9637399999999999  0.9746700000000001  1.0000
  C   C94       1.0  0.18558999999999995  0.018930000000000002  0.99295  1.0000
  C   C95       1.0  0.16229  0.03881  0.06717  1.0000
  C   C96       1.0  0.38610999999999995  0.98773  0.3223  1.0000
  C   C97       1.0  0.34857  0.047159999999999966  0.3611100000000001  1.0000
  C   C98       1.0  0.27041  0.05102000000000001  0.39612  1.0000
  C   C99       1.0  0.23291999999999993  0.9963900000000001  0.38814  1.0000
  C   C100      1.0  0.27493000000000006  0.9382899999999998  0.34906  1.0000
  C   C101      1.0  0.3453300000000001  0.9338  0.1478  1.0000
  C   C102      1.0  0.2843099999999998  0.95673  0.09897000000000003  1.0000
  C   C103      1.0  0.30012999999999995  0.93305  0.028390000000000006  1.0000
  C   C104      1.0  0.21413000000000001  0.005949999999999994  0.11879000000000003  1.0000
  C   C105      1.0  0.93314  0.90102  0.27007  1.0000
  C   C106      1.0  0.9640499999999999  0.97402  0.25216  1.0000
  C   C107      1.0  0.019209999999999988  0.9923400000000001  0.18583000000000005  1.0000
  C   C108      1.0  0.038939999999999995  0.06665  0.16253  1.0000
  C   C109      1.0  0.9878999999999999  0.32201  0.38625  1.0000
  C   C110      1.0  0.04725999999999999  0.36088  0.34882  1.0000
  C   C111      1.0  0.051069999999999977  0.3958499999999999  0.2706800000000001  1.0000
  C   C112      1.0  0.9964600000000001  0.38793  0.23314000000000001  1.0000
  C   C113      1.0  0.93842  0.3488299999999999  0.2750600000000001  1.0000
  C   C114      1.0  0.9339  0.1476  0.34506000000000003  1.0000
  C   C115      1.0  0.9570500000000001  0.09838  0.28445  1.0000
  C   C116      1.0  0.9335000000000001  0.02774  0.30035  1.0000
  C   C117      1.0  0.00602  0.11832999999999999  0.21426  1.0000
  C   C118      1.0  0.22955  0.59978  0.56532  1.0000
  C   C119      1.0  0.24786999999999995  0.52623  0.5350800000000002  1.0000
  C   C120      1.0  0.31401  0.50772  0.4796500000000001  1.0000
  C   C121      1.0  0.3369300000000003  0.43344000000000005  0.45966  1.0000
  C   C122      1.0  0.11474999999999999  0.17834  0.51259  1.0000
  C   C123      1.0  0.15154999999999996  0.13921  0.45322  1.0000
  C   C124      1.0  0.22965000000000002  0.10381000000000001  0.44901  1.0000
  C   C125      1.0  0.26766  0.11152999999999999  0.50334  1.0000
  C   C126      1.0  0.22637  0.15090999999999996  0.56141  1.0000
  C   C127      1.0  0.15413999999999997  0.35295999999999994  0.56638  1.0000
  C   C128      1.0  0.21487000000000006  0.40216  0.54208  1.0000
  C   C129      1.0  0.19945999999999997  0.47270000000000006  0.56578  1.0000
  C   C130      1.0  0.28467  0.38228  0.49240000000000006  1.0000
  C   C131      1.0  0.5653  0.22930000000000003  0.59927  1.0000
  C   C132      1.0  0.53538  0.24752000000000002  0.5255900000000001  1.0000
  C   C133      1.0  0.47976  0.31357000000000007  0.50726  1.0000
  C   C134      1.0  0.4599599999999999  0.3368  0.43294  1.0000
  C   C135      1.0  0.51291  0.11485000000000001  0.1777  1.0000
  C   C136      1.0  0.4533  0.15164  0.1389  1.0000
  C   C137      1.0  0.44881000000000004  0.22981  0.10377000000000003  1.0000
  C   C138      1.0  0.50299  0.26799999999999996  0.11149000000000003  1.0000
  C   C139      1.0  0.56134  0.22668  0.15045  1.0000
  C   C140      1.0  0.56914  0.15518000000000004  0.3507600000000001  1.0000
  C   C141      1.0  0.54348  0.21531  0.40083  1.0000
  C   C142      1.0  0.56656  0.19947  0.47174  1.0000
  C   C143      1.0  0.49328000000000005  0.28493000000000007  0.38139  1.0000
  C   C144      1.0  0.59943  0.5657  0.2296  1.0000
  C   C145      1.0  0.52593  0.53558  0.24778  1.0000
  C   C146      1.0  0.5075100000000001  0.48021999999999987  0.3139500000000001  1.0000
  C   C147      1.0  0.43339999999999995  0.46003000000000005  0.33671  1.0000
  C   C148      1.0  0.17778  0.5124  0.11476  1.0000
  C   C149      1.0  0.13893  0.45289  0.15174  1.0000
  C   C150      1.0  0.10374999999999997  0.44874  0.22987000000000005  1.0000
  C   C151      1.0  0.11145999999999996  0.50312  0.26783000000000007  1.0000
  C   C152      1.0  0.15071  0.56118  0.2264  1.0000
  C   C153      1.0  0.3522600000000001  0.56803  0.15432  1.0000
  C   C154      1.0  0.4015500000000001  0.54317  0.21509000000000006  1.0000
  C   C155      1.0  0.47211  0.56677  0.19972  1.0000
  C   C156      1.0  0.3821499999999999  0.49284999999999995  0.2845100000000001  1.0000
  C   C157      1.0  0.9107000000000001  0.91067  0.91028  1.0000
  C   C158      1.0  0.5898700000000001  0.5899200000000001  0.5902  1.0000
  C   C159      1.0  0.08931000000000001  0.08926999999999999  0.08966000000000003  1.0000
  C   C160      1.0  0.41007999999999994  0.4100400000000001  0.4098  1.0000
  N   N1        1.0  0.68255  0.65032  0.06598000000000002  1.0000
  N   N2        1.0  0.6498499999999999  0.06578999999999996  0.6826300000000002  1.0000
  N   N3        1.0  0.06552000000000002  0.68296  0.6498  1.0000
  N   N4        1.0  0.8488499999999999  0.8167500000000001  0.43437  1.0000
  N   N5        1.0  0.4339999999999999  0.8485599999999999  0.8175900000000003  1.0000
  N   N6        1.0  0.8173600000000001  0.43435  0.84881  1.0000
  N   N7        1.0  0.31744999999999995  0.34955999999999987  0.9339800000000001  1.0000
  N   N8        1.0  0.35011  0.9342100000000001  0.31735  1.0000
  N   N9        1.0  0.93446  0.31702  0.35018  1.0000
  N   N10       1.0  0.15124  0.18311999999999998  0.5658  1.0000
  N   N11       1.0  0.56607  0.15151  0.18233  1.0000
  N   N12       1.0  0.18260999999999997  0.56562  0.15124  1.0000
  Cl  Cl1       1.0  0.9928299999999998  0.61788  0.13467  1.0000
  Cl  Cl2       1.0  0.07603000000000001  0.87075  0.9438500000000001  1.0000
  Cl  Cl3       1.0  0.7946099999999999  0.8044200000000001  0.96452  1.0000
  Cl  Cl4       1.0  0.61751  0.13490999999999997  0.9926100000000001  1.0000
  Cl  Cl5       1.0  0.8713100000000001  0.94503  0.07506000000000003  1.0000
  Cl  Cl6       1.0  0.8042099999999999  0.96466  0.7942600000000001  1.0000
  Cl  Cl7       1.0  0.13422999999999996  0.9933600000000001  0.61705  1.0000
  Cl  Cl8       1.0  0.94463  0.07572999999999999  0.8710100000000001  1.0000
  Cl  Cl9       1.0  0.96508  0.7945599999999999  0.8040600000000002  1.0000
  Cl  Cl10      1.0  0.8823800000000002  0.5061  0.36572  1.0000
  Cl  Cl11      1.0  0.62838  0.42452  0.5564400000000003  1.0000
  Cl  Cl12      1.0  0.69828  0.7038999999999999  0.5376100000000003  1.0000
  Cl  Cl13      1.0  0.36513  0.88275  0.50717  1.0000
  Cl  Cl14      1.0  0.5567499999999999  0.62944  0.42473  1.0000
  Cl  Cl15      1.0  0.53672  0.69783  0.7049700000000002  1.0000
  Cl  Cl16      1.0  0.5072599999999999  0.36425  0.88195  1.0000
  Cl  Cl17      1.0  0.42503  0.55553  0.6284600000000001  1.0000
  Cl  Cl18      1.0  0.7039199999999999  0.53762  0.6986800000000002  1.0000
  Cl  Cl19      1.0  0.007090000000000031  0.38205999999999996  0.86528  1.0000
  Cl  Cl20      1.0  0.92394  0.12913  0.05615000000000001  1.0000
  Cl  Cl21      1.0  0.20531  0.19554  0.03543  1.0000
  Cl  Cl22      1.0  0.38251999999999997  0.86506  0.00727  1.0000
  Cl  Cl23      1.0  0.12867999999999996  0.05494000000000002  0.9248800000000001  1.0000
  Cl  Cl24      1.0  0.19583  0.03526000000000001  0.20567  1.0000
  Cl  Cl25      1.0  0.8658300000000002  0.006590000000000003  0.38293  1.0000
  Cl  Cl26      1.0  0.05541000000000006  0.9241899999999998  0.12899  1.0000
  Cl  Cl27      1.0  0.03497000000000001  0.20538999999999996  0.19587  1.0000
  Cl  Cl28      1.0  0.11735999999999991  0.49371999999999994  0.6341800000000002  1.0000
  Cl  Cl29      1.0  0.37143000000000004  0.57533  0.44369000000000003  1.0000
  Cl  Cl30      1.0  0.30185000000000006  0.29588  0.46239  1.0000
  Cl  Cl31      1.0  0.63487  0.11723  0.49277  1.0000
  Cl  Cl32      1.0  0.44317  0.37049999999999994  0.5752900000000001  1.0000
  Cl  Cl33      1.0  0.46337000000000006  0.3022  0.29496  1.0000
  Cl  Cl34      1.0  0.49272000000000005  0.63572  0.11808  1.0000
  Cl  Cl35      1.0  0.57499  0.44438  0.37153000000000014  1.0000
  Cl  Cl36      1.0  0.29606  0.46239  0.30131  1.0000
  O   O1        1.0  0.80747  0.65462  0.13396  1.0000
  O   O2        1.0  0.16002000000000002  0.69457  0.025010000000000008  1.0000
  O   O3        1.0  0.09690000000000003  0.74604  0.12864000000000003  1.0000
  O   O4        1.0  0.8582  0.6136  0.020730000000000002  1.0000
  O   O5        1.0  0.65279  0.13425999999999996  0.8081300000000002  1.0000
  O   O6        1.0  0.69522  0.025639999999999993  0.1595  1.0000
  O   O7        1.0  0.74592  0.12957  0.09571000000000003  1.0000
  O   O8        1.0  0.61304  0.020400000000000022  0.85838  1.0000
  O   O9        1.0  0.13388000000000003  0.80804  0.65377  1.0000
  O   O10       1.0  0.025730000000000017  0.16033999999999998  0.69565  1.0000
  O   O11       1.0  0.13003000000000003  0.09552999999999999  0.74565  1.0000
  O   O12       1.0  0.020629999999999975  0.8584899999999999  0.6127800000000002  1.0000
  O   O13       1.0  0.8466099999999999  0.6908  0.3663200000000001  1.0000
  O   O14       1.0  0.8042400000000001  0.33878  0.4765  1.0000
  O   O15       1.0  0.75563  0.40304999999999996  0.37116  1.0000
  O   O16       1.0  0.8889099999999999  0.64043  0.47891000000000006  1.0000
  O   O17       1.0  0.36357  0.84357  0.6939800000000003  1.0000
  O   O18       1.0  0.47678  0.80445  0.3397200000000001  1.0000
  O   O19       1.0  0.37133999999999995  0.75583  0.4033100000000001  1.0000
  O   O20       1.0  0.47425  0.889  0.6436100000000002  1.0000
  O   O21       1.0  0.69357  0.36526999999999993  0.8437200000000002  1.0000
  O   O22       1.0  0.3393599999999999  0.47614000000000006  0.8043300000000001  1.0000
  O   O23       1.0  0.40349999999999997  0.37095999999999996  0.7553300000000002  1.0000
  O   O24       1.0  0.64043  0.4749799999999999  0.8906300000000003  1.0000
  O   O25       1.0  0.19253999999999988  0.3452699999999999  0.8660600000000003  1.0000
  O   O26       1.0  0.8398099999999998  0.30554000000000003  0.97548  1.0000
  O   O27       1.0  0.90189  0.25407  0.87181  1.0000
  O   O28       1.0  0.14179999999999998  0.38626  0.9793200000000001  1.0000
  O   O29       1.0  0.34734999999999994  0.8657600000000001  0.19175  1.0000
  O   O30       1.0  0.30504  0.9745200000000002  0.84042  1.0000
  O   O31       1.0  0.25397  0.87071  0.90387  1.0000
  O   O32       1.0  0.38687  0.9797399999999999  0.14155000000000006  1.0000
  O   O33       1.0  0.86619  0.19206000000000004  0.34589  1.0000
  O   O34       1.0  0.9743  0.83961  0.3044900000000001  1.0000
  O   O35       1.0  0.8700699999999999  0.9044  0.25428  1.0000
  O   O36       1.0  0.9792999999999998  0.14155  0.38714  1.0000
  O   O37       1.0  0.15358  0.30907  0.63429  1.0000
  O   O38       1.0  0.19568000000000005  0.66101  0.52346  1.0000
  O   O39       1.0  0.24430999999999983  0.59684  0.6287900000000002  1.0000
  O   O40       1.0  0.11142000000000003  0.35873000000000005  0.52157  1.0000
  O   O41       1.0  0.63644  0.15655  0.30589000000000005  1.0000
  O   O42       1.0  0.5231899999999999  0.19552999999999998  0.6602600000000002  1.0000
  O   O43       1.0  0.6286499999999999  0.24413999999999994  0.5967100000000002  1.0000
  O   O44       1.0  0.52591  0.11084  0.35649  1.0000
  O   O45       1.0  0.30638  0.63476  0.15636  1.0000
  O   O46       1.0  0.6606100000000001  0.52382  0.19569  1.0000
  O   O47       1.0  0.59656  0.62902  0.24463000000000001  1.0000
  O   O48       1.0  0.35953  0.52505  0.10940000000000003  1.0000
