data_image0
_chemical_formula_structural       Zn6H116C180N16O24
_chemical_formula_sum              "Zn6 H116 C180 N16 O24"
_cell_length_a       21.06322
_cell_length_b       21.21315
_cell_length_c       21.5273
_cell_angle_alpha    62.9624
_cell_angle_beta     63.72383
_cell_angle_gamma    82.51127

_symmetry_space_group_name_H-M    'P 1'
_symmetry_Int_Tables_number       1

loop_
  _symmetry_equiv_pos_as_xyz
  'x,y,z'

loop_
  _atom_site_type_symbol
  _atom_site_label
  _atom_site_symmetry_multiplicity
  _atom_site_fract_x
  _atom_site_fract_y
  _atom_site_fract_z
  _atom_site_occupancy
  Zn  Zn1       1.0  0.041650000000000006  0.44176  0.33452  1.0000
  Zn  Zn2       1.0  0.08252  0.26774999999999993  0.37595  1.0000
  Zn  Zn3       1.0  0.08618  0.11132  0.34659  1.0000
  Zn  Zn4       1.0  0.9583499999999999  0.55824  0.66547  1.0000
  Zn  Zn5       1.0  0.9174799999999999  0.7322500000000001  0.62405  1.0000
  Zn  Zn6       1.0  0.9138199999999997  0.88869  0.65341  1.0000
  H   H1        1.0  0.10618000000000002  0.7972100000000001  0.36579  1.0000
  H   H2        1.0  0.0552  0.72262  0.43866000000000005  1.0000
  H   H3        1.0  0.21764999999999995  0.47642  0.50544  1.0000
  H   H4        1.0  0.21412  0.24790000000000004  0.61005  1.0000
  H   H5        1.0  0.03654999999999997  0.6267899999999998  0.42942000000000013  1.0000
  H   H6        1.0  0.05650999999999997  0.51167  0.42367  1.0000
  H   H7        1.0  0.06636  0.9479100000000001  0.45073  1.0000
  H   H8        1.0  0.59293  0.29812999999999995  0.71988  1.0000
  H   H9        1.0  0.6814499999999998  0.4112199999999999  0.45543  1.0000
  H   H10       1.0  0.15694999999999998  0.47078  0.4318  1.0000
  H   H11       1.0  0.46190000000000003  0.4543499999999999  0.57155  1.0000
  H   H12       1.0  0.83402  0.35575  0.59182  1.0000
  H   H13       1.0  0.7033199999999997  0.34895000000000004  0.66509  1.0000
  H   H14       1.0  0.00404000000000002  0.58125  0.24017999999999998  1.0000
  H   H15       1.0  0.8124399999999999  0.42181  0.38257  1.0000
  H   H16       1.0  0.9929999999999998  0.98167  0.25126  1.0000
  H   H17       1.0  0.40204999999999996  0.29518  0.64286  1.0000
  H   H18       1.0  0.42837999999999987  0.4385800000000001  0.77048  1.0000
  H   H19       1.0  0.2658  0.49698  0.9601700000000001  1.0000
  H   H20       1.0  0.2666899999999998  0.44697999999999977  0.7062500000000003  1.0000
  H   H21       1.0  0.46214000000000005  0.29488  0.78535  1.0000
  H   H22       1.0  0.18934999999999994  0.2756  0.07697  1.0000
  H   H23       1.0  0.03450999999999997  0.8410300000000002  0.44828  1.0000
  H   H24       1.0  0.15166  0.24302000000000007  0.53807  1.0000
  H   H25       1.0  0.187  0.3160800000000001  0.9559099999999999  1.0000
  H   H26       1.0  0.33385  0.28934  0.57699  1.0000
  H   H27       1.0  0.3665299999999998  0.44414999999999993  0.89537  1.0000
  H   H28       1.0  0.98349  0.70223  0.23570000000000002  1.0000
  H   H29       1.0  0.12071999999999997  0.28433  0.19893  1.0000
  H   H30       1.0  0.5927699999999998  0.46012  0.50664  1.0000
  H   H31       1.0  0.19938999999999996  0.44264  0.6385  1.0000
  H   H32       1.0  0.24797999999999987  0.31191  0.83021  1.0000
  H   H33       1.0  0.19541999999999998  0.50552  0.08413  1.0000
  H   H34       1.0  0.023680000000000003  0.08382999999999999  0.26526  1.0000
  H   H35       1.0  0.3124399999999999  0.22952999999999998  0.4462300000000001  1.0000
  H   H36       1.0  0.7398499999999998  0.05602999999999999  0.52798  1.0000
  H   H37       1.0  0.73957  0.25991  0.52819  1.0000
  H   H38       1.0  0.25760999999999995  0.19704999999999998  0.87222  1.0000
  H   H39       1.0  0.8707199999999998  0.07317999999999997  0.45643  1.0000
  H   H40       1.0  0.4678399999999999  0.062100000000000044  0.81044  1.0000
  H   H41       1.0  0.5132899999999999  0.21097999999999997  0.68887  1.0000
  H   H42       1.0  0.50461  0.05493  0.61657  1.0000
  H   H43       1.0  0.13234999999999997  0.15085999999999997  0.11698000000000001  1.0000
  H   H44       1.0  0.20068999999999995  0.02607999999999989  0.6285100000000002  1.0000
  H   H45       1.0  0.63506  0.06999  0.54426  1.0000
  H   H46       1.0  0.24558999999999995  0.23326999999999998  0.37516  1.0000
  H   H47       1.0  0.1926399999999999  0.14741999999999997  0.9903100000000001  1.0000
  H   H48       1.0  0.39411  0.19232  0.47969  1.0000
  H   H49       1.0  0.41377999999999987  0.06678  0.9358400000000001  1.0000
  H   H50       1.0  0.31018999999999997  0.19098000000000007  0.74845  1.0000
  H   H51       1.0  0.13275  0.03198  0.55727  1.0000
  H   H52       1.0  0.46222999999999975  0.19325000000000003  0.54672  1.0000
  H   H53       1.0  0.32692  0.11595  0.14095  1.0000
  H   H54       1.0  0.39054999999999995  0.12125  0.00958  1.0000
  H   H55       1.0  0.87039  0.27192999999999995  0.46354  1.0000
  H   H56       1.0  0.2953499999999999  0.05664999999999997  0.76536  1.0000
  H   H57       1.0  0.2246999999999999  0.058990000000000015  0.69888  1.0000
  H   H58       1.0  0.6434199999999999  0.22308  0.62139  1.0000
  H   H59       1.0  0.8938199999999998  0.2028  0.63421  1.0000
  H   H60       1.0  0.9448099999999996  0.27738000000000007  0.56134  1.0000
  H   H61       1.0  0.78235  0.52358  0.49456  1.0000
  H   H62       1.0  0.7858799999999999  0.7521  0.38995  1.0000
  H   H63       1.0  0.96345  0.37322  0.57058  1.0000
  H   H64       1.0  0.9434899999999999  0.48834  0.57633  1.0000
  H   H65       1.0  0.93364  0.052090000000000004  0.54927  1.0000
  H   H66       1.0  0.40707999999999994  0.70188  0.28012  1.0000
  H   H67       1.0  0.3185599999999999  0.5887800000000001  0.54457  1.0000
  H   H68       1.0  0.8430500000000001  0.5292200000000001  0.56819  1.0000
  H   H69       1.0  0.5380999999999998  0.54565  0.42845  1.0000
  H   H70       1.0  0.16598999999999994  0.64425  0.40818  1.0000
  H   H71       1.0  0.29668  0.65106  0.33491  1.0000
  H   H72       1.0  0.9959599999999997  0.41875  0.75982  1.0000
  H   H73       1.0  0.18756000000000003  0.5782  0.61743  1.0000
  H   H74       1.0  0.0070000000000000106  0.018340000000000033  0.74873  1.0000
  H   H75       1.0  0.59795  0.7048199999999999  0.35714  1.0000
  H   H76       1.0  0.57162  0.56143  0.22952  1.0000
  H   H77       1.0  0.7342099999999998  0.50302  0.03983  1.0000
  H   H78       1.0  0.7333099999999998  0.55302  0.29375  1.0000
  H   H79       1.0  0.53786  0.70512  0.21465  1.0000
  H   H80       1.0  0.81065  0.7244  0.9230200000000002  1.0000
  H   H81       1.0  0.9654900000000001  0.15897  0.55172  1.0000
  H   H82       1.0  0.8483499999999998  0.75699  0.4619300000000001  1.0000
  H   H83       1.0  0.8130099999999999  0.68392  0.04409  1.0000
  H   H84       1.0  0.6661499999999998  0.7106599999999998  0.42301000000000005  1.0000
  H   H85       1.0  0.63347  0.55585  0.10463  1.0000
  H   H86       1.0  0.016509999999999993  0.29777  0.76429  1.0000
  H   H87       1.0  0.87928  0.71567  0.80107  1.0000
  H   H88       1.0  0.4072399999999999  0.53988  0.4933600000000001  1.0000
  H   H89       1.0  0.8006199999999998  0.55737  0.3615  1.0000
  H   H90       1.0  0.75203  0.6881  0.16979000000000005  1.0000
  H   H91       1.0  0.80459  0.4944799999999999  0.91587  1.0000
  H   H92       1.0  0.9763299999999998  0.91617  0.73474  1.0000
  H   H93       1.0  0.6875700000000001  0.77048  0.55377  1.0000
  H   H94       1.0  0.26015  0.94397  0.47202000000000005  1.0000
  H   H95       1.0  0.26044000000000006  0.74009  0.47181  1.0000
  H   H96       1.0  0.7423999999999997  0.8029499999999999  0.12778  1.0000
  H   H97       1.0  0.12928  0.92683  0.54357  1.0000
  H   H98       1.0  0.53216  0.9379100000000001  0.18956  1.0000
  H   H99       1.0  0.48671999999999976  0.7890199999999999  0.31112  1.0000
  H   H100      1.0  0.49539  0.94507  0.38343  1.0000
  H   H101      1.0  0.8676499999999998  0.8491400000000001  0.88302  1.0000
  H   H102      1.0  0.79931  0.97393  0.37148  1.0000
  H   H103      1.0  0.3649399999999999  0.93001  0.45574000000000003  1.0000
  H   H104      1.0  0.75441  0.76673  0.62484  1.0000
  H   H105      1.0  0.8073599999999999  0.85258  0.00969  1.0000
  H   H106      1.0  0.6058899999999999  0.8076799999999998  0.5203100000000003  1.0000
  H   H107      1.0  0.58622  0.93322  0.06416000000000001  1.0000
  H   H108      1.0  0.6898099999999999  0.80902  0.25155  1.0000
  H   H109      1.0  0.8672499999999997  0.96802  0.4427300000000001  1.0000
  H   H110      1.0  0.53777  0.8067499999999999  0.4532800000000001  1.0000
  H   H111      1.0  0.6730799999999999  0.88405  0.85905  1.0000
  H   H112      1.0  0.60945  0.8787499999999999  0.99042  1.0000
  H   H113      1.0  0.12961000000000006  0.7280699999999999  0.53646  1.0000
  H   H114      1.0  0.70465  0.9433500000000001  0.23464000000000002  1.0000
  H   H115      1.0  0.77531  0.94101  0.30112  1.0000
  H   H116      1.0  0.3565799999999999  0.77692  0.37861  1.0000
  C   C1        1.0  0.009679999999999984  0.67564  0.33083000000000007  1.0000
  C   C2        1.0  0.22114000000000006  0.36247  0.56241  1.0000
  C   C3        1.0  0.9970699999999999  0.74617  0.32673  1.0000
  C   C4        1.0  0.15047999999999997  0.35661999999999994  0.47976  1.0000
  C   C5        1.0  0.013050000000000006  0.90265  0.34707  1.0000
  C   C6        1.0  0.6816699999999999  0.3810000000000001  0.5658  1.0000
  C   C7        1.0  0.20264999999999994  0.42516999999999994  0.5132800000000001  1.0000
  C   C8        1.0  0.26113  0.36551  0.60287  1.0000
  C   C9        1.0  0.11066999999999998  0.40177  0.22231  1.0000
  C   C10       1.0  0.9968499999999998  0.84498  0.33596  1.0000
  C   C11       1.0  0.20204999999999998  0.29695  0.57075  1.0000
  C   C12       1.0  0.9107099999999999  0.39733  0.43879  1.0000
  C   C13       1.0  0.02987999999999996  0.6207100000000001  0.38507  1.0000
  C   C14       1.0  0.2324  0.3858  0.009190000000000002  1.0000
  C   C15       1.0  0.040689999999999976  0.55553  0.38282  1.0000
  C   C16       1.0  0.60359  0.37854  0.6073100000000001  1.0000
  C   C17       1.0  0.33886999999999995  0.37105  0.67972  1.0000
  C   C18       1.0  0.049519999999999995  0.95293  0.40776  1.0000
  C   C19       1.0  0.5649699999999998  0.3335  0.68689  1.0000
  C   C20       1.0  0.71437  0.40088  0.48561  1.0000
  C   C21       1.0  0.16856999999999994  0.42220999999999986  0.4719900000000001  1.0000
  C   C22       1.0  0.11735000000000002  0.35400999999999994  0.43239  1.0000
  C   C23       1.0  0.49089000000000005  0.41997  0.60367  1.0000
  C   C24       1.0  0.27143999999999996  0.38114  0.93522  1.0000
  C   C25       1.0  0.34268  0.37471  0.79126  1.0000
  C   C26       1.0  0.7998899999999999  0.36855000000000004  0.5625  1.0000
  C   C27       1.0  0.7262899999999999  0.36418  0.60343  1.0000
  C   C28       1.0  0.011239999999999957  0.59442  0.28013000000000005  1.0000
  C   C29       1.0  0.7878899999999999  0.40628  0.4444  1.0000
  C   C30       1.0  0.008429999999999998  0.97256  0.29642  1.0000
  C   C31       1.0  0.35745000000000005  0.32726  0.64213  1.0000
  C   C32       1.0  0.37528  0.41207999999999995  0.81087  1.0000
  C   C33       1.0  0.23456999999999995  0.4503  0.01264  1.0000
  C   C34       1.0  0.15349  0.39598999999999995  0.14936  1.0000
  C   C35       1.0  0.28160999999999997  0.41285000000000005  0.67747  1.0000
  C   C36       1.0  0.45296  0.37421  0.68278  1.0000
  C   C37       1.0  0.49106999999999973  0.33099  0.72422  1.0000
  C   C38       1.0  0.19052999999999998  0.32645  0.07757  1.0000
  C   C39       1.0  0.03298  0.89323  0.40471  1.0000
  C   C40       1.0  0.83167  0.39055  0.48234  1.0000
  C   C41       1.0  0.16664  0.29395000000000004  0.53063  1.0000
  C   C42       1.0  0.23989000000000002  0.34309  0.91537  1.0000
  C   C43       1.0  0.31883  0.32418  0.60504  1.0000
  C   C44       1.0  0.33998999999999974  0.41528  0.88138  1.0000
  C   C45       1.0  0.9997800000000001  0.6611  0.27789  1.0000
  C   C46       1.0  0.15197  0.33118000000000003  0.14685  1.0000
  C   C47       1.0  0.5644699999999999  0.42216  0.56713  1.0000
  C   C48       1.0  0.24372000000000002  0.41011  0.63941  1.0000
  C   C49       1.0  0.27426  0.34026999999999996  0.84478  1.0000
  C   C50       1.0  0.19519  0.4555600000000001  0.08152  1.0000
  C   C51       1.0  0.025039999999999982  0.028900000000000006  0.30403  1.0000
  C   C52       1.0  0.14583999999999991  0.13590999999999995  0.4182800000000001  1.0000
  C   C53       1.0  0.7287399999999999  0.1562599999999999  0.5347500000000002  1.0000
  C   C54       1.0  0.18515999999999996  0.13275999999999996  0.4616  1.0000
  C   C55       1.0  0.8786399999999998  0.17347000000000004  0.45625  1.0000
  C   C56       1.0  0.27451999999999993  0.18510000000000001  0.47023  1.0000
  C   C57       1.0  0.9574  0.18235999999999997  0.4178  1.0000
  C   C58       1.0  0.29636  0.1342399999999999  0.9899  1.0000
  C   C59       1.0  0.7674699999999999  0.10446000000000001  0.51277  1.0000
  C   C60       1.0  0.76722  0.21731  0.5153  1.0000
  C   C61       1.0  0.30291000000000007  0.16624  0.85994  1.0000
  C   C62       1.0  0.30355000000000004  0.12563  0.58359  1.0000
  C   C63       1.0  0.26264  0.12716999999999998  0.54245  1.0000
  C   C64       1.0  0.8412500000000002  0.11343000000000002  0.47295  1.0000
  C   C65       1.0  0.6504599999999999  0.14749999999999994  0.57696  1.0000
  C   C66       1.0  0.4216699999999997  0.09165000000000004  0.82434  1.0000
  C   C67       1.0  0.54024  0.17944999999999997  0.65799  1.0000
  C   C68       1.0  0.5354800000000001  0.09186  0.61705  1.0000
  C   C69       1.0  0.5001699999999998  0.13164000000000006  0.65793  1.0000
  C   C70       1.0  0.33108000000000004  0.13246000000000002  0.91442  1.0000
  C   C71       1.0  0.18884000000000004  0.14409  0.09287  1.0000
  C   C72       1.0  0.21065000000000003  0.07195  0.57336  1.0000
  C   C73       1.0  0.22596999999999998  0.13410999999999998  0.13654000000000002  1.0000
  C   C74       1.0  0.6091899999999999  0.10042000000000002  0.57672  1.0000
  C   C75       1.0  0.38386000000000003  0.12477999999999999  0.6608  1.0000
  C   C76       1.0  0.23643999999999987  0.18810999999999997  0.4304800000000001  1.0000
  C   C77       1.0  0.22318  0.14303  0.02145  1.0000
  C   C78       1.0  0.3712  0.16319000000000006  0.54244  1.0000
  C   C79       1.0  0.39147  0.09529  0.89456  1.0000
  C   C80       1.0  0.33261  0.16321999999999998  0.78963  1.0000
  C   C81       1.0  0.17271999999999998  0.07457  0.53343  1.0000
  C   C82       1.0  0.3926499999999999  0.12583999999999995  0.77078  1.0000
  C   C83       1.0  0.41037  0.16351  0.57991  1.0000
  C   C84       1.0  0.29867  0.12448000000000001  0.10633  1.0000
  C   C85       1.0  0.18662999999999988  0.12911999999999998  0.21598000000000006  1.0000
  C   C86       1.0  0.33359  0.12603  0.03342  1.0000
  C   C87       1.0  0.8408899999999998  0.22512999999999997  0.47798  1.0000
  C   C88       1.0  0.31651999999999997  0.08672999999999997  0.70279  1.0000
  C   C89       1.0  0.27720999999999996  0.08773999999999998  0.66473  1.0000
  C   C90       1.0  0.61397  0.18646000000000001  0.61895  1.0000
  C   C91       1.0  0.9903199999999998  0.32436  0.66917  1.0000
  C   C92       1.0  0.7788599999999998  0.63753  0.43759  1.0000
  C   C93       1.0  0.0029299999999999127  0.25382999999999994  0.6732700000000003  1.0000
  C   C94       1.0  0.8495299999999999  0.6433800000000001  0.52024  1.0000
  C   C95       1.0  0.98695  0.09734999999999999  0.65293  1.0000
  C   C96       1.0  0.31833  0.6189999999999999  0.4342000000000001  1.0000
  C   C97       1.0  0.79735  0.57483  0.48672  1.0000
  C   C98       1.0  0.7388700000000001  0.6344999999999998  0.39713000000000004  1.0000
  C   C99       1.0  0.88933  0.59824  0.77769  1.0000
  C   C100      1.0  0.003150000000000002  0.15502000000000002  0.66404  1.0000
  C   C101      1.0  0.7979499999999998  0.7030500000000002  0.42925  1.0000
  C   C102      1.0  0.08930000000000003  0.6026799999999999  0.56121  1.0000
  C   C103      1.0  0.9701199999999999  0.3792899999999999  0.61493  1.0000
  C   C104      1.0  0.7676  0.6142  0.99081  1.0000
  C   C105      1.0  0.9593099999999999  0.44447  0.61718  1.0000
  C   C106      1.0  0.39642000000000005  0.6214699999999999  0.39269  1.0000
  C   C107      1.0  0.6611399999999997  0.62895  0.32028000000000006  1.0000
  C   C108      1.0  0.9504799999999999  0.04707000000000002  0.59224  1.0000
  C   C109      1.0  0.4350399999999998  0.6665  0.3131100000000001  1.0000
  C   C110      1.0  0.28562999999999994  0.5991300000000002  0.5143900000000001  1.0000
  C   C111      1.0  0.8314299999999999  0.57779  0.52801  1.0000
  C   C112      1.0  0.8826599999999998  0.646  0.56761  1.0000
  C   C113      1.0  0.5091099999999998  0.58004  0.39633  1.0000
  C   C114      1.0  0.7285600000000001  0.61886  0.06477000000000001  1.0000
  C   C115      1.0  0.6573199999999999  0.6253  0.20874  1.0000
  C   C116      1.0  0.20012  0.6314499999999998  0.4375  1.0000
  C   C117      1.0  0.27370999999999995  0.6358200000000003  0.39657  1.0000
  C   C118      1.0  0.98876  0.40557999999999994  0.71987  1.0000
  C   C119      1.0  0.21210999999999994  0.59373  0.55559  1.0000
  C   C120      1.0  0.9915799999999998  0.027439999999999975  0.70358  1.0000
  C   C121      1.0  0.6425499999999997  0.6727499999999997  0.35787000000000013  1.0000
  C   C122      1.0  0.6247200000000002  0.5879299999999998  0.18913  1.0000
  C   C123      1.0  0.76543  0.5497  0.98736  1.0000
  C   C124      1.0  0.84651  0.6040200000000002  0.85064  1.0000
  C   C125      1.0  0.71839  0.58715  0.32253  1.0000
  C   C126      1.0  0.5470399999999997  0.62579  0.31722  1.0000
  C   C127      1.0  0.5089399999999998  0.6690100000000001  0.27578  1.0000
  C   C128      1.0  0.8094699999999999  0.67355  0.92243  1.0000
  C   C129      1.0  0.9670299999999998  0.10676999999999999  0.59529  1.0000
  C   C130      1.0  0.16833  0.60945  0.51766  1.0000
  C   C131      1.0  0.83336  0.7060500000000001  0.46937  1.0000
  C   C132      1.0  0.76011  0.65691  0.08463000000000002  1.0000
  C   C133      1.0  0.6811699999999998  0.6758199999999999  0.39495  1.0000
  C   C134      1.0  0.66001  0.58472  0.11862000000000002  1.0000
  C   C135      1.0  0.00022000000000000513  0.33891  0.72211  1.0000
  C   C136      1.0  0.84803  0.6688200000000001  0.85315  1.0000
  C   C137      1.0  0.43552999999999986  0.5778399999999999  0.4328700000000001  1.0000
  C   C138      1.0  0.7562799999999998  0.58989  0.36059  1.0000
  C   C139      1.0  0.7257400000000002  0.65974  0.15522  1.0000
  C   C140      1.0  0.80481  0.54445  0.9184800000000001  1.0000
  C   C141      1.0  0.97496  0.97111  0.69597  1.0000
  C   C142      1.0  0.85416  0.86409  0.58172  1.0000
  C   C143      1.0  0.27126999999999996  0.84374  0.46525  1.0000
  C   C144      1.0  0.8148399999999999  0.8672500000000001  0.5384  1.0000
  C   C145      1.0  0.12135999999999987  0.82654  0.54375  1.0000
  C   C146      1.0  0.7254899999999997  0.8149099999999998  0.5297700000000001  1.0000
  C   C147      1.0  0.04259999999999991  0.81764  0.5822000000000003  1.0000
  C   C148      1.0  0.7036399999999998  0.86576  0.0101  1.0000
  C   C149      1.0  0.23253999999999997  0.89554  0.48723  1.0000
  C   C150      1.0  0.23278  0.78269  0.4847  1.0000
  C   C151      1.0  0.6970899999999998  0.8337599999999998  0.14006  1.0000
  C   C152      1.0  0.6964500000000001  0.87437  0.41641  1.0000
  C   C153      1.0  0.7373599999999998  0.87283  0.45755  1.0000
  C   C154      1.0  0.15875999999999993  0.8865699999999999  0.52705  1.0000
  C   C155      1.0  0.3495499999999999  0.8525  0.42304  1.0000
  C   C156      1.0  0.57833  0.9083500000000001  0.17566  1.0000
  C   C157      1.0  0.45975999999999967  0.82055  0.34201  1.0000
  C   C158      1.0  0.46453000000000005  0.9081399999999998  0.38295  1.0000
  C   C159      1.0  0.49982999999999994  0.86837  0.3420700000000001  1.0000
  C   C160      1.0  0.66892  0.8675499999999999  0.08558  1.0000
  C   C161      1.0  0.8111599999999998  0.85592  0.90713  1.0000
  C   C162      1.0  0.78935  0.9280499999999999  0.42664  1.0000
  C   C163      1.0  0.77404  0.8659000000000001  0.86346  1.0000
  C   C164      1.0  0.3908099999999999  0.8995899999999999  0.42328000000000005  1.0000
  C   C165      1.0  0.6161499999999998  0.87522  0.3392  1.0000
  C   C166      1.0  0.76357  0.8119  0.56952  1.0000
  C   C167      1.0  0.77682  0.8569699999999999  0.9785500000000001  1.0000
  C   C168      1.0  0.6288  0.83681  0.45756  1.0000
  C   C169      1.0  0.6085299999999999  0.90471  0.10544  1.0000
  C   C170      1.0  0.6673899999999998  0.8367799999999999  0.21037  1.0000
  C   C171      1.0  0.8272899999999999  0.92543  0.46657  1.0000
  C   C172      1.0  0.60735  0.87416  0.22922  1.0000
  C   C173      1.0  0.58964  0.83649  0.42009  1.0000
  C   C174      1.0  0.7013299999999998  0.8755200000000002  0.89367  1.0000
  C   C175      1.0  0.81337  0.87088  0.78402  1.0000
  C   C176      1.0  0.6664200000000001  0.87397  0.9665799999999999  1.0000
  C   C177      1.0  0.1591199999999999  0.77487  0.52202  1.0000
  C   C178      1.0  0.6834799999999998  0.9132699999999999  0.29721000000000003  1.0000
  C   C179      1.0  0.72279  0.9122599999999998  0.33527  1.0000
  C   C180      1.0  0.38602999999999993  0.81355  0.38104  1.0000
  N   N1        1.0  0.02281000000000002  0.77887  0.35475  1.0000
  N   N2        1.0  0.046310000000000004  0.01955  0.35826  1.0000
  N   N3        1.0  0.95776  0.85149  0.29877  1.0000
  N   N4        1.0  0.07671000000000001  0.75418  0.37964  1.0000
  N   N5        1.0  0.37776  0.37235000000000007  0.71898  1.0000
  N   N6        1.0  0.032189999999999996  0.54218  0.33127  1.0000
  N   N7        1.0  0.95729  0.7897999999999998  0.29382  1.0000
  N   N8        1.0  0.4247999999999999  0.12407999999999998  0.69823  1.0000
  N   N9        1.0  0.9771899999999998  0.22112999999999997  0.64525  1.0000
  N   N10       1.0  0.95369  0.9804499999999999  0.64174  1.0000
  N   N11       1.0  0.04224000000000003  0.14850999999999998  0.70123  1.0000
  N   N12       1.0  0.92329  0.24582000000000004  0.62036  1.0000
  N   N13       1.0  0.62225  0.6276500000000002  0.28102  1.0000
  N   N14       1.0  0.9678099999999998  0.45782000000000006  0.66873  1.0000
  N   N15       1.0  0.042719999999999966  0.21019999999999994  0.70618  1.0000
  N   N16       1.0  0.5752099999999999  0.87592  0.30177000000000004  1.0000
  O   O1        1.0  0.10461999999999999  0.46247  0.22231  1.0000
  O   O2        1.0  0.09760000000000003  0.2920999999999999  0.44644  1.0000
  O   O3        1.0  0.93748  0.42562  0.36417  1.0000
  O   O4        1.0  0.07684  0.34532  0.28522  1.0000
  O   O5        1.0  0.9493899999999998  0.37708  0.47465000000000007  1.0000
  O   O6        1.0  0.11167999999999999  0.41272  0.38063  1.0000
  O   O7        1.0  0.9860500000000002  0.22208000000000003  0.43114  1.0000
  O   O8        1.0  0.14863999999999997  0.19529  0.35968  1.0000
  O   O9        1.0  0.11107999999999998  0.08014000000000002  0.43714  1.0000
  O   O10       1.0  0.12655999999999995  0.15849000000000005  0.23064  1.0000
  O   O11       1.0  0.9899299999999998  0.14969000000000002  0.37725  1.0000
  O   O12       1.0  0.20863  0.09487  0.26671  1.0000
  O   O13       1.0  0.89538  0.5375299999999998  0.77769  1.0000
  O   O14       1.0  0.9024099999999998  0.7078999999999999  0.5535600000000003  1.0000
  O   O15       1.0  0.06252000000000006  0.5743799999999999  0.63583  1.0000
  O   O16       1.0  0.9231699999999999  0.65468  0.71478  1.0000
  O   O17       1.0  0.050609999999999995  0.62292  0.52535  1.0000
  O   O18       1.0  0.88832  0.5872799999999998  0.61937  1.0000
  O   O19       1.0  0.013959999999999998  0.77792  0.56886  1.0000
  O   O20       1.0  0.8513599999999999  0.8047099999999999  0.64032  1.0000
  O   O21       1.0  0.8889199999999998  0.9198600000000001  0.56286  1.0000
  O   O22       1.0  0.87344  0.84151  0.76936  1.0000
  O   O23       1.0  0.010079999999999981  0.85031  0.62275  1.0000
  O   O24       1.0  0.79138  0.90513  0.73329  1.0000
