data_image0
_chemical_formula_structural       Co4H128C196N24O16
_chemical_formula_sum              "Co4 H128 C196 N24 O16"
_cell_length_a       17.58467
_cell_length_b       18.929680000000005
_cell_length_c       18.92844
_cell_angle_alpha    60.39502
_cell_angle_beta     78.88372000000001
_cell_angle_gamma    78.90503

_symmetry_space_group_name_H-M    'P 1'
_symmetry_Int_Tables_number       1

loop_
  _symmetry_equiv_pos_as_xyz
  'x,y,z'

loop_
  _atom_site_type_symbol
  _atom_site_label
  _atom_site_symmetry_multiplicity
  _atom_site_fract_x
  _atom_site_fract_y
  _atom_site_fract_z
  _atom_site_occupancy
  Co  Co1       1.0  0.9598699999999997  0.4540600000000001  0.74457  1.0000
  Co  Co2       1.0  0.5402199999999998  0.25520999999999994  0.54628  1.0000
  Co  Co3       1.0  0.04023999999999999  0.54728  0.25211  1.0000
  Co  Co4       1.0  0.45899999999999985  0.7480499999999999  0.45324  1.0000
  H   H1        1.0  0.1589999999999999  0.47159000000000006  0.7437799999999998  1.0000
  H   H2        1.0  0.2681299999999999  0.5086  0.77883  1.0000
  H   H3        1.0  0.40580999999999984  0.46431  0.7404399999999998  1.0000
  H   H4        1.0  0.06587000000000001  0.33259  0.61678  1.0000
  H   H5        1.0  0.8962199999999999  0.5940100000000003  0.8287399999999998  1.0000
  H   H6        1.0  0.7656599999999999  0.6423299999999998  0.87512  1.0000
  H   H7        1.0  0.73552  0.6209  0.01883  1.0000
  H   H8        1.0  0.16306000000000004  0.4481700000000001  0.8864299999999998  1.0000
  H   H9        1.0  0.7798199999999998  0.53536  0.76415  1.0000
  H   H10       1.0  0.7404200000000001  0.7035900000000002  0.6907299999999998  1.0000
  H   H11       1.0  0.9854700000000001  0.6486199999999999  0.6487899999999998  1.0000
  H   H12       1.0  0.7710299999999997  0.81987  0.67911  1.0000
  H   H13       1.0  0.7748999999999999  0.96867  0.59104  1.0000
  H   H14       1.0  0.9762099999999999  0.9237199999999999  0.4429799999999999  1.0000
  H   H15       1.0  0.9708399999999999  0.7749599999999999  0.52793  1.0000
  H   H16       1.0  0.8606000000000001  0.06849000000000004  0.5619799999999999  1.0000
  H   H17       1.0  0.89058  0.27879  0.3238  1.0000
  H   H18       1.0  0.8908900000000001  0.041559999999999986  0.3464  1.0000
  H   H19       1.0  0.8200499999999997  0.10814  0.24698999999999996  1.0000
  H   H20       1.0  0.80483  0.17163  0.10098  1.0000
  H   H21       1.0  0.9092100000000001  0.38034  0.0569  1.0000
  H   H22       1.0  0.9298799999999999  0.31563  0.20017  1.0000
  H   H23       1.0  0.7445099999999997  0.27697  0.97973  1.0000
  H   H24       1.0  0.7858799999999999  0.36672000000000005  0.81203  1.0000
  H   H25       1.0  0.9548699999999999  0.3794400000000001  0.9341399999999997  1.0000
  H   H26       1.0  0.8550099999999999  0.34814999999999996  0.3755499999999999  1.0000
  H   H27       1.0  0.8611  0.4345  0.43345  1.0000
  H   H28       1.0  0.8924799999999999  0.22248000000000015  0.6685499999999998  1.0000
  H   H29       1.0  0.8934999999999998  0.13415999999999997  0.60791  1.0000
  H   H30       1.0  0.8196599999999999  0.5009199999999999  0.49691  1.0000
  H   H31       1.0  0.8488499999999999  0.5623  0.59236  1.0000
  H   H32       1.0  0.93946  0.31346000000000007  0.69469  1.0000
  H   H33       1.0  0.34117999999999993  0.25615000000000004  0.52848  1.0000
  H   H34       1.0  0.23213999999999999  0.22108999999999998  0.49140999999999996  1.0000
  H   H35       1.0  0.09442999999999999  0.25941  0.53562  1.0000
  H   H36       1.0  0.43419  0.38323000000000007  0.6671899999999998  1.0000
  H   H37       1.0  0.60365  0.17099  0.40623  1.0000
  H   H38       1.0  0.7342100000000001  0.12476999999999999  0.35775  1.0000
  H   H39       1.0  0.76435  0.9811799999999999  0.37896  1.0000
  H   H40       1.0  0.33675000000000005  0.11334999999999999  0.55206  1.0000
  H   H41       1.0  0.72012  0.23571000000000003  0.46455  1.0000
  H   H42       1.0  0.7594799999999999  0.3094199999999999  0.29621  1.0000
  H   H43       1.0  0.5144199999999999  0.35113  0.35156  1.0000
  H   H44       1.0  0.72887  0.32098  0.18001  1.0000
  H   H45       1.0  0.7250399999999998  0.4088799999999999  0.03116  1.0000
  H   H46       1.0  0.52373  0.5568699999999999  0.07623  1.0000
  H   H47       1.0  0.52895  0.4718899999999999  0.22501999999999994  1.0000
  H   H48       1.0  0.6393599999999999  0.43817  0.93115  1.0000
  H   H49       1.0  0.6094199999999999  0.6764900000000001  0.7210699999999998  1.0000
  H   H50       1.0  0.60919  0.65348  0.95849  1.0000
  H   H51       1.0  0.68001  0.75286  0.89197  1.0000
  H   H52       1.0  0.6954500000000001  0.8987799999999998  0.82862  1.0000
  H   H53       1.0  0.59106  0.9432399999999999  0.6197799999999998  1.0000
  H   H54       1.0  0.5702099999999999  0.8000000000000003  0.6843499999999998  1.0000
  H   H55       1.0  0.75579  0.020350000000000035  0.72294  1.0000
  H   H56       1.0  0.7142199999999997  0.18803000000000009  0.6333199999999998  1.0000
  H   H57       1.0  0.54534  0.06563  0.62093  1.0000
  H   H58       1.0  0.6440199999999998  0.6251100000000003  0.6514199999999998  1.0000
  H   H59       1.0  0.63748  0.56727  0.56496  1.0000
  H   H60       1.0  0.60792  0.33184  0.7769599999999998  1.0000
  H   H61       1.0  0.6069799999999997  0.3923100000000001  0.8654299999999998  1.0000
  H   H62       1.0  0.6799500000000002  0.5034199999999998  0.4985399999999999  1.0000
  H   H63       1.0  0.65101  0.4074299999999999  0.4376599999999999  1.0000
  H   H64       1.0  0.5600599999999999  0.3058600000000001  0.6864199999999998  1.0000
  H   H65       1.0  0.8403  0.5271  0.2574  1.0000
  H   H66       1.0  0.73123  0.49133999999999994  0.22094999999999995  1.0000
  H   H67       1.0  0.5935699999999999  0.536  0.25887  1.0000
  H   H68       1.0  0.9332299999999999  0.66653  0.38412  1.0000
  H   H69       1.0  0.10358999999999995  0.40554000000000007  0.17114  1.0000
  H   H70       1.0  0.23438  0.35780999999999996  0.12476  1.0000
  H   H71       1.0  0.26466000000000006  0.3787600000000001  0.9811499999999999  1.0000
  H   H72       1.0  0.8370800000000002  0.55122  0.11348999999999997  1.0000
  H   H73       1.0  0.21828  0.46545  0.23751999999999995  1.0000
  H   H74       1.0  0.2581699999999999  0.2974  0.30926  1.0000
  H   H75       1.0  0.013180000000000015  0.35124999999999984  0.3538  1.0000
  H   H76       1.0  0.22808000000000012  0.18108999999999997  0.3209299999999999  1.0000
  H   H77       1.0  0.22486  0.03218999999999998  0.40798  1.0000
  H   H78       1.0  0.023520000000000027  0.07525999999999997  0.55724  1.0000
  H   H79       1.0  0.028300000000000002  0.22406999999999996  0.47324  1.0000
  H   H80       1.0  0.13914999999999997  0.93106  0.43753  1.0000
  H   H81       1.0  0.10985999999999996  0.72064  0.67583  1.0000
  H   H82       1.0  0.10922999999999992  0.95794  0.65311  1.0000
  H   H83       1.0  0.18110999999999985  0.89207  0.7509599999999998  1.0000
  H   H84       1.0  0.19594  0.8305  0.89689  1.0000
  H   H85       1.0  0.09114  0.6209  0.94408  1.0000
  H   H86       1.0  0.07135  0.6835  0.80052  1.0000
  H   H87       1.0  0.25746  0.7214899999999997  0.01974  1.0000
  H   H88       1.0  0.21367999999999998  0.6355  0.1876  1.0000
  H   H89       1.0  0.04105999999999999  0.62973  0.0649  1.0000
  H   H90       1.0  0.14442999999999998  0.6512600000000001  0.62383  1.0000
  H   H91       1.0  0.13901000000000005  0.56527  0.5654899999999998  1.0000
  H   H92       1.0  0.10712000000000008  0.7777299999999997  0.33069  1.0000
  H   H93       1.0  0.10588000000000002  0.8656199999999998  0.39179  1.0000
  H   H94       1.0  0.17919999999999991  0.49869  0.50276  1.0000
  H   H95       1.0  0.15024  0.43729999999999997  0.40736  1.0000
  H   H96       1.0  0.06271000000000002  0.6869599999999998  0.30266  1.0000
  H   H97       1.0  0.6577400000000003  0.74269  0.47227999999999987  1.0000
  H   H98       1.0  0.76671  0.7785399999999999  0.50886  1.0000
  H   H99       1.0  0.9044699999999998  0.74083  0.46423  1.0000
  H   H100      1.0  0.5650199999999996  0.6162  0.33309  1.0000
  H   H101      1.0  0.39620999999999995  0.82875  0.59465  1.0000
  H   H102      1.0  0.26537  0.8751599999999999  0.6422699999999998  1.0000
  H   H103      1.0  0.23505999999999994  0.018710000000000015  0.62127  1.0000
  H   H104      1.0  0.66281  0.8864799999999999  0.44865  1.0000
  H   H105      1.0  0.2810399999999999  0.76274  0.53516  1.0000
  H   H106      1.0  0.2413699999999999  0.6904  0.70334  1.0000
  H   H107      1.0  0.48627  0.6464  0.64901  1.0000
  H   H108      1.0  0.2715999999999999  0.67877  0.8195399999999998  1.0000
  H   H109      1.0  0.27507  0.5916100000000001  0.9684799999999999  1.0000
  H   H110      1.0  0.47628  0.44270999999999994  0.92481  1.0000
  H   H111      1.0  0.47133  0.5267299999999999  0.77595  1.0000
  H   H112      1.0  0.36073999999999995  0.5623  0.0692  1.0000
  H   H113      1.0  0.3901400000000002  0.32405  0.2796799999999999  1.0000
  H   H114      1.0  0.39087999999999995  0.34679999999999994  0.04227  1.0000
  H   H115      1.0  0.31892  0.24915000000000004  0.10799  1.0000
  H   H116      1.0  0.30411  0.10321999999999999  0.16944  1.0000
  H   H117      1.0  0.40883  0.055770000000000014  0.37912  1.0000
  H   H118      1.0  0.42867  0.19937999999999995  0.31669  1.0000
  H   H119      1.0  0.24221999999999996  0.98057  0.27876  1.0000
  H   H120      1.0  0.28561000000000003  0.8127  0.36467  1.0000
  H   H121      1.0  0.45913999999999994  0.93503  0.36965  1.0000
  H   H122      1.0  0.3558299999999999  0.3760899999999999  0.34901  1.0000
  H   H123      1.0  0.36121  0.43443999999999994  0.43497  1.0000
  H   H124      1.0  0.39286  0.6692399999999997  0.22243  1.0000
  H   H125      1.0  0.39407  0.60819  0.13453  1.0000
  H   H126      1.0  0.3213499999999998  0.4966300000000001  0.50177  1.0000
  H   H127      1.0  0.34875000000000017  0.5928499999999997  0.56294  1.0000
  H   H128      1.0  0.43581999999999993  0.69825  0.31301  1.0000
  C   C1        1.0  0.08888999999999998  0.4058599999999999  0.6913  1.0000
  C   C2        1.0  0.17141000000000003  0.38054  0.66616  1.0000
  C   C3        1.0  0.23296000000000006  0.4036700000000001  0.6858999999999997  1.0000
  C   C4        1.0  0.21893000000000004  0.45141000000000014  0.7277799999999998  1.0000
  C   C5        1.0  0.27987  0.4723100000000001  0.7469599999999997  1.0000
  C   C6        1.0  0.3582400000000002  0.44706  0.7252  1.0000
  C   C7        1.0  0.12587000000000004  0.3152499999999998  0.59835  1.0000
  C   C8        1.0  0.18709999999999988  0.3363  0.62189  1.0000
  C   C9        1.0  0.03438999999999997  0.52504  0.83119  1.0000
  C   C10       1.0  0.01737000000000004  0.5127599999999999  0.9176999999999997  1.0000
  C   C11       1.0  0.9420299999999999  0.54302  0.94389  1.0000
  C   C12       1.0  0.8836299999999999  0.58419  0.8911199999999998  1.0000
  C   C13       1.0  0.80948  0.6121999999999997  0.9175  1.0000
  C   C14       1.0  0.7927899999999999  0.60013  0.99727  1.0000
  C   C15       1.0  0.15000000000000002  0.4397699999999999  0.94847  1.0000
  C   C16       1.0  0.0756  0.46945000000000003  0.97295  1.0000
  C   C17       1.0  0.8164899999999999  0.58406  0.7284999999999998  1.0000
  C   C18       1.0  0.7960599999999999  0.6668400000000001  0.69357  1.0000
  C   C19       1.0  0.9243700000000008  0.6401499999999998  0.66807  1.0000
  C   C20       1.0  0.8701999999999998  0.78786  0.60833  1.0000
  C   C21       1.0  0.81565  0.84236  0.6271  1.0000
  C   C22       1.0  0.81866  0.9261499999999999  0.57821  1.0000
  C   C23       1.0  0.87595  0.9568600000000002  0.5109799999999998  1.0000
  C   C24       1.0  0.9306399999999999  0.9011100000000001  0.49397  1.0000
  C   C25       1.0  0.92806  0.81721  0.54208  1.0000
  C   C26       1.0  0.8785299999999998  0.04582000000000006  0.4594299999999999  1.0000
  C   C27       1.0  0.87069  0.09620999999999999  0.49568  1.0000
  C   C28       1.0  0.87691  0.18032999999999996  0.44793  1.0000
  C   C29       1.0  0.8855499999999998  0.21382000000000004  0.36228  1.0000
  C   C30       1.0  0.8860900000000002  0.16580999999999999  0.32444  1.0000
  C   C31       1.0  0.8868999999999997  0.08087999999999998  0.37401  1.0000
  C   C32       1.0  0.8790899999999999  0.20447000000000004  0.23573  1.0000
  C   C33       1.0  0.84229  0.16656000000000004  0.20548  1.0000
  C   C34       1.0  0.83192  0.20298999999999998  0.12298000000000002  1.0000
  C   C35       1.0  0.8573499999999996  0.27954999999999997  0.06884  1.0000
  C   C36       1.0  0.8918899999999998  0.31947  0.09793  1.0000
  C   C37       1.0  0.9033  0.28196  0.18014  1.0000
  C   C38       1.0  0.7937  0.31084  0.94524  1.0000
  C   C39       1.0  0.8149800000000001  0.35568999999999995  0.86259  1.0000
  C   C40       1.0  0.9030199999999997  0.36486  0.9235  1.0000
  C   C41       1.0  0.87405  0.23277  0.48631  1.0000
  C   C42       1.0  0.8630699999999999  0.31853  0.44  1.0000
  C   C43       1.0  0.86396  0.36894000000000005  0.4736599999999999  1.0000
  C   C44       1.0  0.8748099999999995  0.33518000000000003  0.55594  1.0000
  C   C45       1.0  0.8844699999999999  0.25  0.60427  1.0000
  C   C46       1.0  0.8843699999999998  0.20004000000000002  0.56937  1.0000
  C   C47       1.0  0.8470599999999998  0.4711700000000002  0.5525599999999998  1.0000
  C   C48       1.0  0.8626599999999996  0.50078  0.6004699999999997  1.0000
  C   C49       1.0  0.90912  0.37192  0.6559  1.0000
  C   C50       1.0  0.41108  0.30871  0.59418  1.0000
  C   C51       1.0  0.32853  0.3337300000000001  0.61961  1.0000
  C   C52       1.0  0.2670100000000001  0.31414  0.59631  1.0000
  C   C53       1.0  0.28124  0.27214999999999995  0.54868  1.0000
  C   C54       1.0  0.22038  0.2530100000000001  0.5276399999999998  1.0000
  C   C55       1.0  0.14197  0.2746799999999999  0.55288  1.0000
  C   C56       1.0  0.37419999999999987  0.4015599999999998  0.68467  1.0000
  C   C57       1.0  0.31284000000000006  0.37813999999999987  0.66366  1.0000
  C   C58       1.0  0.46557  0.16869  0.47499999999999987  1.0000
  C   C59       1.0  0.4824399999999999  0.08222999999999997  0.48716  1.0000
  C   C60       1.0  0.55783  0.05593999999999998  0.45705  1.0000
  C   C61       1.0  0.6162599999999998  0.10866000000000005  0.4159299999999999  1.0000
  C   C62       1.0  0.69041  0.08235  0.38789  1.0000
  C   C63       1.0  0.70712  0.0026200000000000537  0.3999199999999999  1.0000
  C   C64       1.0  0.34985000000000005  0.05136  0.56034  1.0000
  C   C65       1.0  0.4242400000000001  0.026950000000000116  0.5305699999999998  1.0000
  C   C66       1.0  0.68349  0.27149  0.41587  1.0000
  C   C67       1.0  0.7038599999999998  0.30646  0.33304  1.0000
  C   C68       1.0  0.57555  0.33194  0.35991  1.0000
  C   C69       1.0  0.62966  0.39161000000000007  0.21208  1.0000
  C   C70       1.0  0.6842400000000001  0.37291  0.15752  1.0000
  C   C71       1.0  0.68127  0.42173  0.0737  1.0000
  C   C72       1.0  0.6240199999999998  0.48894999999999994  0.04302  1.0000
  C   C73       1.0  0.56927  0.50589  0.09882  1.0000
  C   C74       1.0  0.5717799999999998  0.45777999999999996  0.18273999999999996  1.0000
  C   C75       1.0  0.6214899999999998  0.5405600000000002  0.95405  1.0000
  C   C76       1.0  0.6292899999999999  0.5044500000000002  0.9035299999999998  1.0000
  C   C77       1.0  0.6230199999999998  0.5523100000000001  0.8193999999999998  1.0000
  C   C78       1.0  0.6144199999999999  0.63791  0.78603  1.0000
  C   C79       1.0  0.6139199999999999  0.6756  0.83417  1.0000
  C   C80       1.0  0.6131299999999996  0.62595  0.91909  1.0000
  C   C81       1.0  0.62095  0.76428  0.7956  1.0000
  C   C82       1.0  0.6578  0.7944199999999999  0.8335699999999998  1.0000
  C   C83       1.0  0.66826  0.8768899999999998  0.79722  1.0000
  C   C84       1.0  0.6428499999999999  0.93108  0.72067  1.0000
  C   C85       1.0  0.6082799999999999  0.9021099999999999  0.68067  1.0000
  C   C86       1.0  0.5968000000000002  0.8199199999999999  0.7181099999999998  1.0000
  C   C87       1.0  0.70649  0.05477999999999999  0.68928  1.0000
  C   C88       1.0  0.68514  0.13739000000000004  0.64447  1.0000
  C   C89       1.0  0.5970899999999997  0.07636000000000001  0.63554  1.0000
  C   C90       1.0  0.62575  0.51409  0.7668199999999997  1.0000
  C   C91       1.0  0.63621  0.56061  0.6810099999999998  1.0000
  C   C92       1.0  0.6350699999999998  0.52708  0.6305299999999998  1.0000
  C   C93       1.0  0.6246899999999997  0.44468  0.66431  1.0000
  C   C94       1.0  0.61554  0.39619000000000004  0.74951  1.0000
  C   C95       1.0  0.6157499999999998  0.4309899999999999  0.79953  1.0000
  C   C96       1.0  0.65258  0.44774  0.52846  1.0000
  C   C97       1.0  0.63712  0.39954999999999996  0.49909  1.0000
  C   C98       1.0  0.59047  0.3445  0.62791  1.0000
  C   C99       1.0  0.9103199999999999  0.5933  0.30957  1.0000
  C   C100      1.0  0.8277499999999998  0.61751  0.33561  1.0000
  C   C101      1.0  0.7662599999999999  0.59447  0.31577  1.0000
  C   C102      1.0  0.7803599999999999  0.54726  0.27339  1.0000
  C   C103      1.0  0.7194799999999999  0.52697  0.25351  1.0000
  C   C104      1.0  0.6410799999999999  0.5524500000000001  0.275  1.0000
  C   C105      1.0  0.8731999999999996  0.68361  0.4027099999999999  1.0000
  C   C106      1.0  0.8120599999999998  0.66187  0.37974  1.0000
  C   C107      1.0  0.96614  0.47528999999999993  0.16824  1.0000
  C   C108      1.0  0.98287  0.48689999999999994  0.08197  1.0000
  C   C109      1.0  0.05813999999999999  0.45670999999999995  0.055789999999999985  1.0000
  C   C110      1.0  0.11641  0.41557  0.10868  1.0000
  C   C111      1.0  0.19063  0.3877  0.08233  1.0000
  C   C112      1.0  0.20737999999999998  0.39958  0.00265  1.0000
  C   C113      1.0  0.8501799999999997  0.5597699999999999  0.05137999999999999  1.0000
  C   C114      1.0  0.92458  0.53017  0.02678  1.0000
  C   C115      1.0  0.18177  0.4165499999999998  0.2729  1.0000
  C   C116      1.0  0.20240999999999998  0.33383  0.30702  1.0000
  C   C117      1.0  0.07416000000000003  0.35995  0.33378999999999986  1.0000
  C   C118      1.0  0.12884000000000004  0.2123  0.39213999999999993  1.0000
  C   C119      1.0  0.18354  0.15816999999999998  0.37295  1.0000
  C   C120      1.0  0.18089  0.07423999999999999  0.42137  1.0000
  C   C121      1.0  0.12379000000000003  0.042900000000000035  0.4887  1.0000
  C   C122      1.0  0.06898  0.09828000000000002  0.50619  1.0000
  C   C123      1.0  0.07122  0.18229  0.45854  1.0000
  C   C124      1.0  0.12146999999999998  0.95381  0.54005  1.0000
  C   C125      1.0  0.12926000000000007  0.9033799999999998  0.50384  1.0000
  C   C126      1.0  0.12310000000000006  0.8192000000000002  0.5516199999999998  1.0000
  C   C127      1.0  0.1148000000000001  0.7856199999999997  0.63729  1.0000
  C   C128      1.0  0.11434999999999998  0.83367  0.67506  1.0000
  C   C129      1.0  0.11328000000000008  0.9186299999999998  0.62547  1.0000
  C   C130      1.0  0.12169999999999999  0.7953400000000003  0.7636999999999998  1.0000
  C   C131      1.0  0.15865000000000004  0.8339299999999998  0.79311  1.0000
  C   C132      1.0  0.1687500000000001  0.7986200000000001  0.8755399999999998  1.0000
  C   C133      1.0  0.14275  0.72253  0.93045  1.0000
  C   C134      1.0  0.10856000000000006  0.6815999999999999  0.90222  1.0000
  C   C135      1.0  0.09759  0.7179500000000002  0.8199499999999997  1.0000
  C   C136      1.0  0.20669  0.69043  0.054249999999999986  1.0000
  C   C137      1.0  0.18424000000000001  0.6475499999999998  0.13688  1.0000
  C   C138      1.0  0.09376999999999998  0.64264  0.07573  1.0000
  C   C139      1.0  0.12571  0.7668499999999997  0.51316  1.0000
  C   C140      1.0  0.13659000000000004  0.68107  0.5592999999999999  1.0000
  C   C141      1.0  0.13587999999999997  0.6308499999999998  0.52536  1.0000
  C   C142      1.0  0.12513999999999997  0.66473  0.44301  1.0000
  C   C143      1.0  0.11526  0.74996  0.39495999999999987  1.0000
  C   C144      1.0  0.11526999999999997  0.79973  0.43011  1.0000
  C   C145      1.0  0.1523500000000001  0.5285899999999997  0.44677  1.0000
  C   C146      1.0  0.13704000000000002  0.4990199999999999  0.39872  1.0000
  C   C147      1.0  0.09233999999999998  0.6282500000000002  0.34200999999999987  1.0000
  C   C148      1.0  0.5882399999999998  0.69123  0.40533  1.0000
  C   C149      1.0  0.67079  0.6645999999999999  0.38176  1.0000
  C   C150      1.0  0.73218  0.6842500000000001  0.4050299999999999  1.0000
  C   C151      1.0  0.7177599999999996  0.7265300000000001  0.45237  1.0000
  C   C152      1.0  0.7785299999999997  0.7461499999999999  0.47307  1.0000
  C   C153      1.0  0.8569900000000001  0.72469  0.4477  1.0000
  C   C154      1.0  0.62505  0.5975  0.31602  1.0000
  C   C155      1.0  0.6864099999999999  0.62023  0.3376999999999999  1.0000
  C   C156      1.0  0.5339799999999998  0.83159  0.52487  1.0000
  C   C157      1.0  0.51706  0.9178399999999998  0.51325  1.0000
  C   C158      1.0  0.44173000000000007  0.9440899999999999  0.54335  1.0000
  C   C159      1.0  0.38344999999999985  0.8912199999999999  0.58458  1.0000
  C   C160      1.0  0.30918000000000007  0.9175499999999998  0.61244  1.0000
  C   C161      1.0  0.29238999999999987  0.9972199999999994  0.60054  1.0000
  C   C162      1.0  0.6497  0.94851  0.44028  1.0000
  C   C163      1.0  0.5753  0.9730699999999999  0.46988999999999986  1.0000
  C   C164      1.0  0.31759  0.72723  0.58399  1.0000
  C   C165      1.0  0.2970600000000001  0.6927999999999996  0.66677  1.0000
  C   C166      1.0  0.42530000000000007  0.66636  0.6403399999999998  1.0000
  C   C167      1.0  0.3708  0.60765  0.78808  1.0000
  C   C168      1.0  0.31615999999999994  0.62681  0.84232  1.0000
  C   C169      1.0  0.31895  0.5784100000000001  0.92623  1.0000
  C   C170      1.0  0.37609999999999993  0.51117  0.95736  1.0000
  C   C171      1.0  0.43085  0.49373  0.9018699999999997  1.0000
  C   C172      1.0  0.42847999999999997  0.54135  0.8178799999999998  1.0000
  C   C173      1.0  0.37849  0.45983999999999997  0.04642  1.0000
  C   C174      1.0  0.3706999999999998  0.49601  0.09689  1.0000
  C   C175      1.0  0.3768999999999998  0.44828  0.18107  1.0000
  C   C176      1.0  0.38519999999999993  0.36262000000000005  0.21468  1.0000
  C   C177      1.0  0.3856399999999998  0.32491  0.16656999999999994  1.0000
  C   C178      1.0  0.38675000000000004  0.37444999999999995  0.08159  1.0000
  C   C179      1.0  0.37829999999999986  0.2363  0.20482999999999996  1.0000
  C   C180      1.0  0.34136  0.20697999999999997  0.16613  1.0000
  C   C181      1.0  0.33128  0.12454999999999998  0.20135  1.0000
  C   C182      1.0  0.35727  0.06961000000000002  0.27741  1.0000
  C   C183      1.0  0.3914599999999999  0.09773  0.31843  1.0000
  C   C184      1.0  0.4024399999999999  0.18000000000000005  0.2821799999999999  1.0000
  C   C185      1.0  0.29305  0.94593  0.30964  1.0000
  C   C186      1.0  0.31532  0.8632900000000001  0.35252  1.0000
  C   C187      1.0  0.40621999999999997  0.92427  0.35706  1.0000
  C   C188      1.0  0.37432  0.48679  0.23336999999999994  1.0000
  C   C189      1.0  0.36357000000000006  0.4406399999999999  0.31918  1.0000
  C   C190      1.0  0.3642800000000001  0.4746  0.3693899999999999  1.0000
  C   C191      1.0  0.37487000000000004  0.5569799999999999  0.3355  1.0000
  C   C192      1.0  0.3847600000000001  0.60497  0.2502399999999999  1.0000
  C   C193      1.0  0.38473  0.56985  0.20044999999999993  1.0000
  C   C194      1.0  0.34761  0.55305  0.4717399999999999  1.0000
  C   C195      1.0  0.36216  0.60147  0.50118  1.0000
  C   C196      1.0  0.4066099999999998  0.65855  0.37188  1.0000
  N   N1        1.0  0.8963700000000002  0.5681099999999998  0.71227  1.0000
  N   N2        1.0  0.8649499999999996  0.7023100000000001  0.65515  1.0000
  N   N3        1.0  0.85037  0.31706000000000006  0.9836299999999999  1.0000
  N   N4        1.0  0.8832200000000001  0.38897999999999994  0.84988  1.0000
  N   N5        1.0  0.87631  0.3887300000000001  0.5881199999999998  1.0000
  N   N6        1.0  0.9016399999999997  0.43864  0.66461  1.0000
  N   N7        1.0  0.60362  0.28769  0.43192  1.0000
  N   N8        1.0  0.6349500000000001  0.34484999999999993  0.29766  1.0000
  N   N9        1.0  0.6498399999999998  0.01629000000000009  0.6831899999999997  1.0000
  N   N10       1.0  0.61686  0.15002000000000007  0.6113299999999998  1.0000
  N   N11       1.0  0.6231899999999999  0.4124  0.61088  1.0000
  N   N12       1.0  0.59814  0.33545  0.56137  1.0000
  N   N13       1.0  0.10195  0.43216  0.29007  1.0000
  N   N14       1.0  0.1337200000000001  0.29801999999999984  0.34573  1.0000
  N   N15       1.0  0.14858999999999997  0.68664  0.01579  1.0000
  N   N16       1.0  0.11369  0.61821  0.14945  1.0000
  N   N17       1.0  0.12400000000000001  0.61131  0.41056  1.0000
  N   N18       1.0  0.09949999999999995  0.5614000000000001  0.33358  1.0000
  N   N19       1.0  0.39742999999999995  0.71033  0.56819  1.0000
  N   N20       1.0  0.36577000000000004  0.6541099999999996  0.7024  1.0000
  N   N21       1.0  0.35139  0.9842799999999999  0.3132  1.0000
  N   N22       1.0  0.38601999999999986  0.8506099999999999  0.3816299999999999  1.0000
  N   N23       1.0  0.3757699999999999  0.58949  0.38893  1.0000
  N   N24       1.0  0.3990799999999999  0.6670899999999998  0.43872  1.0000
  O   O1        1.0  0.06391999999999999  0.48203000000000007  0.65732  1.0000
  O   O2        1.0  0.045609999999999984  0.35325  0.74681  1.0000
  O   O3        1.0  0.019930000000000007  0.46547000000000005  0.8230499999999997  1.0000
  O   O4        1.0  0.060510000000000036  0.5895199999999999  0.77482  1.0000
  O   O5        1.0  0.43616  0.34263999999999994  0.51804  1.0000
  O   O6        1.0  0.4542599999999999  0.2530700000000001  0.6467999999999999  1.0000
  O   O7        1.0  0.48068999999999995  0.17658  0.53447  1.0000
  O   O8        1.0  0.43921  0.22515000000000004  0.4107499999999999  1.0000
  O   O9        1.0  0.9372399999999999  0.51766  0.3440399999999999  1.0000
  O   O10       1.0  0.9512399999999999  0.64729  0.25271  1.0000
  O   O11       1.0  0.9811499999999999  0.53557  0.17505999999999994  1.0000
  O   O12       1.0  0.9396100000000002  0.4114399999999999  0.22512  1.0000
  O   O13       1.0  0.56004  0.6545399999999999  0.48056  1.0000
  O   O14       1.0  0.54888  0.75038  0.35164  1.0000
  O   O15       1.0  0.5191399999999999  0.8247500000000001  0.4645299999999999  1.0000
  O   O16       1.0  0.5604500000000001  0.7747199999999997  0.58874  1.0000
