data_image0
_chemical_formula_structural       Cd8H56C116N8O32F24
_chemical_formula_sum              "Cd8 H56 C116 N8 O32 F24"
_cell_length_a       7.60142
_cell_length_b       15.768
_cell_length_c       28.096679999999996
_cell_angle_alpha    98.78396
_cell_angle_beta     90.0
_cell_angle_gamma    90.0

_space_group_name_H-M_alt    "P 1"
_space_group_IT_number       1

loop_
  _space_group_symop_operation_xyz
  'x, y, z'

loop_
  _atom_site_type_symbol
  _atom_site_label
  _atom_site_symmetry_multiplicity
  _atom_site_fract_x
  _atom_site_fract_y
  _atom_site_fract_z
  _atom_site_occupancy
  Cd  Cd1       1.0  0.46222000000000013  0.7908299999999997  0.9200299999999998  1.0000
  Cd  Cd2       1.0  0.9406800000000002  0.85188  0.9457499999999998  1.0000
  Cd  Cd3       1.0  0.96222  0.20918  0.57998  1.0000
  Cd  Cd4       1.0  0.4406800000000001  0.14812999999999996  0.5542599999999998  1.0000
  Cd  Cd5       1.0  0.53778  0.20918  0.07997999999999997  1.0000
  Cd  Cd6       1.0  0.05932000000000001  0.14813  0.054249999999999986  1.0000
  Cd  Cd7       1.0  0.037780000000000015  0.7908299999999998  0.4200299999999999  1.0000
  Cd  Cd8       1.0  0.5593200000000003  0.85187  0.44574999999999987  1.0000
  H   H1        1.0  0.27832  0.79827  0.76819  1.0000
  H   H2        1.0  0.78101  0.8086699999999999  0.6951699999999997  1.0000
  H   H3        1.0  0.6291700000000002  0.77724  0.7681299999999998  1.0000
  H   H4        1.0  0.97109  0.96764  0.7120499999999997  1.0000
  H   H5        1.0  0.7969000000000002  0.06289  0.66833  1.0000
  H   H6        1.0  0.06098000000000001  0.80047  0.57758  1.0000
  H   H7        1.0  0.34616  0.71476  0.010779999999999996  1.0000
  H   H8        1.0  0.2318  0.58418  0.03857  1.0000
  H   H9        1.0  0.33085  0.44856999999999997  0.8949899999999997  1.0000
  H   H10       1.0  0.4366100000000001  0.5872299999999999  0.8733399999999998  1.0000
  H   H11       1.0  0.21143000000000006  0.47235  0.06188  1.0000
  H   H12       1.0  0.09440000000000003  0.34031  0.08642999999999998  1.0000
  H   H13       1.0  0.07789  0.21607999999999997  0.9454099999999998  1.0000
  H   H14       1.0  0.17824  0.3459499999999999  0.9138599999999998  1.0000
  H   H15       1.0  0.7783200000000002  0.20173999999999992  0.7318199999999998  1.0000
  H   H16       1.0  0.28101  0.19133999999999998  0.8048299999999999  1.0000
  H   H17       1.0  0.12918000000000002  0.22277  0.73188  1.0000
  H   H18       1.0  0.4710900000000001  0.03237000000000001  0.78796  1.0000
  H   H19       1.0  0.2969  0.9371199999999998  0.8316699999999998  1.0000
  H   H20       1.0  0.5609800000000003  0.19953999999999994  0.9224299999999998  1.0000
  H   H21       1.0  0.84616  0.28524999999999995  0.4892199999999999  1.0000
  H   H22       1.0  0.7318  0.4158299999999999  0.4614399999999999  1.0000
  H   H23       1.0  0.83084  0.55144  0.60502  1.0000
  H   H24       1.0  0.9366100000000003  0.41278  0.6266699999999997  1.0000
  H   H25       1.0  0.71143  0.52766  0.4381199999999999  1.0000
  H   H26       1.0  0.5944  0.65969  0.41357  1.0000
  H   H27       1.0  0.5778800000000002  0.78393  0.5545899999999999  1.0000
  H   H28       1.0  0.6782400000000002  0.65406  0.5861399999999998  1.0000
  H   H29       1.0  0.72167  0.20172999999999996  0.23181  1.0000
  H   H30       1.0  0.21899000000000005  0.19133  0.3048299999999999  1.0000
  H   H31       1.0  0.3708200000000001  0.22276999999999997  0.23187999999999995  1.0000
  H   H32       1.0  0.02891000000000001  0.03236999999999996  0.2879599999999999  1.0000
  H   H33       1.0  0.20310000000000006  0.93712  0.33167  1.0000
  H   H34       1.0  0.9390200000000002  0.19953999999999997  0.4224299999999999  1.0000
  H   H35       1.0  0.65384  0.28524999999999995  0.9892199999999999  1.0000
  H   H36       1.0  0.76819  0.41583  0.96144  1.0000
  H   H37       1.0  0.6691500000000002  0.55144  0.10501999999999997  1.0000
  H   H38       1.0  0.5633900000000001  0.41278  0.12666  1.0000
  H   H39       1.0  0.7885600000000003  0.52766  0.93812  1.0000
  H   H40       1.0  0.9055900000000002  0.65969  0.9135799999999997  1.0000
  H   H41       1.0  0.92211  0.78392  0.05458999999999999  1.0000
  H   H42       1.0  0.8217600000000003  0.65405  0.08614  1.0000
  H   H43       1.0  0.22167000000000006  0.7982699999999999  0.26818999999999993  1.0000
  H   H44       1.0  0.7189800000000002  0.80867  0.19516999999999995  1.0000
  H   H45       1.0  0.87082  0.77724  0.26812  1.0000
  H   H46       1.0  0.5289000000000003  0.9676299999999999  0.21205  1.0000
  H   H47       1.0  0.7031000000000002  0.06287999999999998  0.16832999999999995  1.0000
  H   H48       1.0  0.43902000000000013  0.80047  0.07757  1.0000
  H   H49       1.0  0.15384  0.7147600000000001  0.51078  1.0000
  H   H50       1.0  0.2682000000000001  0.58418  0.53857  1.0000
  H   H51       1.0  0.16915  0.44857  0.3949799999999999  1.0000
  H   H52       1.0  0.06339000000000003  0.58723  0.3733399999999999  1.0000
  H   H53       1.0  0.28857  0.47235  0.56189  1.0000
  H   H54       1.0  0.4056000000000001  0.34031999999999996  0.5864299999999998  1.0000
  H   H55       1.0  0.4221100000000001  0.21608  0.44541  1.0000
  H   H56       1.0  0.3217600000000001  0.3459499999999999  0.4138599999999999  1.0000
  C   C1        1.0  0.75782  0.75109  0.85148  1.0000
  C   C2        1.0  0.86596  0.77116  0.8093299999999999  1.0000
  C   C3        1.0  0.05071000000000001  0.77875  0.8084699999999999  1.0000
  C   C4        1.0  0.13586000000000006  0.7949699999999998  0.7665199999999998  1.0000
  C   C5        1.0  0.04228000000000001  0.8058799999999999  0.7252399999999998  1.0000
  C   C6        1.0  0.85793  0.7996199999999998  0.7265799999999999  1.0000
  C   C7        1.0  0.77198  0.78226  0.7677899999999998  1.0000
  C   C8        1.0  0.16377  0.7709199999999999  0.8511699999999998  1.0000
  C   C9        1.0  0.13386  0.81778  0.67768  1.0000
  C   C10       1.0  0.3183200000000001  0.86102  0.68603  1.0000
  C   C11       1.0  0.15983  0.726  0.64926  1.0000
  C   C12       1.0  0.02689  0.87512  0.6486199999999998  1.0000
  C   C13       1.0  0.9534400000000002  0.9509999999999998  0.6733499999999999  1.0000
  C   C14       1.0  0.8543400000000002  0.004640000000000002  0.64886  1.0000
  C   C15       1.0  0.8252200000000002  0.9841300000000001  0.59914  1.0000
  C   C16       1.0  0.9027300000000003  0.9098200000000001  0.5738  1.0000
  C   C17       1.0  0.00441  0.85695  0.5988  1.0000
  C   C18       1.0  0.70223  0.040839999999999946  0.5764799999999998  1.0000
  C   C19       1.0  0.8674500000000003  0.8811499999999998  0.52118  1.0000
  C   C20       1.0  0.33867000000000014  0.65422  0.98644  1.0000
  C   C21       1.0  0.2771500000000001  0.57999  0.0016399999999999995  1.0000
  C   C22       1.0  0.27078  0.50271  0.9693099999999998  1.0000
  C   C23       1.0  0.3293900000000001  0.5057099999999998  0.9220899999999997  1.0000
  C   C24       1.0  0.3891100000000001  0.58284  0.9094699999999998  1.0000
  C   C25       1.0  0.20514  0.42288999999999993  0.9850499999999998  1.0000
  C   C26       1.0  0.17997000000000005  0.41869  0.0341  1.0000
  C   C27       1.0  0.11723000000000003  0.34412  0.048629999999999986  1.0000
  C   C28       1.0  0.10621  0.27504999999999985  0.9698999999999999  1.0000
  C   C29       1.0  0.16472000000000006  0.34825  0.9525599999999997  1.0000
  C   C30       1.0  0.25783  0.24892  0.64852  1.0000
  C   C31       1.0  0.3659600000000001  0.22884999999999997  0.69068  1.0000
  C   C32       1.0  0.5507100000000003  0.22125999999999996  0.6915299999999998  1.0000
  C   C33       1.0  0.63587  0.20503999999999992  0.7334899999999998  1.0000
  C   C34       1.0  0.54228  0.19413  0.77477  1.0000
  C   C35       1.0  0.3579400000000001  0.20038999999999996  0.7734199999999998  1.0000
  C   C36       1.0  0.2719800000000001  0.21775  0.73222  1.0000
  C   C37       1.0  0.6637700000000002  0.22908999999999993  0.6488399999999998  1.0000
  C   C38       1.0  0.6338600000000002  0.18222999999999995  0.8223299999999998  1.0000
  C   C39       1.0  0.81832  0.13899  0.8139799999999998  1.0000
  C   C40       1.0  0.65983  0.27400999999999975  0.8507399999999998  1.0000
  C   C41       1.0  0.52689  0.12488999999999993  0.8513799999999998  1.0000
  C   C42       1.0  0.45345000000000013  0.049009999999999984  0.82666  1.0000
  C   C43       1.0  0.35434  0.99537  0.85114  1.0000
  C   C44       1.0  0.32523000000000013  0.015879999999999995  0.90086  1.0000
  C   C45       1.0  0.4027300000000001  0.09018999999999999  0.9262  1.0000
  C   C46       1.0  0.50441  0.14306000000000002  0.9012  1.0000
  C   C47       1.0  0.20223  0.95917  0.9235199999999998  1.0000
  C   C48       1.0  0.36745  0.11884999999999993  0.9788299999999998  1.0000
  C   C49       1.0  0.83867  0.34579  0.51357  1.0000
  C   C50       1.0  0.7771500000000002  0.42002  0.4983599999999999  1.0000
  C   C51       1.0  0.77077  0.49729999999999996  0.5306999999999998  1.0000
  C   C52       1.0  0.8293900000000002  0.4943  0.5779099999999999  1.0000
  C   C53       1.0  0.88911  0.41716999999999993  0.5905299999999999  1.0000
  C   C54       1.0  0.70513  0.5771199999999997  0.51495  1.0000
  C   C55       1.0  0.6799700000000002  0.58131  0.46589999999999987  1.0000
  C   C56       1.0  0.6172300000000002  0.65589  0.45137999999999995  1.0000
  C   C57       1.0  0.6062100000000002  0.72496  0.5300999999999998  1.0000
  C   C58       1.0  0.6647100000000002  0.65176  0.5474499999999998  1.0000
  C   C59       1.0  0.24217000000000002  0.24891999999999997  0.14851999999999996  1.0000
  C   C60       1.0  0.13404  0.22883999999999996  0.19067999999999993  1.0000
  C   C61       1.0  0.9492900000000002  0.22125999999999998  0.19152999999999995  1.0000
  C   C62       1.0  0.86413  0.20504  0.23349  1.0000
  C   C63       1.0  0.9577100000000002  0.19412  0.27477  1.0000
  C   C64       1.0  0.14207  0.20038999999999998  0.2734199999999999  1.0000
  C   C65       1.0  0.22802000000000006  0.21774999999999997  0.23220999999999997  1.0000
  C   C66       1.0  0.8362300000000003  0.22909  0.14882999999999993  1.0000
  C   C67       1.0  0.8661400000000002  0.18223  0.3223199999999999  1.0000
  C   C68       1.0  0.68168  0.13899  0.3139699999999999  1.0000
  C   C69       1.0  0.8401700000000001  0.274  0.3507399999999999  1.0000
  C   C70       1.0  0.9731000000000002  0.12487999999999999  0.35137999999999997  1.0000
  C   C71       1.0  0.046550000000000015  0.04900999999999998  0.3266599999999999  1.0000
  C   C72       1.0  0.14566000000000007  0.99536  0.3511399999999999  1.0000
  C   C73       1.0  0.17477000000000006  0.015879999999999967  0.4008599999999999  1.0000
  C   C74       1.0  0.09727000000000002  0.09018999999999998  0.4261999999999999  1.0000
  C   C75       1.0  0.99558  0.14304999999999995  0.4011999999999999  1.0000
  C   C76       1.0  0.29776000000000014  0.95917  0.42351999999999995  1.0000
  C   C77       1.0  0.13255000000000006  0.11884999999999996  0.4788299999999999  1.0000
  C   C78       1.0  0.66133  0.34579  0.013569999999999997  1.0000
  C   C79       1.0  0.7228500000000002  0.42001999999999995  0.9983599999999999  1.0000
  C   C80       1.0  0.7292200000000002  0.4973  0.030699999999999995  1.0000
  C   C81       1.0  0.6706100000000003  0.4943  0.07790999999999997  1.0000
  C   C82       1.0  0.61089  0.41716  0.09052999999999997  1.0000
  C   C83       1.0  0.7948600000000002  0.5771199999999997  0.014949999999999996  1.0000
  C   C84       1.0  0.8200300000000003  0.58131  0.9659  1.0000
  C   C85       1.0  0.8827600000000002  0.65589  0.9513799999999998  1.0000
  C   C86       1.0  0.8937900000000002  0.72496  0.03009999999999999  1.0000
  C   C87       1.0  0.8352800000000001  0.65176  0.04743999999999999  1.0000
  C   C88       1.0  0.74217  0.75108  0.3514799999999999  1.0000
  C   C89       1.0  0.63404  0.77116  0.30933  1.0000
  C   C90       1.0  0.4492800000000001  0.77875  0.30847  1.0000
  C   C91       1.0  0.36413000000000006  0.79496  0.2665099999999999  1.0000
  C   C92       1.0  0.45771  0.80588  0.22522999999999996  1.0000
  C   C93       1.0  0.64206  0.79961  0.22657999999999995  1.0000
  C   C94       1.0  0.7280100000000003  0.78225  0.26779  1.0000
  C   C95       1.0  0.33623  0.77091  0.35116999999999987  1.0000
  C   C96       1.0  0.36614000000000013  0.81777  0.17767999999999995  1.0000
  C   C97       1.0  0.18168  0.86102  0.18603  1.0000
  C   C98       1.0  0.34017  0.726  0.14925999999999995  1.0000
  C   C99       1.0  0.47310000000000013  0.87512  0.14862  1.0000
  C   C100      1.0  0.54655  0.9509999999999997  0.17335  1.0000
  C   C101      1.0  0.64566  0.004639999999999995  0.14885999999999996  1.0000
  C   C102      1.0  0.67477  0.98412  0.09914  1.0000
  C   C103      1.0  0.59726  0.90981  0.0738  1.0000
  C   C104      1.0  0.49558000000000013  0.85695  0.0988  1.0000
  C   C105      1.0  0.79777  0.04083  0.07647999999999998  1.0000
  C   C106      1.0  0.63255  0.8811499999999998  0.021169999999999994  1.0000
  C   C107      1.0  0.16133  0.6542099999999998  0.4864399999999999  1.0000
  C   C108      1.0  0.22285000000000005  0.57999  0.50164  1.0000
  C   C109      1.0  0.22922000000000006  0.50271  0.4692999999999999  1.0000
  C   C110      1.0  0.17061  0.50571  0.4220899999999999  1.0000
  C   C111      1.0  0.11089  0.58284  0.4094699999999999  1.0000
  C   C112      1.0  0.29486  0.42288  0.48504999999999987  1.0000
  C   C113      1.0  0.3200300000000001  0.4187  0.53411  1.0000
  C   C114      1.0  0.38276  0.34412  0.5486299999999998  1.0000
  C   C115      1.0  0.3937900000000001  0.2750499999999999  0.4698999999999999  1.0000
  C   C116      1.0  0.33528  0.34825  0.4525599999999999  1.0000
  N   N1        1.0  0.39421  0.65626  0.94113  1.0000
  N   N2        1.0  0.08194000000000003  0.27255  0.01723999999999999  1.0000
  N   N3        1.0  0.8942100000000002  0.34375  0.55887  1.0000
  N   N4        1.0  0.58194  0.72745  0.4827599999999999  1.0000
  N   N5        1.0  0.6057900000000003  0.34375  0.05887  1.0000
  N   N6        1.0  0.9180500000000003  0.72745  0.9827599999999997  1.0000
  N   N7        1.0  0.10579  0.65625  0.4411299999999999  1.0000
  N   N8        1.0  0.41806  0.27256  0.5172399999999998  1.0000
  O   O1        1.0  0.7256900000000002  0.8162699999999999  0.8856899999999998  1.0000
  O   O2        1.0  0.6917800000000002  0.67881  0.8499499999999998  1.0000
  O   O3        1.0  0.09605000000000001  0.7464499999999998  0.8881799999999997  1.0000
  O   O4        1.0  0.3259300000000001  0.79129  0.8479599999999998  1.0000
  O   O5        1.0  0.7591200000000002  0.09836000000000002  0.55256  1.0000
  O   O6        1.0  0.5401800000000002  0.033190000000000025  0.58595  1.0000
  O   O7        1.0  0.74175  0.91843  0.5026299999999999  1.0000
  O   O8        1.0  0.95971  0.81936  0.4998999999999999  1.0000
  O   O9        1.0  0.22569000000000006  0.1837399999999999  0.6143199999999998  1.0000
  O   O10       1.0  0.19179000000000002  0.3212  0.6500499999999999  1.0000
  O   O11       1.0  0.59606  0.25355999999999995  0.6118199999999999  1.0000
  O   O12       1.0  0.82594  0.20871999999999996  0.6520399999999998  1.0000
  O   O13       1.0  0.25912000000000013  0.90165  0.9474499999999998  1.0000
  O   O14       1.0  0.04018  0.9668199999999998  0.91405  1.0000
  O   O15       1.0  0.24175000000000005  0.08157999999999992  0.9973799999999998  1.0000
  O   O16       1.0  0.4597100000000001  0.18064  0.0001  1.0000
  O   O17       1.0  0.27431000000000005  0.18374  0.11431999999999998  1.0000
  O   O18       1.0  0.3082100000000001  0.3212  0.15005  1.0000
  O   O19       1.0  0.90395  0.25356  0.11181999999999997  1.0000
  O   O20       1.0  0.67406  0.20872  0.15204  1.0000
  O   O21       1.0  0.24088  0.90165  0.4474499999999999  1.0000
  O   O22       1.0  0.4598100000000001  0.9668199999999998  0.41404999999999986  1.0000
  O   O23       1.0  0.25825  0.08158  0.49737  1.0000
  O   O24       1.0  0.04029  0.18065  0.5001  1.0000
  O   O25       1.0  0.7743100000000003  0.81626  0.38568999999999987  1.0000
  O   O26       1.0  0.80821  0.67881  0.3499499999999999  1.0000
  O   O27       1.0  0.40394  0.74645  0.3881799999999999  1.0000
  O   O28       1.0  0.17406000000000005  0.79129  0.3479599999999999  1.0000
  O   O29       1.0  0.7408800000000002  0.09836  0.05256  1.0000
  O   O30       1.0  0.95981  0.033179999999999994  0.08594999999999998  1.0000
  O   O31       1.0  0.7582400000000002  0.91842  0.002629999999999999  1.0000
  O   O32       1.0  0.5402800000000002  0.81936  0.9999  1.0000
  F   F1        1.0  0.23323000000000005  0.67085  0.6761499999999998  1.0000
  F   F2        1.0  0.0008900000000000002  0.69159  0.6332999999999998  1.0000
  F   F3        1.0  0.26637000000000005  0.7246399999999998  0.6095099999999999  1.0000
  F   F4        1.0  0.38392  0.8835  0.64503  1.0000
  F   F5        1.0  0.30843  0.93344  0.7191499999999997  1.0000
  F   F6        1.0  0.4416000000000001  0.8084199999999998  0.7023299999999999  1.0000
  F   F7        1.0  0.7332300000000003  0.32915999999999984  0.8238499999999997  1.0000
  F   F8        1.0  0.5008900000000002  0.30841999999999997  0.8666999999999999  1.0000
  F   F9        1.0  0.76637  0.27537  0.8905  1.0000
  F   F10       1.0  0.88392  0.11650999999999993  0.8549699999999998  1.0000
  F   F11       1.0  0.80843  0.06656999999999996  0.7808499999999999  1.0000
  F   F12       1.0  0.9416000000000002  0.19158999999999995  0.7976699999999998  1.0000
  F   F13       1.0  0.76676  0.3291599999999999  0.32385  1.0000
  F   F14       1.0  0.9991100000000002  0.30842  0.3667  1.0000
  F   F15       1.0  0.73363  0.2753699999999999  0.3904899999999999  1.0000
  F   F16       1.0  0.61607  0.1165  0.35497  1.0000
  F   F17       1.0  0.69157  0.06657  0.28085  1.0000
  F   F18       1.0  0.5584  0.19157999999999997  0.2976699999999999  1.0000
  F   F19       1.0  0.26676  0.67084  0.17615  1.0000
  F   F20       1.0  0.49911  0.69159  0.13329999999999995  1.0000
  F   F21       1.0  0.23363000000000006  0.72463  0.10950999999999997  1.0000
  F   F22       1.0  0.11607000000000003  0.8835  0.14502999999999994  1.0000
  F   F23       1.0  0.19156  0.93344  0.21914999999999996  1.0000
  F   F24       1.0  0.0584  0.8084199999999998  0.20232999999999995  1.0000
