data_image0
_chemical_formula_structural       Co4H120C168N24
_chemical_formula_sum              "Co4 H120 C168 N24"
_cell_length_a       19.0231
_cell_length_b       19.023099999999996
_cell_length_c       19.0231
_cell_angle_alpha    90.00046
_cell_angle_beta     90.00046
_cell_angle_gamma    90.00046

_symmetry_space_group_name_H-M    'P 1'
_symmetry_Int_Tables_number       1

loop_
  _symmetry_equiv_pos_as_xyz
  'x,y,z'

loop_
  _atom_site_type_symbol
  _atom_site_label
  _atom_site_symmetry_multiplicity
  _atom_site_fract_x
  _atom_site_fract_y
  _atom_site_fract_z
  _atom_site_occupancy
  Co  Co1       1.0  0.50002  0.50001  2.9999999999999997e-05  1.0000
  Co  Co2       1.0  8e-05  0.99996  0.99999  1.0000
  Co  Co3       1.0  0.0  0.49998  0.49998  1.0000
  Co  Co4       1.0  0.50002  0.0  0.50002  1.0000
  H   H1        1.0  0.25348  0.55061  0.11944  1.0000
  H   H2        1.0  0.13934999999999997  0.55191  0.18034  1.0000
  H   H3        1.0  0.35318  0.50245  0.07336  1.0000
  H   H4        1.0  0.5528299999999999  0.56591  0.14505  1.0000
  H   H5        1.0  0.46477  0.58924  0.25378  1.0000
  H   H6        1.0  0.24659  0.94939  0.11942  1.0000
  H   H7        1.0  0.3607  0.9481  0.18036  1.0000
  H   H8        1.0  0.14686999999999997  0.99751  0.07333  1.0000
  H   H9        1.0  0.9472199999999998  0.93409  0.14502  1.0000
  H   H10       1.0  0.03527  0.91076  0.25376  1.0000
  H   H11       1.0  0.24651999999999996  0.55061  0.38058  1.0000
  H   H12       1.0  0.36064999999999997  0.55191  0.31968  1.0000
  H   H13       1.0  0.14681  0.50242  0.42665  1.0000
  H   H14       1.0  0.9471799999999999  0.56589  0.35495  1.0000
  H   H15       1.0  0.03523  0.58924  0.24622999999999998  1.0000
  H   H16       1.0  0.25348  0.94941  0.38059  1.0000
  H   H17       1.0  0.13936  0.94809  0.31967  1.0000
  H   H18       1.0  0.35319  0.99755  0.42667000000000005  1.0000
  H   H19       1.0  0.55284  0.9341  0.3549999999999999  1.0000
  H   H20       1.0  0.4648  0.91076  0.24626999999999996  1.0000
  H   H21       1.0  0.11943  0.25345  0.55059  1.0000
  H   H22       1.0  0.18036  0.13933  0.5519  1.0000
  H   H23       1.0  0.07334  0.35316  0.5024299999999999  1.0000
  H   H24       1.0  0.14502  0.5528  0.5659  1.0000
  H   H25       1.0  0.25375  0.46475  0.58922  1.0000
  H   H26       1.0  0.11944999999999999  0.24651  0.94938  1.0000
  H   H27       1.0  0.18035  0.36065  0.9481  1.0000
  H   H28       1.0  0.07339  0.14682  0.9975399999999999  1.0000
  H   H29       1.0  0.14507999999999993  0.94717  0.9340899999999999  1.0000
  H   H30       1.0  0.2538  0.03522  0.91074  1.0000
  H   H31       1.0  0.38058  0.24654  0.5506  1.0000
  H   H32       1.0  0.31965  0.36066  0.5519  1.0000
  H   H33       1.0  0.42668  0.14683  0.50246  1.0000
  H   H34       1.0  0.35499  0.94719  0.56592  1.0000
  H   H35       1.0  0.24625  0.03523  0.58923  1.0000
  H   H36       1.0  0.38061  0.25348  0.9494  1.0000
  H   H37       1.0  0.31972  0.13934  0.9480700000000001  1.0000
  H   H38       1.0  0.42666999999999994  0.35319  0.9975799999999999  1.0000
  H   H39       1.0  0.35498  0.5528  0.93412  1.0000
  H   H40       1.0  0.24626  0.46477  0.91078  1.0000
  H   H41       1.0  0.5506  0.11942  0.25347  1.0000
  H   H42       1.0  0.5518999999999998  0.18034  0.13935  1.0000
  H   H43       1.0  0.5024599999999999  0.07334  0.35319  1.0000
  H   H44       1.0  0.56592  0.14503  0.55283  1.0000
  H   H45       1.0  0.58924  0.25376  0.46478  1.0000
  H   H46       1.0  0.9494299999999999  0.11938000000000001  0.24653  1.0000
  H   H47       1.0  0.94809  0.18032  0.36064999999999997  1.0000
  H   H48       1.0  0.99761  0.07332  0.14682  1.0000
  H   H49       1.0  0.9341399999999999  0.145  0.94718  1.0000
  H   H50       1.0  0.9108  0.25372  0.03523  1.0000
  H   H51       1.0  0.55061  0.38057  0.24655  1.0000
  H   H52       1.0  0.5519099999999999  0.31965  0.36067  1.0000
  H   H53       1.0  0.5024599999999999  0.42666  0.14684  1.0000
  H   H54       1.0  0.56591  0.35498  0.9472  1.0000
  H   H55       1.0  0.5892299999999999  0.24623999999999996  0.03525  1.0000
  H   H56       1.0  0.9493899999999998  0.38054  0.25343  1.0000
  H   H57       1.0  0.94812  0.31962  0.13931  1.0000
  H   H58       1.0  0.9975399999999999  0.42663  0.35314  1.0000
  H   H59       1.0  0.93409  0.35495  0.55279  1.0000
  H   H60       1.0  0.91076  0.24622  0.46474  1.0000
  H   H61       1.0  0.74655  0.44941  0.88058  1.0000
  H   H62       1.0  0.8606699999999999  0.44811000000000006  0.81965  1.0000
  H   H63       1.0  0.64684  0.49755999999999995  0.92667  1.0000
  H   H64       1.0  0.4472  0.4341  0.85498  1.0000
  H   H65       1.0  0.53525  0.41078  0.74626  1.0000
  H   H66       1.0  0.7535  0.05058  0.8805900000000001  1.0000
  H   H67       1.0  0.63937  0.0519  0.81968  1.0000
  H   H68       1.0  0.8532099999999999  0.00241  0.9266399999999999  1.0000
  H   H69       1.0  0.05284  0.06588  0.8549599999999999  1.0000
  H   H70       1.0  0.9647999999999999  0.08924  0.74624  1.0000
  H   H71       1.0  0.75344  0.44941  0.61943  1.0000
  H   H72       1.0  0.63933  0.44811000000000006  0.68037  1.0000
  H   H73       1.0  0.85316  0.49754000000000004  0.5733299999999999  1.0000
  H   H74       1.0  0.0528  0.43409  0.64501  1.0000
  H   H75       1.0  0.9647599999999998  0.41077  0.7537499999999999  1.0000
  H   H76       1.0  0.7465599999999999  0.0506  0.61943  1.0000
  H   H77       1.0  0.8607  0.0519  0.68033  1.0000
  H   H78       1.0  0.64685  0.00244  0.5733699999999999  1.0000
  H   H79       1.0  0.44720999999999994  0.06591  0.64505  1.0000
  H   H80       1.0  0.53527  0.08924  0.75378  1.0000
  H   H81       1.0  0.88057  0.74652  0.44939  1.0000
  H   H82       1.0  0.81967  0.86065  0.44809  1.0000
  H   H83       1.0  0.9266499999999999  0.64681  0.49754999999999994  1.0000
  H   H84       1.0  0.8549599999999999  0.44717  0.43407999999999997  1.0000
  H   H85       1.0  0.7462299999999998  0.53523  0.41076  1.0000
  H   H86       1.0  0.8806199999999998  0.75342  0.05057  1.0000
  H   H87       1.0  0.81967  0.63932  0.0519  1.0000
  H   H88       1.0  0.9266999999999999  0.85316  0.00243  1.0000
  H   H89       1.0  0.8550099999999999  0.05278999999999999  0.06587999999999998  1.0000
  H   H90       1.0  0.74628  0.96475  0.08921  1.0000
  H   H91       1.0  0.61943  0.75346  0.4494  1.0000
  H   H92       1.0  0.68034  0.63934  0.44809  1.0000
  H   H93       1.0  0.57336  0.8531700000000001  0.49756999999999996  1.0000
  H   H94       1.0  0.64505  0.052809999999999996  0.43410999999999994  1.0000
  H   H95       1.0  0.75377  0.96476  0.41076  1.0000
  H   H96       1.0  0.61945  0.74655  0.0506  1.0000
  H   H97       1.0  0.68039  0.86067  0.05187  1.0000
  H   H98       1.0  0.57336  0.64685  0.00247  1.0000
  H   H99       1.0  0.64503  0.44717  0.06592  1.0000
  H   H100      1.0  0.75377  0.53524  0.08925  1.0000
  H   H101      1.0  0.44941  0.88057  0.74655  1.0000
  H   H102      1.0  0.44810999999999995  0.81965  0.86067  1.0000
  H   H103      1.0  0.49757999999999997  0.92665  0.6468399999999999  1.0000
  H   H104      1.0  0.43409999999999993  0.85497  0.4472  1.0000
  H   H105      1.0  0.41078  0.74624  0.53525  1.0000
  H   H106      1.0  0.05063  0.8805500000000002  0.75345  1.0000
  H   H107      1.0  0.0519  0.81964  0.63932  1.0000
  H   H108      1.0  0.00251  0.92663  0.8531599999999999  1.0000
  H   H109      1.0  0.06593  0.8549400000000001  0.05279999999999999  1.0000
  H   H110      1.0  0.08926999999999999  0.74621  0.9647599999999998  1.0000
  H   H111      1.0  0.44941  0.61942  0.75347  1.0000
  H   H112      1.0  0.4481  0.68034  0.63935  1.0000
  H   H113      1.0  0.49757999999999997  0.57335  0.85319  1.0000
  H   H114      1.0  0.43409999999999993  0.64503  0.052820000000000006  1.0000
  H   H115      1.0  0.41076  0.75376  0.96478  1.0000
  H   H116      1.0  0.05058  0.61938  0.74651  1.0000
  H   H117      1.0  0.05193  0.68029  0.86064  1.0000
  H   H118      1.0  0.0024399999999999995  0.57333  0.6468  1.0000
  H   H119      1.0  0.06589  0.64501  0.44715999999999995  1.0000
  H   H120      1.0  0.08923  0.75373  0.53521  1.0000
  C   C1        1.0  0.31627  0.55033  0.21468  1.0000
  C   C2        1.0  0.25182  0.55045  0.17663  1.0000
  C   C3        1.0  0.1878  0.55159  0.21074  1.0000
  C   C4        1.0  0.3922299999999999  0.52419  0.10834  1.0000
  C   C5        1.0  0.4969999999999999  0.55592  0.14808999999999997  1.0000
  C   C6        1.0  0.45112  0.56719  0.20309  1.0000
  C   C7        1.0  0.38250999999999996  0.54804  0.17868999999999996  1.0000
  C   C8        1.0  0.18376999999999993  0.94969  0.21468  1.0000
  C   C9        1.0  0.24822  0.9495399999999999  0.17662  1.0000
  C   C10       1.0  0.31223999999999996  0.9483800000000001  0.21074  1.0000
  C   C11       1.0  0.10782  0.97578  0.10833  1.0000
  C   C12       1.0  0.0030499999999999993  0.9440600000000001  0.14805  1.0000
  C   C13       1.0  0.048909999999999995  0.9328300000000002  0.20308  1.0000
  C   C14       1.0  0.11752999999999998  0.95192  0.17867  1.0000
  C   C15       1.0  0.18372  0.55032  0.28534  1.0000
  C   C16       1.0  0.24817  0.55044  0.32339  1.0000
  C   C17       1.0  0.3122  0.5516  0.28928  1.0000
  C   C18       1.0  0.10776999999999999  0.52418  0.39166  1.0000
  C   C19       1.0  0.0029899999999999996  0.5559  0.35194  1.0000
  C   C20       1.0  0.04887  0.56719  0.29691  1.0000
  C   C21       1.0  0.11748  0.54804  0.32132  1.0000
  C   C22       1.0  0.3163  0.94971  0.28535  1.0000
  C   C23       1.0  0.25185  0.94953  0.3234  1.0000
  C   C24       1.0  0.18783  0.94841  0.28928  1.0000
  C   C25       1.0  0.39226  0.9758299999999999  0.39169  1.0000
  C   C26       1.0  0.49702  0.94407  0.35197  1.0000
  C   C27       1.0  0.45114999999999994  0.9328300000000002  0.29693  1.0000
  C   C28       1.0  0.38253  0.95193  0.32137  1.0000
  C   C29       1.0  0.21466  0.31626  0.55031  1.0000
  C   C30       1.0  0.17662  0.2518  0.55043  1.0000
  C   C31       1.0  0.21074999999999997  0.18779  0.55158  1.0000
  C   C32       1.0  0.10833  0.39221  0.52418  1.0000
  C   C33       1.0  0.14804  0.49699000000000004  0.55589  1.0000
  C   C34       1.0  0.20307  0.45111  0.56718  1.0000
  C   C35       1.0  0.17867  0.3825  0.54803  1.0000
  C   C36       1.0  0.21470999999999998  0.18372  0.94968  1.0000
  C   C37       1.0  0.17665  0.24817  0.94953  1.0000
  C   C38       1.0  0.21075999999999998  0.3122  0.94839  1.0000
  C   C39       1.0  0.10838  0.10775  0.9758  1.0000
  C   C40       1.0  0.14811  0.00298  0.9440599999999999  1.0000
  C   C41       1.0  0.20315  0.04887  0.9327999999999999  1.0000
  C   C42       1.0  0.1787  0.11749  0.9519099999999999  1.0000
  C   C43       1.0  0.28534999999999994  0.18372  0.55031  1.0000
  C   C44       1.0  0.32339  0.24818  0.5504399999999999  1.0000
  C   C45       1.0  0.28926  0.31219  0.55158  1.0000
  C   C46       1.0  0.3916899999999999  0.10777999999999999  0.52421  1.0000
  C   C47       1.0  0.35197  0.00301  0.55593  1.0000
  C   C48       1.0  0.29693  0.04888  0.56719  1.0000
  C   C49       1.0  0.32133999999999996  0.11749  0.54804  1.0000
  C   C50       1.0  0.28536  0.31629  0.94972  1.0000
  C   C51       1.0  0.32342  0.25183  0.94953  1.0000
  C   C52       1.0  0.28932  0.1878  0.94839  1.0000
  C   C53       1.0  0.39168  0.39225  0.97585  1.0000
  C   C54       1.0  0.35197  0.49700999999999995  0.9440999999999999  1.0000
  C   C55       1.0  0.29691  0.45113  0.9328399999999999  1.0000
  C   C56       1.0  0.32137  0.38252  0.95194  1.0000
  C   C57       1.0  0.5503299999999999  0.21466  0.31629  1.0000
  C   C58       1.0  0.55045  0.17661  0.25183  1.0000
  C   C59       1.0  0.55159  0.21073000000000003  0.18782  1.0000
  C   C60       1.0  0.52421  0.10831999999999999  0.39224  1.0000
  C   C61       1.0  0.55592  0.14806  0.49700999999999995  1.0000
  C   C62       1.0  0.5672  0.20308  0.4511299999999999  1.0000
  C   C63       1.0  0.54804  0.17867  0.38253  1.0000
  C   C64       1.0  0.94972  0.21463  0.18371  1.0000
  C   C65       1.0  0.9495699999999999  0.17657  0.24815999999999996  1.0000
  C   C66       1.0  0.9484  0.21070000000000003  0.31218  1.0000
  C   C67       1.0  0.97588  0.10829999999999998  0.10775  1.0000
  C   C68       1.0  0.94412  0.14802  0.0029899999999999996  1.0000
  C   C69       1.0  0.93286  0.20304  0.04887  1.0000
  C   C70       1.0  0.95197  0.17862  0.11748  1.0000
  C   C71       1.0  0.55031  0.28533  0.18374  1.0000
  C   C72       1.0  0.55045  0.32338  0.2482  1.0000
  C   C73       1.0  0.55159  0.28926  0.31221  1.0000
  C   C74       1.0  0.52421  0.39167  0.1078  1.0000
  C   C75       1.0  0.55591  0.35195  0.0029999999999999996  1.0000
  C   C76       1.0  0.56719  0.29691  0.04889  1.0000
  C   C77       1.0  0.54804  0.32132  0.11750999999999999  1.0000
  C   C78       1.0  0.94972  0.2853  0.31625  1.0000
  C   C79       1.0  0.94954  0.32335  0.25179  1.0000
  C   C80       1.0  0.94843  0.28923  0.18776999999999996  1.0000
  C   C81       1.0  0.97581  0.39165  0.39220999999999995  1.0000
  C   C82       1.0  0.9440699999999999  0.35193  0.49698  1.0000
  C   C83       1.0  0.9328199999999999  0.2969  0.4511  1.0000
  C   C84       1.0  0.9519099999999999  0.32133  0.38247999999999993  1.0000
  C   C85       1.0  0.6837199999999998  0.44969000000000003  0.78535  1.0000
  C   C86       1.0  0.74819  0.44957  0.82339  1.0000
  C   C87       1.0  0.8122  0.4484099999999999  0.78926  1.0000
  C   C88       1.0  0.60779  0.47580999999999996  0.8916799999999999  1.0000
  C   C89       1.0  0.503  0.44411  0.85198  1.0000
  C   C90       1.0  0.54888  0.43281000000000003  0.79693  1.0000
  C   C91       1.0  0.6174899999999999  0.45197  0.82134  1.0000
  C   C92       1.0  0.81631  0.0503  0.7853399999999999  1.0000
  C   C93       1.0  0.75186  0.05044  0.8233999999999999  1.0000
  C   C94       1.0  0.68783  0.051590000000000004  0.78928  1.0000
  C   C95       1.0  0.89229  0.02413  0.89167  1.0000
  C   C96       1.0  0.9970399999999999  0.0559  0.85194  1.0000
  C   C97       1.0  0.9511499999999999  0.06718  0.7969  1.0000
  C   C98       1.0  0.8825399999999999  0.04805  0.82135  1.0000
  C   C99       1.0  0.81627  0.44969000000000003  0.71466  1.0000
  C   C100      1.0  0.75181  0.44956  0.67662  1.0000
  C   C101      1.0  0.6877999999999999  0.44842  0.71075  1.0000
  C   C102      1.0  0.8922199999999999  0.47580000000000006  0.60831  1.0000
  C   C103      1.0  0.9969799999999999  0.44407  0.64804  1.0000
  C   C104      1.0  0.95111  0.43282000000000004  0.7030699999999999  1.0000
  C   C105      1.0  0.8824999999999998  0.45197  0.67866  1.0000
  C   C106      1.0  0.68376  0.05027  0.71468  1.0000
  C   C107      1.0  0.74821  0.05046  0.67663  1.0000
  C   C108      1.0  0.81224  0.051590000000000004  0.71074  1.0000
  C   C109      1.0  0.60779  0.02417  0.6083599999999999  1.0000
  C   C110      1.0  0.50302  0.05591999999999999  0.64807  1.0000
  C   C111      1.0  0.5489  0.06717  0.7030999999999998  1.0000
  C   C112      1.0  0.61752  0.04808  0.67867  1.0000
  C   C113      1.0  0.78533  0.68372  0.44968  1.0000
  C   C114      1.0  0.82338  0.74817  0.44955999999999996  1.0000
  C   C115      1.0  0.78927  0.81219  0.4484099999999999  1.0000
  C   C116      1.0  0.89167  0.60776  0.47578999999999994  1.0000
  C   C117      1.0  0.8519399999999999  0.50298  0.44408  1.0000
  C   C118      1.0  0.79691  0.54886  0.4328  1.0000
  C   C119      1.0  0.82132  0.61747  0.45195  1.0000
  C   C120      1.0  0.7853799999999999  0.81626  0.05028  1.0000
  C   C121      1.0  0.8234299999999998  0.75181  0.05043  1.0000
  C   C122      1.0  0.7893  0.68779  0.0516  1.0000
  C   C123      1.0  0.8917099999999999  0.8922100000000001  0.024149999999999998  1.0000
  C   C124      1.0  0.852  0.9969700000000001  0.0559  1.0000
  C   C125      1.0  0.79697  0.9511100000000001  0.06715  1.0000
  C   C126      1.0  0.82138  0.8825  0.04804  1.0000
  C   C127      1.0  0.71467  0.81627  0.44968  1.0000
  C   C128      1.0  0.67662  0.75182  0.44955  1.0000
  C   C129      1.0  0.7107299999999998  0.6878  0.4484099999999999  1.0000
  C   C130      1.0  0.6083399999999999  0.89222  0.47582  1.0000
  C   C131      1.0  0.6480699999999998  0.997  0.4441  1.0000
  C   C132      1.0  0.7030899999999999  0.95112  0.4328199999999999  1.0000
  C   C133      1.0  0.67868  0.8825099999999999  0.45197  1.0000
  C   C134      1.0  0.7147  0.68374  0.05029  1.0000
  C   C135      1.0  0.67665  0.74819  0.05045999999999999  1.0000
  C   C136      1.0  0.71077  0.81221  0.05156999999999999  1.0000
  C   C137      1.0  0.60835  0.60778  0.024189999999999996  1.0000
  C   C138      1.0  0.6480699999999998  0.50301  0.05594  1.0000
  C   C139      1.0  0.70308  0.54889  0.06717999999999999  1.0000
  C   C140      1.0  0.67867  0.61751  0.04809  1.0000
  C   C141      1.0  0.44969  0.78533  0.68374  1.0000
  C   C142      1.0  0.44958  0.82337  0.7482  1.0000
  C   C143      1.0  0.44841  0.78925  0.81222  1.0000
  C   C144      1.0  0.47582  0.8916599999999999  0.6078  1.0000
  C   C145      1.0  0.44412  0.8519499999999999  0.50301  1.0000
  C   C146      1.0  0.4328199999999999  0.79693  0.54888  1.0000
  C   C147      1.0  0.45197  0.82132  0.6174999999999999  1.0000
  C   C148      1.0  0.05033  0.7853  0.81626  1.0000
  C   C149      1.0  0.05047  0.82336  0.7518  1.0000
  C   C150      1.0  0.05162  0.78924  0.68778  1.0000
  C   C151      1.0  0.02424  0.8916399999999999  0.89221  1.0000
  C   C152      1.0  0.05597  0.8519100000000001  0.99699  1.0000
  C   C153      1.0  0.06721  0.79687  0.95111  1.0000
  C   C154      1.0  0.0481  0.8213  0.8824899999999999  1.0000
  C   C155      1.0  0.44969  0.71465  0.81629  1.0000
  C   C156      1.0  0.44955999999999996  0.67661  0.75184  1.0000
  C   C157      1.0  0.4484199999999999  0.71073  0.68782  1.0000
  C   C158      1.0  0.47583  0.60832  0.89224  1.0000
  C   C159      1.0  0.4440799999999999  0.64806  0.99699  1.0000
  C   C160      1.0  0.43283  0.70307  0.95113  1.0000
  C   C161      1.0  0.45197  0.67866  0.8825299999999999  1.0000
  C   C162      1.0  0.05029  0.71464  0.6837099999999999  1.0000
  C   C163      1.0  0.05047  0.67658  0.7481599999999999  1.0000
  C   C164      1.0  0.051599999999999986  0.71069  0.81218  1.0000
  C   C165      1.0  0.02416  0.60832  0.60774  1.0000
  C   C166      1.0  0.05591999999999999  0.64803  0.50298  1.0000
  C   C167      1.0  0.06715999999999998  0.70307  0.54885  1.0000
  C   C168      1.0  0.04807  0.67864  0.6174699999999999  1.0000
  N   N1        1.0  0.46053  0.52824  0.09003  1.0000
  N   N2        1.0  0.03955  0.9717100000000001  0.08999999999999998  1.0000
  N   N3        1.0  0.03949  0.52822  0.40996999999999995  1.0000
  N   N4        1.0  0.46053999999999995  0.9717500000000001  0.41001  1.0000
  N   N5        1.0  0.09  0.46049  0.52823  1.0000
  N   N6        1.0  0.09007  0.03947  0.97174  1.0000
  N   N7        1.0  0.4100099999999999  0.03949  0.52826  1.0000
  N   N8        1.0  0.41  0.46052999999999994  0.9718  1.0000
  N   N9        1.0  0.52826  0.09001  0.46052999999999994  1.0000
  N   N10       1.0  0.9718299999999999  0.08998  0.03947  1.0000
  N   N11       1.0  0.52827  0.41  0.03952  1.0000
  N   N12       1.0  0.9717499999999999  0.40997  0.46049  1.0000
  N   N13       1.0  0.53951  0.47176  0.9100100000000001  1.0000
  N   N14       1.0  0.96057  0.028199999999999996  0.90998  1.0000
  N   N15       1.0  0.9604999999999999  0.47173  0.58999  1.0000
  N   N16       1.0  0.53951  0.02824  0.59003  1.0000
  N   N17       1.0  0.90998  0.53948  0.47174999999999995  1.0000
  N   N18       1.0  0.9100499999999999  0.96049  0.028229999999999998  1.0000
  N   N19       1.0  0.59003  0.96051  0.4717799999999999  1.0000
  N   N20       1.0  0.59002  0.5395  0.02828  1.0000
  N   N21       1.0  0.47178  0.90999  0.53951  1.0000
  N   N22       1.0  0.028329999999999998  0.90996  0.96049  1.0000
  N   N23       1.0  0.47179  0.59001  0.96054  1.0000
  N   N24       1.0  0.02823  0.58999  0.53946  1.0000
