data_image0
_chemical_formula_structural       Cu8H104C92N8O32
_chemical_formula_sum              "Cu8 H104 C92 N8 O32"
_cell_length_a       8.6315
_cell_length_b       13.13831
_cell_length_c       28.08518
_cell_angle_alpha    90.0
_cell_angle_beta     90.0
_cell_angle_gamma    90.0

_symmetry_space_group_name_H-M    'P 1'
_symmetry_Int_Tables_number       1

loop_
  _symmetry_equiv_pos_as_xyz
  'x,y,z'

loop_
  _atom_site_type_symbol
  _atom_site_label
  _atom_site_symmetry_multiplicity
  _atom_site_fract_x
  _atom_site_fract_y
  _atom_site_fract_z
  _atom_site_occupancy
  Cu  Cu1       1.0  0.9508300000000001  0.95503  0.46197  1.0000
  Cu  Cu2       1.0  0.9508300000000001  0.54497  0.03803  1.0000
  Cu  Cu3       1.0  0.54913  0.044969999999999996  0.9619600000000001  1.0000
  Cu  Cu4       1.0  0.54913  0.45503  0.53803  1.0000
  Cu  Cu5       1.0  0.04917  0.044969999999999996  0.53802  1.0000
  Cu  Cu6       1.0  0.04917  0.45503  0.96197  1.0000
  Cu  Cu7       1.0  0.45086  0.95503  0.03803  1.0000
  Cu  Cu8       1.0  0.45086  0.54497  0.46196  1.0000
  H   H1        1.0  0.13032  0.73307  0.59609  1.0000
  H   H2        1.0  0.22719  0.70752  0.54194  1.0000
  H   H3        1.0  0.89141  0.6430299999999999  0.56381  1.0000
  H   H4        1.0  0.98543  0.62929  0.50848  1.0000
  H   H5        1.0  0.99649  0.46964  0.55586  1.0000
  H   H6        1.0  0.09306  0.53229  0.60304  1.0000
  H   H7        1.0  0.79868  0.74721  0.4345400000000001  1.0000
  H   H8        1.0  0.61471  0.6802199999999999  0.37452  1.0000
  H   H9        1.0  0.64611  0.97037  0.3026  1.0000
  H   H10       1.0  0.831  0.02539  0.36635  1.0000
  H   H11       1.0  0.43745  0.7200099999999999  0.30604  1.0000
  H   H12       1.0  0.4307  0.84495  0.28295  1.0000
  H   H13       1.0  0.68342  0.68739  0.26064  1.0000
  H   H14       1.0  0.13032  0.76693  0.90391  1.0000
  H   H15       1.0  0.22719  0.79248  0.95805  1.0000
  H   H16       1.0  0.89141  0.85697  0.93619  1.0000
  H   H17       1.0  0.98543  0.87071  0.99151  1.0000
  H   H18       1.0  0.99649  0.03035  0.94413  1.0000
  H   H19       1.0  0.09306  0.9677099999999998  0.8969500000000001  1.0000
  H   H20       1.0  0.79868  0.75279  0.06546  1.0000
  H   H21       1.0  0.61471  0.8197899999999999  0.12548  1.0000
  H   H22       1.0  0.64611  0.52963  0.1974  1.0000
  H   H23       1.0  0.831  0.47461  0.13365  1.0000
  H   H24       1.0  0.43745  0.7799999999999999  0.19396  1.0000
  H   H25       1.0  0.4307  0.6550599999999999  0.21705  1.0000
  H   H26       1.0  0.68342  0.81262  0.23936  1.0000
  H   H27       1.0  0.36967  0.26692  0.09608  1.0000
  H   H28       1.0  0.2728  0.29251  0.04194  1.0000
  H   H29       1.0  0.60858  0.35695999999999994  0.0638  1.0000
  H   H30       1.0  0.51458  0.3707  0.00848  1.0000
  H   H31       1.0  0.50353  0.53034  0.05586  1.0000
  H   H32       1.0  0.40689  0.4677  0.10303  1.0000
  H   H33       1.0  0.7013100000000002  0.25279  0.93454  1.0000
  H   H34       1.0  0.88528  0.31979  0.87452  1.0000
  H   H35       1.0  0.85388  0.02963  0.8026  1.0000
  H   H36       1.0  0.66899  0.9746099999999998  0.86634  1.0000
  H   H37       1.0  0.06255  0.27999  0.8060400000000001  1.0000
  H   H38       1.0  0.06929  0.15505  0.7829400000000001  1.0000
  H   H39       1.0  0.8165700000000002  0.31260999999999994  0.7606400000000001  1.0000
  H   H40       1.0  0.36967  0.23308  0.40392  1.0000
  H   H41       1.0  0.2728  0.20749  0.45806  1.0000
  H   H42       1.0  0.60858  0.14304  0.4362  1.0000
  H   H43       1.0  0.51458  0.1293  0.49151  1.0000
  H   H44       1.0  0.50353  0.96966  0.44414000000000003  1.0000
  H   H45       1.0  0.40689  0.0323  0.39696000000000004  1.0000
  H   H46       1.0  0.7013100000000002  0.24720999999999999  0.56546  1.0000
  H   H47       1.0  0.88528  0.18021  0.62548  1.0000
  H   H48       1.0  0.85388  0.47036999999999995  0.6974  1.0000
  H   H49       1.0  0.66899  0.52539  0.63365  1.0000
  H   H50       1.0  0.06255  0.22  0.69396  1.0000
  H   H51       1.0  0.06929  0.34494  0.71705  1.0000
  H   H52       1.0  0.8165700000000002  0.18738  0.73936  1.0000
  H   H53       1.0  0.86967  0.26693  0.40391  1.0000
  H   H54       1.0  0.7728100000000002  0.29248  0.45805  1.0000
  H   H55       1.0  0.10858000000000001  0.35697  0.43619  1.0000
  H   H56       1.0  0.01457  0.3707  0.49151  1.0000
  H   H57       1.0  0.003510000000000001  0.53035  0.44413  1.0000
  H   H58       1.0  0.9069400000000002  0.46771  0.39695  1.0000
  H   H59       1.0  0.20131  0.25279  0.56546  1.0000
  H   H60       1.0  0.3852800000000001  0.31978  0.62548  1.0000
  H   H61       1.0  0.35389  0.02963  0.6974  1.0000
  H   H62       1.0  0.16899  0.9746099999999998  0.63365  1.0000
  H   H63       1.0  0.56255  0.27999  0.69396  1.0000
  H   H64       1.0  0.5692900000000001  0.15505  0.71705  1.0000
  H   H65       1.0  0.31657000000000013  0.31260999999999994  0.73936  1.0000
  H   H66       1.0  0.86967  0.23307  0.09609  1.0000
  H   H67       1.0  0.7728100000000002  0.20752  0.04195000000000001  1.0000
  H   H68       1.0  0.10858000000000001  0.14303  0.06381  1.0000
  H   H69       1.0  0.01457  0.1293  0.00849  1.0000
  H   H70       1.0  0.003510000000000001  0.96965  0.05587000000000001  1.0000
  H   H71       1.0  0.9069400000000002  0.03229  0.10305000000000002  1.0000
  H   H72       1.0  0.20131  0.24720999999999999  0.93454  1.0000
  H   H73       1.0  0.3852800000000001  0.18021  0.87452  1.0000
  H   H74       1.0  0.35389  0.47036999999999995  0.8026  1.0000
  H   H75       1.0  0.16899  0.52539  0.86634  1.0000
  H   H76       1.0  0.56255  0.22  0.8060400000000001  1.0000
  H   H77       1.0  0.5692900000000001  0.34494  0.7829400000000001  1.0000
  H   H78       1.0  0.31657000000000013  0.18738  0.7606400000000001  1.0000
  H   H79       1.0  0.6303300000000001  0.73308  0.9039200000000001  1.0000
  H   H80       1.0  0.7272  0.70748  0.9580600000000001  1.0000
  H   H81       1.0  0.3914100000000001  0.6430399999999998  0.93619  1.0000
  H   H82       1.0  0.4854200000000001  0.6293  0.99151  1.0000
  H   H83       1.0  0.49648  0.46964999999999996  0.94414  1.0000
  H   H84       1.0  0.59312  0.5323  0.89696  1.0000
  H   H85       1.0  0.29869  0.74721  0.06546  1.0000
  H   H86       1.0  0.11472  0.68021  0.12548  1.0000
  H   H87       1.0  0.14611  0.97037  0.1974  1.0000
  H   H88       1.0  0.33101000000000014  0.02539  0.13365  1.0000
  H   H89       1.0  0.9374500000000001  0.7200099999999999  0.19396  1.0000
  H   H90       1.0  0.93071  0.84495  0.21705  1.0000
  H   H91       1.0  0.18342000000000003  0.68739  0.23936  1.0000
  H   H92       1.0  0.6303300000000001  0.76692  0.59608  1.0000
  H   H93       1.0  0.7272  0.7925099999999999  0.54193  1.0000
  H   H94       1.0  0.3914100000000001  0.85696  0.5638  1.0000
  H   H95       1.0  0.4854200000000001  0.8707  0.50848  1.0000
  H   H96       1.0  0.49648  0.03034  0.55586  1.0000
  H   H97       1.0  0.59312  0.9676999999999999  0.60303  1.0000
  H   H98       1.0  0.29869  0.75279  0.4345400000000001  1.0000
  H   H99       1.0  0.11472  0.8197899999999999  0.37452  1.0000
  H   H100      1.0  0.14611  0.52963  0.3026  1.0000
  H   H101      1.0  0.33101000000000014  0.47461  0.36635  1.0000
  H   H102      1.0  0.9374500000000001  0.7799999999999999  0.30604  1.0000
  H   H103      1.0  0.93071  0.6550599999999999  0.28295  1.0000
  H   H104      1.0  0.18342000000000003  0.81261  0.26064  1.0000
  C   C1        1.0  0.06294  0.82408  0.53656  1.0000
  C   C2        1.0  0.11255000000000003  0.72313  0.5577  1.0000
  C   C3        1.0  0.005320000000000002  0.63298  0.54696  1.0000
  C   C4        1.0  0.07623000000000003  0.53254  0.56433  1.0000
  C   C5        1.0  0.23202000000000003  0.51009  0.54134  1.0000
  C   C6        1.0  0.76331  0.7941  0.40449  1.0000
  C   C7        1.0  0.6595200000000002  0.7572199999999999  0.37059  1.0000
  C   C8        1.0  0.6144800000000002  0.81989  0.33275  1.0000
  C   C9        1.0  0.6779800000000002  0.9181199999999999  0.33106  1.0000
  C   C10       1.0  0.7815300000000002  0.94917  0.36604  1.0000
  C   C11       1.0  0.50972  0.78328  0.29344000000000003  1.0000
  C   C12       1.0  0.06294  0.6759199999999999  0.96343  1.0000
  C   C13       1.0  0.11255000000000003  0.77687  0.9423  1.0000
  C   C14       1.0  0.005320000000000002  0.86702  0.95303  1.0000
  C   C15       1.0  0.07623000000000003  0.96746  0.93566  1.0000
  C   C16       1.0  0.23202000000000003  0.9899  0.95866  1.0000
  C   C17       1.0  0.76331  0.7058999999999999  0.09551  1.0000
  C   C18       1.0  0.6595200000000002  0.74279  0.1294  1.0000
  C   C19       1.0  0.6144800000000002  0.68012  0.16725  1.0000
  C   C20       1.0  0.6779800000000002  0.58188  0.16894  1.0000
  C   C21       1.0  0.7815300000000002  0.55083  0.13396  1.0000
  C   C22       1.0  0.50972  0.71672  0.20656  1.0000
  C   C23       1.0  0.43713000000000013  0.17592  0.03657  1.0000
  C   C24       1.0  0.38744  0.27689  0.0577  1.0000
  C   C25       1.0  0.49468000000000006  0.36703  0.04696000000000001  1.0000
  C   C26       1.0  0.4237500000000001  0.46746  0.06432  1.0000
  C   C27       1.0  0.26798  0.48991  0.04134  1.0000
  C   C28       1.0  0.73668  0.2059  0.90449  1.0000
  C   C29       1.0  0.8404700000000003  0.24279  0.87059  1.0000
  C   C30       1.0  0.8855100000000002  0.18011  0.83275  1.0000
  C   C31       1.0  0.82202  0.08188  0.83105  1.0000
  C   C32       1.0  0.71847  0.05082  0.86604  1.0000
  C   C33       1.0  0.99028  0.21672  0.79344  1.0000
  C   C34       1.0  0.43713000000000013  0.32406999999999997  0.46342  1.0000
  C   C35       1.0  0.38744  0.22311  0.44230000000000014  1.0000
  C   C36       1.0  0.49468000000000006  0.13296  0.45303  1.0000
  C   C37       1.0  0.4237500000000001  0.03254  0.43567  1.0000
  C   C38       1.0  0.26798  0.01009  0.45866000000000007  1.0000
  C   C39       1.0  0.73668  0.2941  0.5955  1.0000
  C   C40       1.0  0.8404700000000003  0.25721  0.6294000000000001  1.0000
  C   C41       1.0  0.8855100000000002  0.31988  0.66725  1.0000
  C   C42       1.0  0.82202  0.41812  0.66894  1.0000
  C   C43       1.0  0.71847  0.44917  0.63395  1.0000
  C   C44       1.0  0.99028  0.28328  0.70656  1.0000
  C   C45       1.0  0.9370600000000001  0.17592  0.46343000000000006  1.0000
  C   C46       1.0  0.8874400000000001  0.27687  0.44230000000000014  1.0000
  C   C47       1.0  0.9946800000000001  0.36702  0.45303  1.0000
  C   C48       1.0  0.9237600000000001  0.46746  0.43566  1.0000
  C   C49       1.0  0.7679900000000001  0.48991  0.45866000000000007  1.0000
  C   C50       1.0  0.23668  0.2059  0.5955  1.0000
  C   C51       1.0  0.34047  0.24278  0.6294000000000001  1.0000
  C   C52       1.0  0.3855200000000001  0.18011  0.66725  1.0000
  C   C53       1.0  0.32202000000000003  0.08188  0.66894  1.0000
  C   C54       1.0  0.21847000000000005  0.05082  0.63395  1.0000
  C   C55       1.0  0.49028  0.21672  0.70656  1.0000
  C   C56       1.0  0.9370600000000001  0.3240799999999999  0.03656  1.0000
  C   C57       1.0  0.8874400000000001  0.22313  0.0577  1.0000
  C   C58       1.0  0.9946800000000001  0.13298  0.04697  1.0000
  C   C59       1.0  0.9237600000000001  0.03254  0.06433  1.0000
  C   C60       1.0  0.7679900000000001  0.01009  0.04134  1.0000
  C   C61       1.0  0.23668  0.2941  0.90449  1.0000
  C   C62       1.0  0.34047  0.25721  0.87059  1.0000
  C   C63       1.0  0.3855200000000001  0.31988  0.83275  1.0000
  C   C64       1.0  0.32202000000000003  0.41812  0.83105  1.0000
  C   C65       1.0  0.21847000000000005  0.44917  0.86604  1.0000
  C   C66       1.0  0.49028  0.28328  0.79344  1.0000
  C   C67       1.0  0.56287  0.82407  0.96343  1.0000
  C   C68       1.0  0.61256  0.72311  0.9423  1.0000
  C   C69       1.0  0.50532  0.63296  0.95303  1.0000
  C   C70       1.0  0.57624  0.53254  0.93567  1.0000
  C   C71       1.0  0.73203  0.51009  0.95866  1.0000
  C   C72       1.0  0.2633200000000001  0.7941  0.09551  1.0000
  C   C73       1.0  0.15953  0.7572099999999999  0.1294  1.0000
  C   C74       1.0  0.11449  0.81988  0.16725  1.0000
  C   C75       1.0  0.17798  0.9181199999999999  0.16894  1.0000
  C   C76       1.0  0.28153000000000006  0.94918  0.13396  1.0000
  C   C77       1.0  0.00972  0.78328  0.20656  1.0000
  C   C78       1.0  0.56287  0.67593  0.53657  1.0000
  C   C79       1.0  0.61256  0.77689  0.55769  1.0000
  C   C80       1.0  0.50532  0.86704  0.54696  1.0000
  C   C81       1.0  0.57624  0.96746  0.56432  1.0000
  C   C82       1.0  0.73203  0.98991  0.54133  1.0000
  C   C83       1.0  0.2633200000000001  0.7058999999999999  0.40449  1.0000
  C   C84       1.0  0.15953  0.74279  0.37059  1.0000
  C   C85       1.0  0.11449  0.68012  0.33275  1.0000
  C   C86       1.0  0.17798  0.58188  0.33106  1.0000
  C   C87       1.0  0.28153000000000006  0.55083  0.36604  1.0000
  C   C88       1.0  0.00972  0.71672  0.29344000000000003  1.0000
  C   C89       1.0  0.6064500000000003  0.7499999999999999  0.25  1.0000
  C   C90       1.0  0.89355  0.25  0.75  1.0000
  C   C91       1.0  0.39355  0.25  0.75  1.0000
  C   C92       1.0  0.10645  0.7499999999999999  0.25  1.0000
  N   N1        1.0  0.8248  0.8882999999999999  0.40236  1.0000
  N   N2        1.0  0.8248  0.6117  0.09764000000000002  1.0000
  N   N3        1.0  0.6752  0.11169999999999998  0.9023600000000002  1.0000
  N   N4        1.0  0.6752  0.3883  0.59764  1.0000
  N   N5        1.0  0.17519000000000007  0.11169999999999998  0.59764  1.0000
  N   N6        1.0  0.17519000000000007  0.3883  0.90235  1.0000
  N   N7        1.0  0.3248  0.8882999999999999  0.09764000000000002  1.0000
  N   N8        1.0  0.3248  0.6117  0.40236  1.0000
  O   O1        1.0  0.006390000000000002  0.8234  0.49458  1.0000
  O   O2        1.0  0.08593  0.90323  0.5621  1.0000
  O   O3        1.0  0.2496  0.54017  0.49853  1.0000
  O   O4        1.0  0.33433000000000007  0.46451999999999993  0.56644  1.0000
  O   O5        1.0  0.006390000000000002  0.6766  0.00542  1.0000
  O   O6        1.0  0.08593  0.59677  0.93789  1.0000
  O   O7        1.0  0.2496  0.9598399999999998  0.00147  1.0000
  O   O8        1.0  0.33433000000000007  0.03548  0.93355  1.0000
  O   O9        1.0  0.4936300000000001  0.1766  0.99459  1.0000
  O   O10       1.0  0.41416  0.09677  0.06211  1.0000
  O   O11       1.0  0.25039  0.45985  0.99851  1.0000
  O   O12       1.0  0.16568  0.5355  0.06644  1.0000
  O   O13       1.0  0.4936300000000001  0.3234  0.50541  1.0000
  O   O14       1.0  0.41416  0.40323  0.4378900000000001  1.0000
  O   O15       1.0  0.25039  0.04015  0.50148  1.0000
  O   O16       1.0  0.16568  0.9645  0.43356  1.0000
  O   O17       1.0  0.9936100000000001  0.1766  0.50541  1.0000
  O   O18       1.0  0.9140700000000003  0.09675999999999998  0.4378900000000001  1.0000
  O   O19       1.0  0.75039  0.45983  0.50147  1.0000
  O   O20       1.0  0.66567  0.53548  0.43356  1.0000
  O   O21       1.0  0.9936100000000001  0.32339  0.99458  1.0000
  O   O22       1.0  0.9140700000000003  0.40323999999999993  0.06211  1.0000
  O   O23       1.0  0.75039  0.04016  0.99852  1.0000
  O   O24       1.0  0.66567  0.96452  0.06644  1.0000
  O   O25       1.0  0.50637  0.82341  0.005410000000000001  1.0000
  O   O26       1.0  0.5858400000000001  0.90323  0.93789  1.0000
  O   O27       1.0  0.7496  0.54015  0.0014800000000000002  1.0000
  O   O28       1.0  0.83432  0.4645  0.93356  1.0000
  O   O29       1.0  0.50637  0.6766  0.49459  1.0000
  O   O30       1.0  0.5858400000000001  0.59677  0.56211  1.0000
  O   O31       1.0  0.7496  0.9598499999999999  0.49852  1.0000
  O   O32       1.0  0.83432  0.0355  0.56644  1.0000
