data_image0
_chemical_formula_structural       Cd8H80C112S4N8O44
_chemical_formula_sum              "Cd8 H80 C112 S4 N8 O44"
_cell_length_a       8.76908
_cell_length_b       18.6477
_cell_length_c       20.2252
_cell_angle_alpha    90.004
_cell_angle_beta     90.0886
_cell_angle_gamma    90.00313

_symmetry_space_group_name_H-M    'P 1'
_symmetry_Int_Tables_number       1

loop_
  _symmetry_equiv_pos_as_xyz
  'x,y,z'

loop_
  _atom_site_type_symbol
  _atom_site_label
  _atom_site_symmetry_multiplicity
  _atom_site_fract_x
  _atom_site_fract_y
  _atom_site_fract_z
  _atom_site_occupancy
  Cd  Cd1       1.0  0.8635399999999999  0.2659  0.64725  1.0000
  Cd  Cd2       1.0  0.68131  0.7160299999999998  0.11339  1.0000
  Cd  Cd3       1.0  0.1361  0.7659299999999999  0.3528  1.0000
  Cd  Cd4       1.0  0.3189  0.21615  0.88661  1.0000
  Cd  Cd5       1.0  0.63388  0.26547  0.146  1.0000
  Cd  Cd6       1.0  0.819  0.7163399999999999  0.61182  1.0000
  Cd  Cd7       1.0  0.36633  0.76537  0.85408  1.0000
  Cd  Cd8       1.0  0.18093  0.21658999999999995  0.38814  1.0000
  H   H1        1.0  0.67694  0.3925999999999999  0.29431  1.0000
  H   H2        1.0  0.76409  0.59094  0.46856  1.0000
  H   H3        1.0  0.75778  0.9064199999999999  0.43258  1.0000
  H   H4        1.0  0.60788  0.92012  0.5371  1.0000
  H   H5        1.0  0.64534  0.028839999999999998  0.60717  1.0000
  H   H6        1.0  0.7518  0.08914  0.31881000000000004  1.0000
  H   H7        1.0  0.57588  0.0745  0.2224  1.0000
  H   H8        1.0  0.57849  0.9604499999999999  0.15763  1.0000
  H   H9        1.0  0.93863  0.28757999999999995  0.50403  1.0000
  H   H10       1.0  0.93809  0.3799399999999999  0.41551  1.0000
  H   H11       1.0  0.6142099999999999  0.49998  0.53181  1.0000
  H   H12       1.0  0.63426  0.40395  0.6185  1.0000
  H   H13       1.0  0.88338  0.5147199999999998  0.39578  1.0000
  H   H14       1.0  0.55329  0.47104999999999997  0.36936  1.0000
  H   H15       1.0  0.85314  0.4820199999999999  0.24237000000000003  1.0000
  H   H16       1.0  0.86379  0.58054  0.15768  1.0000
  H   H17       1.0  0.51977  0.69309  0.25234  1.0000
  H   H18       1.0  0.49838999999999994  0.6020899999999998  0.34061  1.0000
  H   H19       1.0  0.9898  0.6979  0.04299  1.0000
  H   H20       1.0  0.98128  0.73877  0.11081  1.0000
  H   H21       1.0  0.32304  0.89269  0.70563  1.0000
  H   H22       1.0  0.23576000000000003  0.09101999999999998  0.53137  1.0000
  H   H23       1.0  0.24224999999999997  0.40641999999999995  0.56742  1.0000
  H   H24       1.0  0.39214  0.42008  0.4629  1.0000
  H   H25       1.0  0.35472  0.52883  0.39283  1.0000
  H   H26       1.0  0.24816999999999997  0.58913  0.68119  1.0000
  H   H27       1.0  0.42411  0.57448  0.7776  1.0000
  H   H28       1.0  0.42138999999999993  0.46042999999999995  0.84234  1.0000
  H   H29       1.0  0.06137000000000001  0.78759  0.4959700000000001  1.0000
  H   H30       1.0  0.06191  0.87995  0.5845  1.0000
  H   H31       1.0  0.38583  5.814133507635259e-21  0.46817000000000003  1.0000
  H   H32       1.0  0.36573  0.90394  0.38149  1.0000
  H   H33       1.0  0.11672999999999996  0.014759999999999999  0.6042  1.0000
  H   H34       1.0  0.44677  0.97107  0.63064  1.0000
  H   H35       1.0  0.14689999999999998  0.9820599999999999  0.75763  1.0000
  H   H36       1.0  0.13625  0.08057  0.8423300000000001  1.0000
  H   H37       1.0  0.48028999999999994  0.19312  0.74765  1.0000
  H   H38       1.0  0.50162  0.10209999999999997  0.65939  1.0000
  H   H39       1.0  0.00997  0.19807999999999995  0.9570100000000001  1.0000
  H   H40       1.0  0.01824  0.23937  0.88907  1.0000
  H   H41       1.0  0.82001  0.39407  0.79452  1.0000
  H   H42       1.0  0.7366  0.59136  0.96986  1.0000
  H   H43       1.0  0.74257  0.90477  0.93286  1.0000
  H   H44       1.0  0.89198  0.9194599999999999  0.0376  1.0000
  H   H45       1.0  0.8535099999999998  0.028869999999999996  0.10674000000000002  1.0000
  H   H46       1.0  0.74774  0.08754999999999998  0.81817  1.0000
  H   H47       1.0  0.9232300000000001  0.07376  0.72184  1.0000
  H   H48       1.0  0.92268  0.9594599999999999  0.65726  1.0000
  H   H49       1.0  0.56185  0.28743  0.00224  1.0000
  H   H50       1.0  0.5634099999999999  0.38028  0.9141400000000001  1.0000
  H   H51       1.0  0.88618  0.49960999999999994  0.03215  1.0000
  H   H52       1.0  0.86472  0.40323  0.1184  1.0000
  H   H53       1.0  0.61662  0.51626  0.8965  1.0000
  H   H54       1.0  0.94476  0.47104  0.86848  1.0000
  H   H55       1.0  0.64709  0.48440999999999995  0.74238  1.0000
  H   H56       1.0  0.6390799999999999  0.58184  0.65658  1.0000
  H   H57       1.0  0.9826099999999999  0.6946599999999998  0.75178  1.0000
  H   H58       1.0  0.0011  0.60466  0.84126  1.0000
  H   H59       1.0  0.5086  0.69755  0.53993  1.0000
  H   H60       1.0  0.51397  0.7371299999999997  0.60857  1.0000
  H   H61       1.0  0.17988  0.8940499999999999  0.20553  1.0000
  H   H62       1.0  0.26344  0.09129999999999998  0.03015  1.0000
  H   H63       1.0  0.25744  0.4047799999999999  0.06714  1.0000
  H   H64       1.0  0.10801  0.41943  0.9624  1.0000
  H   H65       1.0  0.14649  0.5288699999999998  0.8932800000000001  1.0000
  H   H66       1.0  0.25225  0.58755  0.18183  1.0000
  H   H67       1.0  0.07677  0.5737599999999999  0.27816  1.0000
  H   H68       1.0  0.07742  0.45945  0.34271  1.0000
  H   H69       1.0  0.43817  0.7874299999999999  0.99777  1.0000
  H   H70       1.0  0.43659  0.8802799999999998  0.08585  1.0000
  H   H71       1.0  0.11384  0.9995999999999999  0.96783  1.0000
  H   H72       1.0  0.13531  0.90321  0.88159  1.0000
  H   H73       1.0  0.3834  0.01627  0.10349  1.0000
  H   H74       1.0  0.05528  0.97102  0.13153  1.0000
  H   H75       1.0  0.35293  0.98441  0.25763  1.0000
  H   H76       1.0  0.36092  0.08185  0.34343  1.0000
  H   H77       1.0  0.0174  0.19464  0.24821  1.0000
  H   H78       1.0  0.99891  0.10466  0.15873  1.0000
  H   H79       1.0  0.49154  0.19765  0.46009000000000005  1.0000
  H   H80       1.0  0.48638  0.23744999999999997  0.39135  1.0000
  C   C1        1.0  0.80923  0.07668  0.54232  1.0000
  C   C2        1.0  0.89038  0.07004  0.48233  1.0000
  C   C3        1.0  0.87044  0.00827  0.44317  1.0000
  C   C4        1.0  0.76882  0.9543  0.46309  1.0000
  C   C5        1.0  0.68637  0.9620299999999999  0.52158  1.0000
  C   C6        1.0  0.70662  0.02285  0.56093  1.0000
  C   C7        1.0  0.99169  0.12864  0.45614  1.0000
  C   C8        1.0  0.8336  0.14114  0.58485  1.0000
  C   C9        1.0  0.85381  0.9849799999999999  0.30658  1.0000
  C   C10       1.0  0.75202  0.04008  0.28963  1.0000
  C   C11       1.0  0.65378  0.0316  0.23593  1.0000
  C   C12       1.0  0.65612  0.96836  0.19890000000000002  1.0000
  C   C13       1.0  0.75946  0.9135799999999998  0.21405  1.0000
  C   C14       1.0  0.8586999999999998  0.9218599999999999  0.26845  1.0000
  C   C15       1.0  0.9564599999999999  0.8612299999999999  0.29243  1.0000
  C   C16       1.0  0.7627999999999999  0.8458199999999999  0.17409  1.0000
  C   C17       1.0  0.86978  0.33587  0.50862  1.0000
  C   C18       1.0  0.86749  0.3874  0.45915999999999996  1.0000
  C   C19       1.0  0.7736  0.44756999999999997  0.46656  1.0000
  C   C20       1.0  0.68701  0.45352999999999993  0.52439  1.0000
  C   C21       1.0  0.69719  0.40019999999999994  0.57227  1.0000
  C   C22       1.0  0.76597  0.50469  0.41331  1.0000
  C   C23       1.0  0.67224  0.4773299999999999  0.35263  1.0000
  C   C24       1.0  0.6764  0.5340799999999999  0.29897  1.0000
  C   C25       1.0  0.77901  0.52851  0.24632  1.0000
  C   C26       1.0  0.78524  0.5828  0.19927000000000003  1.0000
  C   C27       1.0  0.59311  0.64599  0.25219  1.0000
  C   C28       1.0  0.58155  0.59444  0.30144  1.0000
  C   C29       1.0  0.19102  0.57649  0.45773  1.0000
  C   C30       1.0  0.10904  0.5698399999999999  0.51752  1.0000
  C   C31       1.0  0.12948  0.5082199999999999  0.5568  1.0000
  C   C32       1.0  0.23123999999999997  0.45429  0.53692  1.0000
  C   C33       1.0  0.31369  0.46195  0.4784300000000001  1.0000
  C   C34       1.0  0.29364  0.52274  0.4391  1.0000
  C   C35       1.0  0.00811  0.62864  0.54378  1.0000
  C   C36       1.0  0.16649  0.6407099999999998  0.41507000000000005  1.0000
  C   C37       1.0  0.14606  0.48488  0.69339  1.0000
  C   C38       1.0  0.2479  0.5400399999999999  0.71037  1.0000
  C   C39       1.0  0.34618  0.5315399999999998  0.76407  1.0000
  C   C40       1.0  0.34359  0.4682799999999999  0.80107  1.0000
  C   C41       1.0  0.23992999999999998  0.41353  0.78587  1.0000
  C   C42       1.0  0.14085  0.42161  0.73138  1.0000
  C   C43       1.0  0.04378  0.36044  0.70753  1.0000
  C   C44       1.0  0.23702000000000004  0.34581  0.8259  1.0000
  C   C45       1.0  0.13025  0.8359  0.49141  1.0000
  C   C46       1.0  0.13258  0.88749  0.54086  1.0000
  C   C47       1.0  0.22648  0.9477099999999999  0.53345  1.0000
  C   C48       1.0  0.31301999999999996  0.9535499999999999  0.4756  1.0000
  C   C49       1.0  0.30281  0.9001899999999998  0.42771999999999993  1.0000
  C   C50       1.0  0.23415  0.004919999999999998  0.58669  1.0000
  C   C51       1.0  0.32784  0.9775199999999998  0.64737  1.0000
  C   C52       1.0  0.32364  0.03417  0.70105  1.0000
  C   C53       1.0  0.22101  0.02855  0.75369  1.0000
  C   C54       1.0  0.21477  0.08286  0.80073  1.0000
  C   C55       1.0  0.40691999999999995  0.14604  0.74782  1.0000
  C   C56       1.0  0.4185  0.09448999999999999  0.69858  1.0000
  C   C57       1.0  0.68985  0.07583  0.04117  1.0000
  C   C58       1.0  0.60857  0.06848  0.9811900000000001  1.0000
  C   C59       1.0  0.62924  0.0065299999999999985  0.94241  1.0000
  C   C60       1.0  0.73094  0.95283  0.9630300000000002  1.0000
  C   C61       1.0  0.81314  0.9610899999999999  0.02164  1.0000
  C   C62       1.0  0.79258  0.022279999999999994  0.060410000000000005  1.0000
  C   C63       1.0  0.50739  0.12689  0.95444  1.0000
  C   C64       1.0  0.66581  0.14067  0.08319  1.0000
  C   C65       1.0  0.64674  0.9831099999999999  0.80576  1.0000
  C   C66       1.0  0.74779  0.03855  0.78892  1.0000
  C   C67       1.0  0.84615  0.03053  0.73532  1.0000
  C   C68       1.0  0.84496  0.96727  0.69838  1.0000
  C   C69       1.0  0.74282  0.9120999999999999  0.71357  1.0000
  C   C70       1.0  0.64305  0.9199299999999999  0.76766  1.0000
  C   C71       1.0  0.54476  0.8590799999999998  0.7908400000000001  1.0000
  C   C72       1.0  0.74133  0.8442499999999998  0.67391  1.0000
  C   C73       1.0  0.63064  0.33574  0.00728  1.0000
  C   C74       1.0  0.63354  0.38758  0.95806  1.0000
  C   C75       1.0  0.72706  0.4478699999999999  0.9661700000000001  1.0000
  C   C76       1.0  0.81331  0.45324  0.02428  1.0000
  C   C77       1.0  0.8024  0.39967999999999987  0.07191  1.0000
  C   C78       1.0  0.73425  0.50594  0.91365  1.0000
  C   C79       1.0  0.82584  0.47925999999999996  0.85229  1.0000
  C   C80       1.0  0.82327  0.53661  0.79915  1.0000
  C   C81       1.0  0.7214799999999999  0.53081  0.74613  1.0000
  C   C82       1.0  0.71687  0.58448  0.69853  1.0000
  C   C83       1.0  0.90877  0.6477299999999998  0.75179  1.0000
  C   C84       1.0  0.91867  0.59678  0.80171  1.0000
  C   C85       1.0  0.31006  0.5756999999999998  0.9589699999999999  1.0000
  C   C86       1.0  0.39166999999999996  0.56862  0.01891  1.0000
  C   C87       1.0  0.37088  0.50659  0.05759  1.0000
  C   C88       1.0  0.26911  0.45285  0.03697  1.0000
  C   C89       1.0  0.18683  0.46102999999999994  0.97838  1.0000
  C   C90       1.0  0.20732999999999993  0.5222  0.9396299999999999  1.0000
  C   C91       1.0  0.49234999999999995  0.6275099999999998  0.04556  1.0000
  C   C92       1.0  0.3341199999999999  0.6402599999999999  0.9167500000000001  1.0000
  C   C93       1.0  0.35333  0.4830999999999999  0.1942  1.0000
  C   C94       1.0  0.25226  0.5385499999999999  0.21107  1.0000
  C   C95       1.0  0.15385999999999997  0.53054  0.26467  1.0000
  C   C96       1.0  0.15517  0.46729  0.30158  1.0000
  C   C97       1.0  0.25746  0.4122  0.28631  1.0000
  C   C98       1.0  0.35705  0.41985  0.23218  1.0000
  C   C99       1.0  0.45512  0.35880999999999996  0.20912  1.0000
  C   C100      1.0  0.25877  0.34454999999999997  0.32611  1.0000
  C   C101      1.0  0.36934999999999996  0.8357299999999999  0.99272  1.0000
  C   C102      1.0  0.36646  0.8876  0.04193  1.0000
  C   C103      1.0  0.27297  0.94789  0.03382  1.0000
  C   C104      1.0  0.18671  0.9532299999999999  0.9757099999999999  1.0000
  C   C105      1.0  0.1976  0.8996399999999999  0.92809  1.0000
  C   C106      1.0  0.2658  0.005909999999999999  0.08637  1.0000
  C   C107      1.0  0.17422  0.9791299999999998  0.14771  1.0000
  C   C108      1.0  0.17674  0.03653  0.20085  1.0000
  C   C109      1.0  0.27854  0.030799999999999998  0.25388  1.0000
  C   C110      1.0  0.2831  0.08448  0.30149  1.0000
  C   C111      1.0  0.09122  0.14769999999999997  0.24822  1.0000
  C   C112      1.0  0.08137  0.09673  0.19828  1.0000
  S   S1        1.0  0.9880899999999999  0.99646  0.37213  1.0000
  S   S2        1.0  0.01187  0.4964199999999999  0.62784  1.0000
  S   S3        1.0  0.51207  0.9941499999999998  0.8711100000000002  1.0000
  S   S4        1.0  0.48796  0.49416  0.12887  1.0000
  N   N1        1.0  0.69392  0.6408999999999999  0.20197  1.0000
  N   N2        1.0  0.78632  0.3417999999999999  0.56464  1.0000
  N   N3        1.0  0.30605999999999994  0.14098  0.79801  1.0000
  N   N4        1.0  0.21367999999999995  0.8417999999999998  0.43537  1.0000
  N   N5        1.0  0.8091999999999998  0.64222  0.70103  1.0000
  N   N6        1.0  0.71298  0.34144  0.06376  1.0000
  N   N7        1.0  0.19069999999999998  0.14218999999999998  0.29901  1.0000
  N   N8        1.0  0.28696  0.8413699999999998  0.93626  1.0000
  O   O1        1.0  0.93153  0.17754  0.42130000000000006  1.0000
  O   O2        1.0  0.13673  0.12365999999999999  0.46438  1.0000
  O   O3        1.0  0.9476199999999999  0.18121999999999994  0.57221  1.0000
  O   O4        1.0  0.7408299999999998  0.15599999999999994  0.63227  1.0000
  O   O5        1.0  0.89554  0.81762  0.33239  1.0000
  O   O6        1.0  0.09885  0.8579899999999998  0.27667  1.0000
  O   O7        1.0  0.8808  0.8071399999999997  0.17499  1.0000
  O   O8        1.0  0.6406  0.82959  0.14126  1.0000
  O   O9        1.0  0.73545  0.41113  0.33281  1.0000
  O   O10       1.0  0.69602  0.5687  0.43493  1.0000
  O   O11       1.0  0.9478499999999999  0.6952699999999999  0.08743  1.0000
  O   O12       1.0  0.06963999999999998  0.6765599999999998  0.57917  1.0000
  O   O13       1.0  0.86285  0.62509  0.53527  1.0000
  O   O14       1.0  0.051719999999999995  0.6802799999999999  0.42759  1.0000
  O   O15       1.0  0.25932999999999995  0.6556099999999998  0.36773  1.0000
  O   O16       1.0  0.10507  0.31671  0.66779  1.0000
  O   O17       1.0  0.90142  0.35657  0.72356  1.0000
  O   O18       1.0  0.12014  0.30629  0.82492  1.0000
  O   O19       1.0  0.35931  0.33048  0.85896  1.0000
  O   O20       1.0  0.2643  0.91148  0.66728  1.0000
  O   O21       1.0  0.30361  0.06914  0.56525  1.0000
  O   O22       1.0  0.05272  0.19626  0.91269  1.0000
  O   O23       1.0  0.56855  0.175  0.9192000000000001  1.0000
  O   O24       1.0  0.36239  0.12315  0.96286  1.0000
  O   O25       1.0  0.55164  0.1807  0.07043  1.0000
  O   O26       1.0  0.75905  0.15583  0.13044  1.0000
  O   O27       1.0  0.60601  0.81324  0.8285700000000001  1.0000
  O   O28       1.0  0.40091  0.85811  0.77757  1.0000
  O   O29       1.0  0.62623  0.80375  0.67634  1.0000
  O   O30       1.0  0.86228  0.82975  0.6397  1.0000
  O   O31       1.0  0.75825  0.4143099999999999  0.83122  1.0000
  O   O32       1.0  0.80453  0.5696  0.9360700000000001  1.0000
  O   O33       1.0  0.55225  0.6953999999999998  0.58415  1.0000
  O   O34       1.0  0.43095  0.67568  0.08072  1.0000
  O   O35       1.0  0.63749  0.6240899999999999  0.037  1.0000
  O   O36       1.0  0.44877999999999996  0.68003  0.9293500000000001  1.0000
  O   O37       1.0  0.24079999999999996  0.65514  0.86952  1.0000
  O   O38       1.0  0.39402  0.31267  0.17166  1.0000
  O   O39       1.0  0.59904  0.35811  0.22241  1.0000
  O   O40       1.0  0.37329  0.30368  0.32367  1.0000
  O   O41       1.0  0.13789  0.33071999999999996  0.36051  1.0000
  O   O42       1.0  0.2415  0.9140199999999998  0.16867  1.0000
  O   O43       1.0  0.19561  0.06948999999999997  0.06398  1.0000
  O   O44       1.0  0.44726  0.19611999999999993  0.41599  1.0000
