data_image0
_chemical_formula_structural       Cd12H120C96N16O48
_chemical_formula_sum              "Cd12 H120 C96 N16 O48"
_cell_length_a       9.38262
_cell_length_b       16.28871
_cell_length_c       26.03796
_cell_angle_alpha    90.00357
_cell_angle_beta     90.00894
_cell_angle_gamma    90.03976

_space_group_name_H-M_alt    "P 1"
_space_group_IT_number       1

loop_
  _space_group_symop_operation_xyz
  'x, y, z'

loop_
  _atom_site_type_symbol
  _atom_site_label
  _atom_site_symmetry_multiplicity
  _atom_site_fract_x
  _atom_site_fract_y
  _atom_site_fract_z
  _atom_site_occupancy
  Cd  Cd1       1.0  0.02563  0.58584  0.88789  1.0000
  Cd  Cd2       1.0  0.48661  0.02204  0.01824  1.0000
  Cd  Cd3       1.0  0.47621  0.13782  0.75688  1.0000
  Cd  Cd4       1.0  0.47435000000000005  0.08463  0.88701  1.0000
  Cd  Cd5       1.0  0.013790000000000002  0.52206  0.01844  1.0000
  Cd  Cd6       1.0  0.02336  0.63756  0.7571299999999997  1.0000
  Cd  Cd7       1.0  0.9744599999999999  0.41431  0.38761  1.0000
  Cd  Cd8       1.0  0.51352  0.9779  0.51818  1.0000
  Cd  Cd9       1.0  0.52349  0.86204  0.25696  1.0000
  Cd  Cd10      1.0  0.52522  0.91533  0.38706  1.0000
  Cd  Cd11      1.0  0.98848  0.4774599999999999  0.51855  1.0000
  Cd  Cd12      1.0  0.97628  0.36229  0.25711  1.0000
  H   H1        1.0  0.3909  0.38599  0.8895099999999999  1.0000
  H   H2        1.0  0.50738  0.47679  0.9839599999999997  1.0000
  H   H3        1.0  0.5191  0.50945  0.9191499999999999  1.0000
  H   H4        1.0  0.66549  0.38827  0.89743  1.0000
  H   H5        1.0  0.74768  0.29028  0.96431  1.0000
  H   H6        1.0  0.64901  0.34279  0.01183  1.0000
  H   H7        1.0  0.52821  0.25253  0.9181799999999998  1.0000
  H   H8        1.0  0.29016  0.2849  0.9515  1.0000
  H   H9        1.0  0.36611  0.34063  0.003269999999999999  1.0000
  H   H10       1.0  0.64871  0.77385  0.87746  1.0000
  H   H11       1.0  0.51319  0.6923  0.78312  1.0000
  H   H12       1.0  0.50722  0.65387  0.8468299999999997  1.0000
  H   H13       1.0  0.37404  0.77702  0.87543  1.0000
  H   H14       1.0  0.29488  0.88385  0.81415  1.0000
  H   H15       1.0  0.37848  0.83089  0.76276  1.0000
  H   H16       1.0  0.52544  0.90816  0.8560999999999999  1.0000
  H   H17       1.0  0.75361  0.87256  0.8132  1.0000
  H   H18       1.0  0.66055  0.82276  0.76341  1.0000
  H   H19       1.0  0.53969  0.009209999999999998  0.65771  1.0000
  H   H20       1.0  0.38991  0.0674  0.63537  1.0000
  H   H21       1.0  0.39566  0.21792  0.64373  1.0000
  H   H22       1.0  0.54898  0.26584  0.6715899999999999  1.0000
  H   H23       1.0  0.74292  0.07475  0.69365  1.0000
  H   H24       1.0  0.74893  0.18367  0.70056  1.0000
  H   H25       1.0  0.78339  0.22606999999999994  0.56402  1.0000
  H   H26       1.0  0.76914  0.2696  0.62646  1.0000
  H   H27       1.0  0.77721  0.0773  0.55453  1.0000
  H   H28       1.0  0.76277  0.01424  0.61073  1.0000
  H   H29       1.0  0.41271  0.15577  0.56011  1.0000
  H   H30       1.0  0.57864  0.15900999999999996  0.5261  1.0000
  H   H31       1.0  0.10978  0.8845199999999998  0.8897799999999998  1.0000
  H   H32       1.0  0.9954399999999999  0.97695  0.9839299999999999  1.0000
  H   H33       1.0  0.9854100000000001  0.00943  0.9190299999999998  1.0000
  H   H34       1.0  0.83588  0.88949  0.89724  1.0000
  H   H35       1.0  0.75044  0.79229  0.96404  1.0000
  H   H36       1.0  0.84955  0.84435  0.01173  1.0000
  H   H37       1.0  0.9695400000000001  0.75272  0.9184899999999999  1.0000
  H   H38       1.0  0.20786  0.78335  0.95202  1.0000
  H   H39       1.0  0.13325  0.83992  0.00368  1.0000
  H   H40       1.0  0.85028  0.27407  0.87738  1.0000
  H   H41       1.0  0.9864100000000001  0.19263999999999995  0.78317  1.0000
  H   H42       1.0  0.99152  0.15395  0.8468499999999999  1.0000
  H   H43       1.0  0.12397  0.27759  0.87583  1.0000
  H   H44       1.0  0.20499  0.38381  0.81428  1.0000
  H   H45       1.0  0.12139  0.33073  0.76294  1.0000
  H   H46       1.0  0.97413  0.40723  0.8565  1.0000
  H   H47       1.0  0.74609  0.37262  0.8130499999999998  1.0000
  H   H48       1.0  0.83914  0.3228  0.76332  1.0000
  H   H49       1.0  0.9600200000000001  0.5092  0.65753  1.0000
  H   H50       1.0  0.10957  0.56761  0.6351599999999998  1.0000
  H   H51       1.0  0.10412  0.71791  0.64367  1.0000
  H   H52       1.0  0.9508  0.76581  0.67143  1.0000
  H   H53       1.0  0.75663  0.57454  0.69339  1.0000
  H   H54       1.0  0.75074  0.68344  0.70046  1.0000
  H   H55       1.0  0.71632  0.72599  0.56387  1.0000
  H   H56       1.0  0.73081  0.76959  0.62625  1.0000
  H   H57       1.0  0.72218  0.57724  0.55434  1.0000
  H   H58       1.0  0.73643  0.51422  0.61052  1.0000
  H   H59       1.0  0.08691  0.65568  0.55995  1.0000
  H   H60       1.0  0.9210999999999999  0.65896  0.5259  1.0000
  H   H61       1.0  0.4604  0.9908  0.15774  1.0000
  H   H62       1.0  0.61017  0.93258  0.13541  1.0000
  H   H63       1.0  0.60443  0.78209  0.14378  1.0000
  H   H64       1.0  0.45112  0.73417  0.17163  1.0000
  H   H65       1.0  0.25718  0.92525  0.19367999999999996  1.0000
  H   H66       1.0  0.2512  0.81632  0.20057999999999995  1.0000
  H   H67       1.0  0.21665000000000004  0.77397  0.06404  1.0000
  H   H68       1.0  0.23088999999999998  0.73038  0.12646  1.0000
  H   H69       1.0  0.22278000000000003  0.9227  0.05456  1.0000
  H   H70       1.0  0.2373  0.98576  0.11075999999999998  1.0000
  H   H71       1.0  0.58731  0.84423  0.06015  1.0000
  H   H72       1.0  0.42134  0.84099  0.02613  1.0000
  H   H73       1.0  0.60942  0.61391  0.38953  1.0000
  H   H74       1.0  0.49293999999999993  0.5232  0.48396999999999996  1.0000
  H   H75       1.0  0.48099  0.4905599999999999  0.41916  1.0000
  H   H76       1.0  0.33396  0.61137  0.39748  1.0000
  H   H77       1.0  0.2526  0.70974  0.46418  1.0000
  H   H78       1.0  0.35144  0.65741  0.51177  1.0000
  H   H79       1.0  0.4721099999999999  0.7473  0.41800999999999994  1.0000
  H   H80       1.0  0.71012  0.71507  0.4514599999999999  1.0000
  H   H81       1.0  0.63403  0.65941  0.50329  1.0000
  H   H82       1.0  0.35097  0.2263  0.37745  1.0000
  H   H83       1.0  0.4871  0.30766  0.2832  1.0000
  H   H84       1.0  0.49283999999999994  0.34616  0.3469  1.0000
  H   H85       1.0  0.62556  0.22277  0.3756  1.0000
  H   H86       1.0  0.7049  0.11610999999999998  0.31419  1.0000
  H   H87       1.0  0.62135  0.16924  0.26285  1.0000
  H   H88       1.0  0.47431  0.09213  0.3561999999999999  1.0000
  H   H89       1.0  0.24619  0.12763  0.31321  1.0000
  H   H90       1.0  0.33938  0.17736  0.26343  1.0000
  H   H91       1.0  0.04002  0.49078  0.15754  1.0000
  H   H92       1.0  0.89047  0.43239  0.13512  1.0000
  H   H93       1.0  0.89592  0.28204  0.14361  1.0000
  H   H94       1.0  0.04923  0.23415  0.17141  1.0000
  H   H95       1.0  0.24339000000000002  0.42544  0.19339  1.0000
  H   H96       1.0  0.24931  0.31654  0.20048  1.0000
  H   H97       1.0  0.28369  0.274  0.06386  1.0000
  H   H98       1.0  0.26925  0.23037  0.12624  1.0000
  H   H99       1.0  0.27791  0.42267  0.054369999999999995  1.0000
  H   H100      1.0  0.26364  0.48574  0.11054999999999998  1.0000
  H   H101      1.0  0.9130699999999999  0.3443  0.059939999999999986  1.0000
  H   H102      1.0  0.07882  0.34097  0.025889999999999993  1.0000
  H   H103      1.0  0.89024  0.11544  0.38977999999999996  1.0000
  H   H104      1.0  0.00432  0.02302  0.48394  1.0000
  H   H105      1.0  0.01461  0.9906199999999998  0.41904  1.0000
  H   H106      1.0  0.16407  0.11052  0.3973499999999999  1.0000
  H   H107      1.0  0.24964999999999998  0.20773  0.46409999999999996  1.0000
  H   H108      1.0  0.1503  0.15585  0.51184  1.0000
  H   H109      1.0  0.030520000000000002  0.24699999999999997  0.41841  1.0000
  H   H110      1.0  0.79215  0.21668999999999997  0.45198  1.0000
  H   H111      1.0  0.8668999999999999  0.16015  0.50366  1.0000
  H   H112      1.0  0.14958  0.72585  0.3774  1.0000
  H   H113      1.0  0.01384  0.8073299999999998  0.28316  1.0000
  H   H114      1.0  0.00847  0.84597  0.34685  1.0000
  H   H115      1.0  0.87594  0.7223599999999998  0.37575  1.0000
  H   H116      1.0  0.79506  0.6161  0.31423  1.0000
  H   H117      1.0  0.8785699999999999  0.66917  0.26287  1.0000
  H   H118      1.0  0.02587  0.59249  0.3564  1.0000
  H   H119      1.0  0.25394  0.6273599999999998  0.31308  1.0000
  H   H120      1.0  0.161  0.67729  0.26336  1.0000
  C   C1        1.0  0.25053  0.4549099999999999  0.93749  1.0000
  C   C2        1.0  0.38416  0.40213  0.93048  1.0000
  C   C3        1.0  0.51573  0.45505  0.94408  1.0000
  C   C4        1.0  0.6542  0.40486  0.93814  1.0000
  C   C5        1.0  0.65046  0.32646  0.9709599999999998  1.0000
  C   C6        1.0  0.5198699999999999  0.27401  0.9580099999999999  1.0000
  C   C7        1.0  0.38078  0.32358  0.96287  1.0000
  C   C8        1.0  0.78172  0.45857  0.95199  1.0000
  C   C9        1.0  0.5094  0.19881  0.9927899999999998  1.0000
  C   C10       1.0  0.78011  0.7040999999999998  0.82739  1.0000
  C   C11       1.0  0.65021  0.75862  0.8363  1.0000
  C   C12       1.0  0.51239  0.71035  0.82379  1.0000
  C   C13       1.0  0.37969  0.76387  0.83407  1.0000
  C   C14       1.0  0.24425  0.7172699999999997  0.8203999999999998  1.0000
  C   C15       1.0  0.38604  0.84476  0.80394  1.0000
  C   C16       1.0  0.52578  0.89088  0.81532  1.0000
  C   C17       1.0  0.65619  0.83778  0.80445  1.0000
  C   C18       1.0  0.52503  0.9697399999999998  0.78479  1.0000
  C   C19       1.0  0.5064  0.06631  0.63892  1.0000
  C   C20       1.0  0.51231  0.21552999999999997  0.6468  1.0000
  C   C21       1.0  0.71441  0.13331  0.6756  1.0000
  C   C22       1.0  0.73355  0.219  0.60177  1.0000
  C   C23       1.0  0.73142  0.07265  0.59305  1.0000
  C   C24       1.0  0.52915  0.15483  0.56408  1.0000
  C   C25       1.0  0.25092  0.95314  0.93747  1.0000
  C   C26       1.0  0.11670000000000001  0.90097  0.93069  1.0000
  C   C27       1.0  0.98666  0.95513  0.9440699999999999  1.0000
  C   C28       1.0  0.84706  0.90605  0.9379599999999999  1.0000
  C   C29       1.0  0.84846  0.82771  0.9709099999999998  1.0000
  C   C30       1.0  0.97787  0.77422  0.9583299999999999  1.0000
  C   C31       1.0  0.11819000000000002  0.82274  0.96331  1.0000
  C   C32       1.0  0.71984  0.96029  0.95128  1.0000
  C   C33       1.0  0.98695  0.69902  0.99305  1.0000
  C   C34       1.0  0.71934  0.20415  0.82733  1.0000
  C   C35       1.0  0.84908  0.2587199999999999  0.8362399999999999  1.0000
  C   C36       1.0  0.98683  0.21051  0.82389  1.0000
  C   C37       1.0  0.11950000000000001  0.26406  0.8345  1.0000
  C   C38       1.0  0.25445  0.21668  0.82166  1.0000
  C   C39       1.0  0.11379  0.34462  0.80413  1.0000
  C   C40       1.0  0.9741200000000001  0.39067  0.8156099999999997  1.0000
  C   C41       1.0  0.84345  0.3378299999999999  0.8043599999999999  1.0000
  C   C42       1.0  0.97628  0.46989  0.7855299999999997  1.0000
  C   C43       1.0  0.9931199999999999  0.56637  0.63878  1.0000
  C   C44       1.0  0.98746  0.71549  0.64668  1.0000
  C   C45       1.0  0.78529  0.6332  0.67545  1.0000
  C   C46       1.0  0.76627  0.71895  0.6016  1.0000
  C   C47       1.0  0.76803  0.57263  0.59286  1.0000
  C   C48       1.0  0.97049  0.65476  0.56392  1.0000
  C   C49       1.0  0.49368  0.93369  0.13897  1.0000
  C   C50       1.0  0.48778  0.78447  0.14684  1.0000
  C   C51       1.0  0.28568  0.86669  0.17562999999999995  1.0000
  C   C52       1.0  0.2665  0.78099  0.10179  1.0000
  C   C53       1.0  0.26862  0.92734  0.09308  1.0000
  C   C54       1.0  0.47088  0.84516  0.06412  1.0000
  C   C55       1.0  0.74966  0.54436  0.43713  1.0000
  C   C56       1.0  0.6163  0.5977  0.43049  1.0000
  C   C57       1.0  0.48462  0.54494  0.4440999999999999  1.0000
  C   C58       1.0  0.34609  0.59505  0.4382099999999999  1.0000
  C   C59       1.0  0.34986  0.67359  0.4708799999999999  1.0000
  C   C60       1.0  0.48047  0.72592  0.45786999999999994  1.0000
  C   C61       1.0  0.61964  0.67631  0.46285999999999994  1.0000
  C   C62       1.0  0.2191  0.54131  0.45245  1.0000
  C   C63       1.0  0.49078000000000005  0.80119  0.49262  1.0000
  C   C64       1.0  0.22022  0.2961  0.32736  1.0000
  C   C65       1.0  0.34977  0.24149  0.33629  1.0000
  C   C66       1.0  0.48772999999999994  0.28966  0.32388  1.0000
  C   C67       1.0  0.62027  0.23603  0.33423  1.0000
  C   C68       1.0  0.75576  0.2825199999999999  0.32057  1.0000
  C   C69       1.0  0.61373  0.15522  0.30401  1.0000
  C   C70       1.0  0.47386  0.10921  0.31539999999999996  1.0000
  C   C71       1.0  0.34363  0.16238  0.30447  1.0000
  C   C72       1.0  0.47394  0.0303  0.28492  1.0000
  C   C73       1.0  0.00693  0.43361  0.13878  1.0000
  C   C74       1.0  0.01257  0.28447  0.14666  1.0000
  C   C75       1.0  0.21473  0.36677  0.17545999999999995  1.0000
  C   C76       1.0  0.23377  0.28101  0.10159  1.0000
  C   C77       1.0  0.23207  0.42731  0.09289  1.0000
  C   C78       1.0  0.0295  0.34515  0.06391  1.0000
  C   C79       1.0  0.74911  0.04692  0.43755  1.0000
  C   C80       1.0  0.8833600000000001  0.09911999999999997  0.43071  1.0000
  C   C81       1.0  0.01327  0.04491  0.44410999999999995  1.0000
  C   C82       1.0  0.1528  0.09405  0.43808  1.0000
  C   C83       1.0  0.15149  0.17249  0.47102  1.0000
  C   C84       1.0  0.02219  0.22606  0.45838  1.0000
  C   C85       1.0  0.88192  0.17742  0.46332  1.0000
  C   C86       1.0  0.27997  0.039739999999999984  0.45137  1.0000
  C   C87       1.0  0.013  0.30211  0.49268  1.0000
  C   C88       1.0  0.28049  0.79574  0.32733  1.0000
  C   C89       1.0  0.15083  0.7411699999999998  0.3362699999999999  1.0000
  C   C90       1.0  0.01319  0.78943  0.32386999999999994  1.0000
  C   C91       1.0  0.88049  0.73589  0.33443  1.0000
  C   C92       1.0  0.74562  0.78346  0.32165  1.0000
  C   C93       1.0  0.88619  0.6552999999999998  0.30406  1.0000
  C   C94       1.0  0.0259  0.60924  0.31553  1.0000
  C   C95       1.0  0.15654  0.66211  0.30436  1.0000
  C   C96       1.0  0.02377  0.53009  0.28542  1.0000
  N   N1        1.0  0.55326  0.13616  0.67209  1.0000
  N   N2        1.0  0.57688  0.22293  0.59619  1.0000
  N   N3        1.0  0.779  0.14063  0.62505  1.0000
  N   N4        1.0  0.57105  0.07234  0.58676  1.0000
  N   N5        1.0  0.9463800000000001  0.63613  0.67199  1.0000
  N   N6        1.0  0.92296  0.72289  0.59603  1.0000
  N   N7        1.0  0.72069  0.64059  0.6248899999999998  1.0000
  N   N8        1.0  0.92839  0.57232  0.58661  1.0000
  N   N9        1.0  0.44683  0.86384  0.17213  1.0000
  N   N10       1.0  0.42318  0.77706  0.09623  1.0000
  N   N11       1.0  0.22106999999999996  0.85937  0.12508  1.0000
  N   N12       1.0  0.42899  0.92765  0.0868  1.0000
  N   N13       1.0  0.05363  0.36384  0.17199  1.0000
  N   N14       1.0  0.07707  0.27708  0.09602  1.0000
  N   N15       1.0  0.27936  0.35937  0.12491  1.0000
  N   N16       1.0  0.07172  0.42762  0.08662  1.0000
  O   O1        1.0  0.22427  0.50784  0.90333  1.0000
  O   O2        1.0  0.45601  0.1325  0.97078  1.0000
  O   O3        1.0  0.85708  0.48766  0.91612  1.0000
  O   O4        1.0  0.8265  0.6622  0.86482  1.0000
  O   O5        1.0  0.44852  0.02891  0.80525  1.0000
  O   O6        1.0  0.16293  0.6955  0.85664  1.0000
  O   O7        1.0  0.17829  0.4426599999999999  0.9787499999999998  1.0000
  O   O8        1.0  0.80249  0.47044  0.00041999999999999996  1.0000
  O   O9        1.0  0.82962  0.70424  0.78135  1.0000
  O   O10       1.0  0.22207  0.70464  0.77211  1.0000
  O   O11       1.0  0.58583  0.97855  0.74242  1.0000
  O   O12       1.0  0.54287  0.19951  0.03896  1.0000
  O   O13       1.0  0.27842  0.00456  0.9025799999999998  1.0000
  O   O14       1.0  0.04358  0.6332  0.97138  1.0000
  O   O15       1.0  0.64407  0.9874499999999999  0.91488  1.0000
  O   O16       1.0  0.67289  0.16223  0.8647399999999998  1.0000
  O   O17       1.0  0.04953  0.52943  0.80713  1.0000
  O   O18       1.0  0.33057  0.19187  0.8585799999999999  1.0000
  O   O19       1.0  0.32199  0.94208  0.9791099999999999  1.0000
  O   O20       1.0  0.69969  0.9739299999999997  0.99964  1.0000
  O   O21       1.0  0.66975  0.20442  0.78131  1.0000
  O   O22       1.0  0.28001  0.20632  0.77339  1.0000
  O   O23       1.0  0.92047  0.47843  0.7423099999999998  1.0000
  O   O24       1.0  0.95017  0.69924  0.03893  1.0000
  O   O25       1.0  0.77661  0.49333999999999995  0.40183  1.0000
  O   O26       1.0  0.544  0.86752  0.4705999999999999  1.0000
  O   O27       1.0  0.1427  0.51243  0.4167699999999999  1.0000
  O   O28       1.0  0.17475  0.33823  0.36481  1.0000
  O   O29       1.0  0.54961  0.97087  0.30551  1.0000
  O   O30       1.0  0.83716  0.30444  0.35675  1.0000
  O   O31       1.0  0.82075  0.55426  0.47889  1.0000
  O   O32       1.0  0.19968  0.52935  0.50098  1.0000
  O   O33       1.0  0.17023  0.29578  0.28137  1.0000
  O   O34       1.0  0.77789  0.29505  0.27228  1.0000
  O   O35       1.0  0.41377  0.02173  0.24239  1.0000
  O   O36       1.0  0.45725  0.80055  0.53878  1.0000
  O   O37       1.0  0.7215  0.9954399999999999  0.40276  1.0000
  O   O38       1.0  0.9550400000000001  0.3671  0.47065  1.0000
  O   O39       1.0  0.35548  0.01249  0.41491999999999996  1.0000
  O   O40       1.0  0.32689  0.8377199999999998  0.36469  1.0000
  O   O41       1.0  0.9506599999999998  0.47052  0.307  1.0000
  O   O42       1.0  0.66951  0.80812  0.35859  1.0000
  O   O43       1.0  0.67814  0.05801  0.47921  1.0000
  O   O44       1.0  0.30035  0.026039999999999994  0.4997  1.0000
  O   O45       1.0  0.33001  0.7954  0.28128  1.0000
  O   O46       1.0  0.72026  0.79437  0.2734  1.0000
  O   O47       1.0  0.07958  0.52156  0.24217  1.0000
  O   O48       1.0  0.05052  0.30393  0.53843  1.0000
