data_image0
_chemical_formula_structural       Zn4In6H72C120N6O38
_chemical_formula_sum              "Zn4 In6 H72 C120 N6 O38"
_cell_length_a       19.17627
_cell_length_b       19.19321
_cell_length_c       25.3821
_cell_angle_alpha    90.02346
_cell_angle_beta     90.03974
_cell_angle_gamma    120.07432

_space_group_name_H-M_alt    "P 1"
_space_group_IT_number       1

loop_
  _space_group_symop_operation_xyz
  'x, y, z'

loop_
  _atom_site_type_symbol
  _atom_site_label
  _atom_site_symmetry_multiplicity
  _atom_site_fract_x
  _atom_site_fract_y
  _atom_site_fract_z
  _atom_site_occupancy
  Zn  Zn1       1.0  0.00285  0.00049  0.30327  1.0000
  Zn  Zn2       1.0  0.9998999999999999  0.9995899999999999  0.19707  1.0000
  Zn  Zn3       1.0  0.99794  0.9994100000000001  0.69681  1.0000
  Zn  Zn4       1.0  9.999999999999995e-05  0.00039999999999999986  0.80302  1.0000
  In  In1       1.0  0.27105  0.54248  0.25023  1.0000
  In  In2       1.0  0.27107  0.72887  0.2501  1.0000
  In  In3       1.0  0.4575  0.72886  0.25001  1.0000
  In  In4       1.0  0.72889  0.45747  0.7499800000000001  1.0000
  In  In5       1.0  0.72891  0.27108  0.75009  1.0000
  In  In6       1.0  0.54251  0.27111  0.7502  1.0000
  H   H1        1.0  0.59721  0.62806  0.4680500000000001  1.0000
  H   H2        1.0  0.37198  0.40288  0.46775  1.0000
  H   H3        1.0  0.55585  0.66762  0.38692  1.0000
  H   H4        1.0  0.33246  0.44428  0.38662  1.0000
  H   H5        1.0  0.20245  0.40164  0.33164  1.0000
  H   H6        1.0  0.12592  0.25108  0.3343900000000001  1.0000
  H   H7        1.0  0.030930000000000006  0.40298  0.46802  1.0000
  H   H8        1.0  0.030770000000000016  0.62784  0.46776  1.0000
  H   H9        1.0  0.11183000000000001  0.44424  0.38688  1.0000
  H   H10       1.0  0.11164999999999999  0.66719  0.38664  1.0000
  H   H11       1.0  0.20032  0.79763  0.33174  1.0000
  H   H12       1.0  0.12353999999999997  0.87119  0.33516  1.0000
  H   H13       1.0  0.37184999999999996  0.9688499999999999  0.46779999999999994  1.0000
  H   H14       1.0  0.59726  0.9694  0.46802  1.0000
  H   H15       1.0  0.33245999999999987  0.88796  0.38658  1.0000
  H   H16       1.0  0.55597  0.88848  0.38681  1.0000
  H   H17       1.0  0.59663  0.79993  0.33187  1.0000
  H   H18       1.0  0.74743  0.87363  0.33618999999999993  1.0000
  H   H19       1.0  0.031159999999999983  0.62805  0.03222  1.0000
  H   H20       1.0  0.0307  0.40291  0.0321  1.0000
  H   H21       1.0  0.11206999999999996  0.66746  0.11344999999999998  1.0000
  H   H22       1.0  0.11164  0.44416  0.11330999999999998  1.0000
  H   H23       1.0  0.20047  0.40379  0.16824  1.0000
  H   H24       1.0  0.12717  0.25315  0.16382999999999998  1.0000
  H   H25       1.0  0.37187  0.40293  0.03213  1.0000
  H   H26       1.0  0.59713  0.62809  0.03226  1.0000
  H   H27       1.0  0.33233  0.44426  0.11326000000000001  1.0000
  H   H28       1.0  0.55577  0.66756  0.11338999999999999  1.0000
  H   H29       1.0  0.59837  0.79737  0.16848000000000002  1.0000
  H   H30       1.0  0.74913  0.87385  0.16565  1.0000
  H   H31       1.0  0.5970599999999999  0.9689699999999999  0.03204  1.0000
  H   H32       1.0  0.37198000000000003  0.96905  0.03239  1.0000
  H   H33       1.0  0.55588  0.88813  0.11318  1.0000
  H   H34       1.0  0.33268999999999993  0.88828  0.11351  1.0000
  H   H35       1.0  0.20256  0.79958  0.16821999999999998  1.0000
  H   H36       1.0  0.12883999999999998  0.87625  0.16454  1.0000
  H   H37       1.0  0.4028  0.37187  0.53204  1.0000
  H   H38       1.0  0.62803  0.59706  0.53232  1.0000
  H   H39       1.0  0.44418  0.33235  0.61318  1.0000
  H   H40       1.0  0.66757  0.5557  0.61344  1.0000
  H   H41       1.0  0.7974900000000001  0.59825  0.66838  1.0000
  H   H42       1.0  0.87405  0.74884  0.66559  1.0000
  H   H43       1.0  0.96897  0.59695  0.53208  1.0000
  H   H44       1.0  0.96912  0.37209  0.53233  1.0000
  H   H45       1.0  0.8880899999999999  0.55572  0.61321  1.0000
  H   H46       1.0  0.88827  0.33276  0.61346  1.0000
  H   H47       1.0  0.79968  0.20235  0.66831  1.0000
  H   H48       1.0  0.87648  0.12881  0.66478  1.0000
  H   H49       1.0  0.6281499999999999  0.031209999999999998  0.53227  1.0000
  H   H50       1.0  0.40275  0.03067  0.53208  1.0000
  H   H51       1.0  0.66759  0.11212  0.61346  1.0000
  H   H52       1.0  0.44407  0.11161  0.61327  1.0000
  H   H53       1.0  0.40358  0.20029  0.6682  1.0000
  H   H54       1.0  0.25274  0.12649  0.66386  1.0000
  H   H55       1.0  0.96889  0.37197  0.9678499999999999  1.0000
  H   H56       1.0  0.96936  0.59712  0.96798  1.0000
  H   H57       1.0  0.88797  0.33257  0.88662  1.0000
  H   H58       1.0  0.8884099999999999  0.55585  0.88676  1.0000
  H   H59       1.0  0.79958  0.59623  0.83179  1.0000
  H   H60       1.0  0.87293  0.7469  0.8361399999999999  1.0000
  H   H61       1.0  0.62811  0.59714  0.96796  1.0000
  H   H62       1.0  0.40284  0.37198  0.96784  1.0000
  H   H63       1.0  0.66764  0.55579  0.88683  1.0000
  H   H64       1.0  0.44422  0.3325  0.8867099999999999  1.0000
  H   H65       1.0  0.40166  0.20265  0.8316099999999998  1.0000
  H   H66       1.0  0.2509  0.12596  0.8343899999999999  1.0000
  H   H67       1.0  0.40288  0.030929999999999996  0.96806  1.0000
  H   H68       1.0  0.6279599999999999  0.03084  0.96773  1.0000
  H   H69       1.0  0.44409  0.11179  0.8869199999999999  1.0000
  H   H70       1.0  0.66727  0.11164  0.88661  1.0000
  H   H71       1.0  0.79755  0.20029  0.83179  1.0000
  H   H72       1.0  0.8712899999999999  0.12367  0.8354  1.0000
  C   C1        1.0  0.53876  0.58683  0.45107  1.0000
  C   C2        1.0  0.41322  0.46132  0.45088000000000006  1.0000
  C   C3        1.0  0.51598  0.60986  0.40521  1.0000
  C   C4        1.0  0.39023  0.48414  0.40503  1.0000
  C   C5        1.0  0.18363  0.36579  0.29579  1.0000
  C   C6        1.0  0.44114999999999993  0.55898  0.38165  1.0000
  C   C7        1.0  0.48796  0.51207  0.47544  1.0000
  C   C8        1.0  0.41584999999999994  0.5843  0.33293  1.0000
  C   C9        1.0  0.1416  0.28261  0.29689  1.0000
  C   C10       1.0  0.04811000000000002  0.46133  0.45104999999999995  1.0000
  C   C11       1.0  0.04801  0.58664  0.45093  1.0000
  C   C12       1.0  0.09389999999999993  0.48403999999999997  0.40519  1.0000
  C   C13       1.0  0.09379000000000001  0.60956  0.40507  1.0000
  C   C14       1.0  0.18249000000000004  0.81595  0.29604  1.0000
  C   C15       1.0  0.11773  0.55872  0.38166  1.0000
  C   C16       1.0  0.024110000000000006  0.51203  0.47546  1.0000
  C   C17       1.0  0.16831  0.58404  0.33294  1.0000
  C   C18       1.0  0.14039  0.85679  0.29757  1.0000
  C   C19       1.0  0.41316  0.95178  0.45091000000000003  1.0000
  C   C20       1.0  0.5387999999999998  0.9520799999999999  0.45103  1.0000
  C   C21       1.0  0.39023  0.90599  0.40502  1.0000
  C   C22       1.0  0.51608  0.90628  0.40514999999999995  1.0000
  C   C23       1.0  0.63329  0.81732  0.29642  1.0000
  C   C24       1.0  0.44123999999999997  0.88224  0.38161000000000006  1.0000
  C   C25       1.0  0.48794  0.9758800000000001  0.47544  1.0000
  C   C26       1.0  0.41595  0.83162  0.3328900000000001  1.0000
  C   C27       1.0  0.7164399999999997  0.85819  0.29846  1.0000
  C   C28       1.0  0.04824999999999998  0.58679  0.04915  1.0000
  C   C29       1.0  0.04801  0.4613  0.04909000000000001  1.0000
  C   C30       1.0  0.09405000000000001  0.60974  0.09505  1.0000
  C   C31       1.0  0.09381999999999999  0.48403  0.09498  1.0000
  C   C32       1.0  0.18304  0.36707  0.20365  1.0000
  C   C33       1.0  0.11787  0.55882  0.11848  1.0000
  C   C34       1.0  0.024179999999999993  0.51209  0.02464  1.0000
  C   C35       1.0  0.16864  0.58421  0.16715  1.0000
  C   C36       1.0  0.14237  0.28403  0.20158  1.0000
  C   C37       1.0  0.41314  0.46135  0.04909000000000001  1.0000
  C   C38       1.0  0.53869  0.58682  0.04917  1.0000
  C   C39       1.0  0.39013  0.48413  0.09496  1.0000
  C   C40       1.0  0.51589  0.6098  0.09503  1.0000
  C   C41       1.0  0.63434  0.81633  0.20429999999999998  1.0000
  C   C42       1.0  0.44104  0.55894  0.11848  1.0000
  C   C43       1.0  0.48791000000000007  0.51211  0.02465  1.0000
  C   C44       1.0  0.41569  0.58436  0.16713999999999998  1.0000
  C   C45       1.0  0.71762  0.8584  0.20316  1.0000
  C   C46       1.0  0.53869  0.95182  0.04905  1.0000
  C   C47       1.0  0.41327  0.95188  0.04921999999999999  1.0000
  C   C48       1.0  0.51601  0.90606  0.09492  1.0000
  C   C49       1.0  0.39038  0.90613  0.09509  1.0000
  C   C50       1.0  0.18410999999999997  0.81741  0.20385  1.0000
  C   C51       1.0  0.44126  0.88216  0.11848  1.0000
  C   C52       1.0  0.4879200000000001  0.9758  0.02465  1.0000
  C   C53       1.0  0.41585  0.83138  0.1671  1.0000
  C   C54       1.0  0.14328000000000002  0.85954  0.20216000000000003  1.0000
  C   C55       1.0  0.46125  0.41313  0.54903  1.0000
  C   C56       1.0  0.58679  0.53863  0.5492  1.0000
  C   C57       1.0  0.4840499999999998  0.39009999999999995  0.59489  1.0000
  C   C58       1.0  0.60979  0.51582  0.59505  1.0000
  C   C59       1.0  0.81632  0.63413  0.7042200000000001  1.0000
  C   C60       1.0  0.5589  0.44096  0.61844  1.0000
  C   C61       1.0  0.51205  0.48787  0.52464  1.0000
  C   C62       1.0  0.58426  0.41557  0.6671000000000001  1.0000
  C   C63       1.0  0.8583599999999999  0.71732  0.7031000000000001  1.0000
  C   C64       1.0  0.9517999999999999  0.53861  0.54906  1.0000
  C   C65       1.0  0.95191  0.41331  0.54918  1.0000
  C   C66       1.0  0.9060200000000002  0.51591  0.59492  1.0000
  C   C67       1.0  0.9061300000000001  0.39039  0.59504  1.0000
  C   C68       1.0  0.81756  0.18401  0.70397  1.0000
  C   C69       1.0  0.88216  0.44121  0.61845  1.0000
  C   C70       1.0  0.9758000000000001  0.48791  0.52464  1.0000
  C   C71       1.0  0.83144  0.41582  0.6670899999999998  1.0000
  C   C72       1.0  0.85969  0.14318  0.70239  1.0000
  C   C73       1.0  0.58685  0.04828  0.54917  1.0000
  C   C74       1.0  0.46120999999999995  0.04799  0.54906  1.0000
  C   C75       1.0  0.6098  0.09408  0.59506  1.0000
  C   C76       1.0  0.48395  0.09379  0.59494  1.0000
  C   C77       1.0  0.36688  0.18281  0.70364  1.0000
  C   C78       1.0  0.55881  0.11785  0.61846  1.0000
  C   C79       1.0  0.51207  0.02418  0.52465  1.0000
  C   C80       1.0  0.58416  0.16861  0.66712  1.0000
  C   C81       1.0  0.28373  0.14189  0.70158  1.0000
  C   C82       1.0  0.9517999999999999  0.41323  0.9509299999999999  1.0000
  C   C83       1.0  0.95204  0.53872  0.95099  1.0000
  C   C84       1.0  0.9060000000000001  0.39029  0.9050300000000001  1.0000
  C   C85       1.0  0.90623  0.516  0.9050999999999999  1.0000
  C   C86       1.0  0.8169699999999999  0.63292  0.7963599999999998  1.0000
  C   C87       1.0  0.88222  0.44123  0.88159  1.0000
  C   C88       1.0  0.97586  0.48793000000000003  0.97543  1.0000
  C   C89       1.0  0.83159  0.41591  0.8328700000000001  1.0000
  C   C90       1.0  0.85765  0.71596  0.79841  1.0000
  C   C91       1.0  0.58684  0.53871  0.95101  1.0000
  C   C92       1.0  0.46129000000000003  0.41324  0.95094  1.0000
  C   C93       1.0  0.60985  0.51593  0.90514  1.0000
  C   C94       1.0  0.48408000000000007  0.39025  0.90508  1.0000
  C   C95       1.0  0.36569999999999997  0.18365  0.79577  1.0000
  C   C96       1.0  0.55892  0.44112  0.8816199999999998  1.0000
  C   C97       1.0  0.51208  0.48796  0.9754499999999999  1.0000
  C   C98       1.0  0.58421  0.41575  0.83291  1.0000
  C   C99       1.0  0.28242  0.14146  0.79688  1.0000
  C   C100      1.0  0.46126  0.04809  0.95106  1.0000
  C   C101      1.0  0.58668  0.04802  0.9509  1.0000
  C   C102      1.0  0.48395  0.09386  0.9052  1.0000
  C   C103      1.0  0.60958  0.09378  0.90504  1.0000
  C   C104      1.0  0.816  0.1825  0.79614  1.0000
  C   C105      1.0  0.5587  0.11772000000000002  0.88164  1.0000
  C   C106      1.0  0.51202  0.02411  0.97546  1.0000
  C   C107      1.0  0.58404  0.16837  0.83295  1.0000
  C   C108      1.0  0.85687  0.14041  0.79778  1.0000
  C   C109      1.0  0.11963  0.23887  0.24892999999999998  1.0000
  C   C110      1.0  0.07389  0.15125  0.24745000000000003  1.0000
  C   C111      1.0  0.11961000000000005  0.88048  0.24982  1.0000
  C   C112      1.0  0.07595  0.92383  0.24986  1.0000
  C   C113      1.0  0.76145  0.8807  0.25109  1.0000
  C   C114      1.0  0.84934  0.92622  0.25232  1.0000
  C   C115      1.0  0.88033  0.76105  0.75106  1.0000
  C   C116      1.0  0.92602  0.84867  0.75253  1.0000
  C   C117      1.0  0.88055  0.11949  0.75011  1.0000
  C   C118      1.0  0.92413  0.076  0.75008  1.0000
  C   C119      1.0  0.23862  0.11921  0.74892  1.0000
  C   C120      1.0  0.15079  0.07356  0.7475399999999999  1.0000
  N   N1        1.0  0.20401  0.40841  0.24998  1.0000
  N   N2        1.0  0.20433  0.79565  0.24998  1.0000
  N   N3        1.0  0.59183  0.79611  0.25013  1.0000
  N   N4        1.0  0.79597  0.59156  0.75004  1.0000
  N   N5        1.0  0.7957299999999998  0.20428  0.7500499999999999  1.0000
  N   N6        1.0  0.40828  0.20397  0.74996  1.0000
  O   O1        1.0  0.46587  0.65355  0.31435  1.0000
  O   O2        1.0  0.34647  0.5342  0.31435  1.0000
  O   O3        1.0  0.038029999999999994  0.11307  0.29062  1.0000
  O   O4        1.0  0.18753  0.53401  0.31436  1.0000
  O   O5        1.0  0.18766  0.65327  0.31438  1.0000
  O   O6        1.0  0.04193000000000005  0.92674  0.29373  1.0000
  O   O7        1.0  0.34665  0.81233  0.3143  1.0000
  O   O8        1.0  0.46596  0.81233  0.31435  1.0000
  O   O9        1.0  0.88543  0.92981  0.29624  1.0000
  O   O10       1.0  0.18799  0.65348  0.1857  1.0000
  O   O11       1.0  0.188  0.53429  0.18569  1.0000
  O   O12       1.0  0.07088  0.11572  0.20328  1.0000
  O   O13       1.0  0.34638  0.53439  0.18574  1.0000
  O   O14       1.0  0.46574  0.65376  0.18564999999999998  1.0000
  O   O15       1.0  0.88672  0.9612  0.20876  1.0000
  O   O16       1.0  0.46586  0.81207  0.18564999999999998  1.0000
  O   O17       1.0  0.3465  0.81191  0.18562  1.0000
  O   O18       1.0  0.07243999999999998  0.95815  0.20627000000000004  1.0000
  O   O19       1.0  0.53433  0.34624  0.68563  1.0000
  O   O20       1.0  0.65364  0.46565  0.6856899999999999  1.0000
  O   O21       1.0  0.9618899999999999  0.88672  0.70933  1.0000
  O   O22       1.0  0.81216  0.46579  0.68567  1.0000
  O   O23       1.0  0.81198  0.34652  0.6856199999999999  1.0000
  O   O24       1.0  0.95811  0.07287  0.70626  1.0000
  O   O25       1.0  0.65346  0.18792  0.68573  1.0000
  O   O26       1.0  0.5342200000000001  0.18801  0.68563  1.0000
  O   O27       1.0  0.11487999999999998  0.07046  0.70359  1.0000
  O   O28       1.0  0.8123299999999999  0.3466699999999999  0.81429  1.0000
  O   O29       1.0  0.81228  0.46587  0.81433  1.0000
  O   O30       1.0  0.92893  0.88421  0.7966500000000001  1.0000
  O   O31       1.0  0.65344  0.46578  0.81427  1.0000
  O   O32       1.0  0.53413  0.34635  0.8144  1.0000
  O   O33       1.0  0.11316  0.03786  0.79089  1.0000
  O   O34       1.0  0.53398  0.18756  0.8143500000000001  1.0000
  O   O35       1.0  0.65338  0.18778  0.81443  1.0000
  O   O36       1.0  0.9275500000000001  0.04182  0.79374  1.0000
  O   O37       1.0  0.33321  0.66672  0.251  1.0000
  O   O38       1.0  0.66679  0.33325  0.75118  1.0000
