data_image0
_chemical_formula_structural       Cu8H112C128N16O48
_chemical_formula_sum              "Cu8 H112 C128 N16 O48"
_cell_length_a       8.5975
_cell_length_b       8.6397
_cell_length_c       52.91872
_cell_angle_alpha    89.99635000000002
_cell_angle_beta     90.01770000000002
_cell_angle_gamma    90.06423

_space_group_name_H-M_alt    "P 1"
_space_group_IT_number       1

loop_
  _space_group_symop_operation_xyz
  'x, y, z'

loop_
  _atom_site_type_symbol
  _atom_site_label
  _atom_site_symmetry_multiplicity
  _atom_site_fract_x
  _atom_site_fract_y
  _atom_site_fract_z
  _atom_site_occupancy
  Cu  Cu1       1.0  0.08957  0.44316  0.7376400000000001  1.0000
  Cu  Cu2       1.0  0.36366  0.6646  0.98486  1.0000
  Cu  Cu3       1.0  0.4123099999999999  0.55542  0.23762  1.0000
  Cu  Cu4       1.0  0.13641  0.33535  0.4848600000000001  1.0000
  Cu  Cu5       1.0  0.9101899999999999  0.9433599999999999  0.76236  1.0000
  Cu  Cu6       1.0  0.63642  0.16438  0.51513  1.0000
  Cu  Cu7       1.0  0.58802  0.05502  0.26242  1.0000
  Cu  Cu8       1.0  0.86359  0.83555  0.015130000000000003  1.0000
  H   H1        1.0  0.60648  0.78717  0.7612600000000002  1.0000
  H   H2        1.0  0.52353  0.77487  0.7054600000000001  1.0000
  H   H3        1.0  0.25395  0.23685999999999996  0.70346  1.0000
  H   H4        1.0  0.2764699999999999  0.19073  0.65708  1.0000
  H   H5        1.0  0.9140399999999999  0.53179  0.64633  1.0000
  H   H6        1.0  0.90265  0.55926  0.69296  1.0000
  H   H7        1.0  0.9421399999999999  0.32021  0.78407  1.0000
  H   H8        1.0  0.9694799999999999  0.35544  0.8305300000000001  1.0000
  H   H9        1.0  0.3128  0.711  0.8150600000000002  1.0000
  H   H10       1.0  0.27261  0.66095  0.7698100000000001  1.0000
  H   H11       1.0  0.08881  0.4754  0.86561  1.0000
  H   H12       1.0  0.33632  0.72599  0.8561  1.0000
  H   H13       1.0  0.10736999999999997  0.48186  0.9045900000000002  1.0000
  H   H14       1.0  0.15557  0.50481  0.9505800000000001  1.0000
  H   H15       1.0  0.48011999999999994  0.85427  0.94018  1.0000
  H   H16       1.0  0.4512  0.84187  0.89328  1.0000
  H   H17       1.0  0.26333  0.18355  0.52984  1.0000
  H   H18       1.0  0.23419  0.19797  0.5760000000000001  1.0000
  H   H19       1.0  0.88778  0.55557  0.5643  1.0000
  H   H20       1.0  0.9318199999999999  0.52731  0.51839  1.0000
  H   H21       1.0  0.94241  0.48312999999999995  0.60666  1.0000
  H   H22       1.0  0.21152  0.25467  0.61511  1.0000
  H   H23       1.0  0.59046  0.4567899999999999  0.75639  1.0000
  H   H24       1.0  0.59341  0.47398  0.71174  1.0000
  H   H25       1.0  0.37181999999999993  0.16469  0.005440000000000002  1.0000
  H   H26       1.0  0.38763  0.15966  0.96084  1.0000
  H   H27       1.0  0.70065  0.14005  0.01202  1.0000
  H   H28       1.0  0.69335  0.22412  0.95488  1.0000
  H   H29       1.0  0.8919199999999998  0.21498  0.26126  1.0000
  H   H30       1.0  0.9769299999999999  0.22584  0.20549  1.0000
  H   H31       1.0  0.24783  0.76276  0.20352  1.0000
  H   H32       1.0  0.22394  0.80878  0.15716  1.0000
  H   H33       1.0  0.58622  0.4678899999999999  0.14621  1.0000
  H   H34       1.0  0.59893  0.44043  0.19283  1.0000
  H   H35       1.0  0.55894  0.67842  0.28408  1.0000
  H   H36       1.0  0.53052  0.64443  0.3305  1.0000
  H   H37       1.0  0.18704  0.28887  0.31504  1.0000
  H   H38       1.0  0.22828  0.33772  0.2698  1.0000
  H   H39       1.0  0.41085  0.52494  0.36558000000000007  1.0000
  H   H40       1.0  0.16383  0.27381  0.3561  1.0000
  H   H41       1.0  0.39262999999999987  0.51828  0.4045900000000001  1.0000
  H   H42       1.0  0.34438  0.49541999999999997  0.45058  1.0000
  H   H43       1.0  0.019869999999999992  0.14593  0.44017  1.0000
  H   H44       1.0  0.04881  0.15823  0.39327  1.0000
  H   H45       1.0  0.23661  0.81661  0.029830000000000006  1.0000
  H   H46       1.0  0.26578  0.80211  0.07599000000000003  1.0000
  H   H47       1.0  0.61215  0.44454  0.06432  1.0000
  H   H48       1.0  0.56813  0.47286000000000006  0.0184  1.0000
  H   H49       1.0  0.55756  0.5169  0.10665000000000002  1.0000
  H   H50       1.0  0.28845  0.74528  0.11513  1.0000
  H   H51       1.0  0.91273  0.54471  0.25637  1.0000
  H   H52       1.0  0.90889  0.52703  0.21166  1.0000
  H   H53       1.0  0.12857  0.83554  0.50542  1.0000
  H   H54       1.0  0.11242  0.84026  0.4608100000000001  1.0000
  H   H55       1.0  0.7997399999999998  0.8599399999999999  0.51203  1.0000
  H   H56       1.0  0.8066799999999997  0.77565  0.45488000000000006  1.0000
  H   H57       1.0  0.3932799999999999  0.28756  0.7387600000000001  1.0000
  H   H58       1.0  0.47697  0.27481  0.79451  1.0000
  H   H59       1.0  0.7455899999999999  0.73708  0.7965500000000002  1.0000
  H   H60       1.0  0.7233  0.69066  0.8429200000000002  1.0000
  H   H61       1.0  0.08636  0.03195  0.8536500000000002  1.0000
  H   H62       1.0  0.09746  0.059759999999999994  0.80704  1.0000
  H   H63       1.0  0.05735999999999999  0.8205199999999999  0.7159400000000001  1.0000
  H   H64       1.0  0.030159999999999996  0.85575  0.66947  1.0000
  H   H65       1.0  0.68717  0.21082  0.68493  1.0000
  H   H66       1.0  0.72727  0.16084  0.73017  1.0000
  H   H67       1.0  0.91086  0.9753899999999999  0.6343800000000002  1.0000
  H   H68       1.0  0.66391  0.22592  0.6439000000000002  1.0000
  H   H69       1.0  0.8922299999999999  0.9817800000000001  0.5954  1.0000
  H   H70       1.0  0.84374  0.00453  0.54942  1.0000
  H   H71       1.0  0.51994  0.35384  0.55983  1.0000
  H   H72       1.0  0.54912  0.34162  0.60673  1.0000
  H   H73       1.0  0.7363099999999998  0.68398  0.97017  1.0000
  H   H74       1.0  0.76549  0.69813  0.9240200000000001  1.0000
  H   H75       1.0  0.11281  0.05581  0.93567  1.0000
  H   H76       1.0  0.06859  0.02781  0.98158  1.0000
  H   H77       1.0  0.0579  0.98331  0.8933300000000002  1.0000
  H   H78       1.0  0.7885899999999998  0.75445  0.88489  1.0000
  H   H79       1.0  0.40934  0.95718  0.7435500000000003  1.0000
  H   H80       1.0  0.40634  0.97396  0.78822  1.0000
  H   H81       1.0  0.63123  0.66335  0.49480000000000013  1.0000
  H   H82       1.0  0.61267  0.65918  0.5393300000000001  1.0000
  H   H83       1.0  0.3024899999999999  0.64118  0.48793  1.0000
  H   H84       1.0  0.30733  0.72462  0.545  1.0000
  H   H85       1.0  0.10833  0.71446  0.2387  1.0000
  H   H86       1.0  0.022769999999999995  0.72653  0.29479  1.0000
  H   H87       1.0  0.75257  0.26258  0.29649  1.0000
  H   H88       1.0  0.77626  0.30893  0.3428300000000001  1.0000
  H   H89       1.0  0.41335999999999995  0.9678  0.35379  1.0000
  H   H90       1.0  0.4009099999999999  0.93997  0.30719  1.0000
  H   H91       1.0  0.44153  0.17803  0.21595  1.0000
  H   H92       1.0  0.46988  0.14412  0.1695  1.0000
  H   H93       1.0  0.81306  0.78911  0.18495000000000003  1.0000
  H   H94       1.0  0.77204  0.83795  0.23019000000000006  1.0000
  H   H95       1.0  0.5895  0.02494  0.13440000000000002  1.0000
  H   H96       1.0  0.8360299999999998  0.77397  0.14391  1.0000
  H   H97       1.0  0.60781  0.01827  0.09539  1.0000
  H   H98       1.0  0.65625  0.99546  0.04941  1.0000
  H   H99       1.0  0.9799799999999999  0.6461  0.05986000000000001  1.0000
  H   H100      1.0  0.9508799999999998  0.65841  0.10676  1.0000
  H   H101      1.0  0.7637  0.31607  0.4702000000000001  1.0000
  H   H102      1.0  0.73454  0.30196  0.42404000000000003  1.0000
  H   H103      1.0  0.38728  0.94421  0.43565  1.0000
  H   H104      1.0  0.43151  0.97214  0.4815700000000001  1.0000
  H   H105      1.0  0.44211  0.01679  0.3933400000000001  1.0000
  H   H106      1.0  0.71152  0.24547  0.3848700000000001  1.0000
  H   H107      1.0  0.08766  0.04424  0.24359000000000003  1.0000
  H   H108      1.0  0.09184  0.02683  0.28831  1.0000
  H   H109      1.0  0.86887  0.33659  0.9947800000000001  1.0000
  H   H110      1.0  0.88744  0.34065  0.03931  1.0000
  H   H111      1.0  0.1976  0.35882  0.98794  1.0000
  H   H112      1.0  0.1929  0.27544  0.04503  1.0000
  C   C1        1.0  0.18072999999999997  0.29874  0.69003  1.0000
  C   C2        1.0  0.1929  0.27483  0.66416  1.0000
  C   C3        1.0  0.09901  0.35888  0.6472600000000002  1.0000
  C   C4        1.0  0.99162  0.46302000000000004  0.6580600000000001  1.0000
  C   C5        1.0  0.98479  0.4802  0.6841  1.0000
  C   C6        1.0  0.02443  0.40371  0.79185  1.0000
  C   C7        1.0  0.03992  0.42517  0.81777  1.0000
  C   C8        1.0  0.14607  0.53511  0.82729  1.0000
  C   C9        1.0  0.23002999999999998  0.62219  0.8094300000000001  1.0000
  C   C10       1.0  0.20861  0.59488  0.7838300000000001  1.0000
  C   C11       1.0  0.16357  0.55167  0.85455  1.0000
  C   C12       1.0  0.2616899999999999  0.64838  0.86694  1.0000
  C   C13       1.0  0.27781999999999996  0.65834  0.89433  1.0000
  C   C14       1.0  0.19298  0.56499  0.91129  1.0000
  C   C15       1.0  0.21805  0.57693  0.93708  1.0000
  C   C16       1.0  0.40076  0.77205  0.93134  1.0000
  C   C17       1.0  0.38281  0.76479  0.90521  1.0000
  C   C18       1.0  0.18317999999999998  0.26624  0.53828  1.0000
  C   C19       1.0  0.16532  0.27515  0.56426  1.0000
  C   C20       1.0  0.05914  0.38175  0.57464  1.0000
  C   C21       1.0  0.97314  0.47227  0.55759  1.0000
  C   C22       1.0  0.99692  0.45719  0.53173  1.0000
  C   C23       1.0  0.03545  0.40309  0.60166  1.0000
  C   C24       1.0  0.11885999999999998  0.33487  0.62025  1.0000
  C   C25       1.0  0.8024399999999999  0.57202  0.7473200000000001  1.0000
  C   C26       1.0  0.62462  0.57037  0.7488200000000003  1.0000
  C   C27       1.0  0.38130999999999987  0.58808  0.7230300000000002  1.0000
  C   C28       1.0  0.55919  0.58096  0.7216400000000002  1.0000
  C   C29       1.0  0.48625  0.13138  0.99787  1.0000
  C   C30       1.0  0.50524  0.37117  0.97131  1.0000
  C   C31       1.0  0.49587  0.19395  0.9705000000000003  1.0000
  C   C32       1.0  0.49124  0.9541200000000001  0.9970300000000002  1.0000
  C   C33       1.0  0.32066  0.70088  0.19005  1.0000
  C   C34       1.0  0.30781  0.72481  0.16419  1.0000
  C   C35       1.0  0.4014  0.64089  0.14725  1.0000
  C   C36       1.0  0.50904  0.53671  0.15798  1.0000
  C   C37       1.0  0.51655  0.51951  0.18402000000000002  1.0000
  C   C38       1.0  0.4764  0.59511  0.29183  1.0000
  C   C39       1.0  0.46028  0.57438  0.3177500000000001  1.0000
  C   C40       1.0  0.35392  0.4646799999999999  0.3272700000000001  1.0000
  C   C41       1.0  0.27012  0.37737  0.30942  1.0000
  C   C42       1.0  0.29216  0.40399  0.28381  1.0000
  C   C43       1.0  0.33623  0.44845  0.35453  1.0000
  C   C44       1.0  0.2383  0.35164  0.36693  1.0000
  C   C45       1.0  0.22217  0.34179  0.39433  1.0000
  C   C46       1.0  0.30699  0.43518  0.4112900000000001  1.0000
  C   C47       1.0  0.28191  0.42327  0.43708  1.0000
  C   C48       1.0  0.09922999999999997  0.22813  0.43133  1.0000
  C   C49       1.0  0.11718  0.23535  0.4052000000000001  1.0000
  C   C50       1.0  0.31678  0.7339  0.03827000000000001  1.0000
  C   C51       1.0  0.33463  0.72496  0.06425  1.0000
  C   C52       1.0  0.44078  0.61831  0.07464  1.0000
  C   C53       1.0  0.52681  0.52783  0.05759000000000001  1.0000
  C   C54       1.0  0.50305  0.54296  0.03173000000000001  1.0000
  C   C55       1.0  0.46449  0.59692  0.10165  1.0000
  C   C56       1.0  0.38117  0.66506  0.12024000000000003  1.0000
  C   C57       1.0  0.70032  0.42897  0.24733000000000002  1.0000
  C   C58       1.0  0.87774  0.43142  0.24880000000000002  1.0000
  C   C59       1.0  0.12057  0.41212  0.22298  1.0000
  C   C60       1.0  0.9426599999999999  0.4201  0.22162  1.0000
  C   C61       1.0  0.01401  0.86867  0.4978700000000001  1.0000
  C   C62       1.0  0.9948800000000001  0.62891  0.47131000000000006  1.0000
  C   C63       1.0  0.004189999999999999  0.80613  0.4704900000000001  1.0000
  C   C64       1.0  0.00886  0.04586  0.49702  1.0000
  C   C65       1.0  0.8189999999999998  0.79897  0.80998  1.0000
  C   C66       1.0  0.8069899999999999  0.77485  0.83585  1.0000
  C   C67       1.0  0.90111  0.85888  0.85273  1.0000
  C   C68       1.0  0.0086  0.9631699999999999  0.84194  1.0000
  C   C69       1.0  0.015249999999999998  0.98055  0.81589  1.0000
  C   C70       1.0  0.9751899999999999  0.90391  0.7081500000000002  1.0000
  C   C71       1.0  0.95977  0.92536  0.68223  1.0000
  C   C72       1.0  0.85375  0.03514  0.6727000000000002  1.0000
  C   C73       1.0  0.76985  0.12212  0.69056  1.0000
  C   C74       1.0  0.7912  0.09484  0.71616  1.0000
  C   C75       1.0  0.83627  0.05164  0.6454500000000002  1.0000
  C   C76       1.0  0.73833  0.14831  0.6330600000000001  1.0000
  C   C77       1.0  0.72213  0.15819  0.6056700000000003  1.0000
  C   C78       1.0  0.80671  0.06482  0.58871  1.0000
  C   C79       1.0  0.78152  0.07666  0.56292  1.0000
  C   C80       1.0  0.5992  0.2717  0.5686600000000002  1.0000
  C   C81       1.0  0.61728  0.26456  0.5948  1.0000
  C   C82       1.0  0.8167  0.76661  0.96172  1.0000
  C   C83       1.0  0.8345999999999998  0.77536  0.93575  1.0000
  C   C84       1.0  0.9410700000000001  0.88188  0.9253500000000002  1.0000
  C   C85       1.0  0.02728  0.97251  0.94239  1.0000
  C   C86       1.0  0.0034500000000000012  0.9575500000000001  0.9682500000000003  1.0000
  C   C87       1.0  0.9647999999999999  0.90315  0.8983400000000001  1.0000
  C   C88       1.0  0.88132  0.83478  0.8797500000000001  1.0000
  C   C89       1.0  0.19752  0.072  0.75267  1.0000
  C   C90       1.0  0.37534  0.07064  0.7511500000000002  1.0000
  C   C91       1.0  0.61865  0.08798  0.77698  1.0000
  C   C92       1.0  0.4407599999999999  0.081  0.77833  1.0000
  C   C93       1.0  0.51607  0.63093  0.5022  1.0000
  C   C94       1.0  0.4955899999999999  0.871  0.52869  1.0000
  C   C95       1.0  0.50497  0.69369  0.52956  1.0000
  C   C96       1.0  0.51006  0.45377  0.503  1.0000
  C   C97       1.0  0.67961  0.20065  0.30996  1.0000
  C   C98       1.0  0.69232  0.22479999999999997  0.33581  1.0000
  C   C99       1.0  0.59852  0.14089  0.35275  1.0000
  C   C100      1.0  0.49076999999999993  0.03658  0.34202  1.0000
  C   C101      1.0  0.48342  0.01915  0.3159800000000001  1.0000
  C   C102      1.0  0.52399  0.0949  0.20818000000000006  1.0000
  C   C103      1.0  0.54005  0.0742  0.18225000000000005  1.0000
  C   C104      1.0  0.6463  0.96468  0.17272  1.0000
  C   C105      1.0  0.73005  0.87748  0.19058  1.0000
  C   C106      1.0  0.70811  0.90408  0.21619  1.0000
  C   C107      1.0  0.66397  0.94851  0.14546  1.0000
  C   C108      1.0  0.7617599999999998  0.85176  0.13307000000000002  1.0000
  C   C109      1.0  0.77792  0.84189  0.10568  1.0000
  C   C110      1.0  0.69332  0.93522  0.0887  1.0000
  C   C111      1.0  0.7184799999999998  0.92333  0.06292  1.0000
  C   C112      1.0  0.90075  0.72827  0.06868  1.0000
  C   C113      1.0  0.88271  0.73547  0.09482  1.0000
  C   C114      1.0  0.6833299999999999  0.23344000000000004  0.46174  1.0000
  C   C115      1.0  0.66544  0.22472  0.43576000000000004  1.0000
  C   C116      1.0  0.559  0.11816999999999998  0.42536  1.0000
  C   C117      1.0  0.4727700000000001  0.02752  0.44238000000000005  1.0000
  C   C118      1.0  0.4966  0.04245  0.46824000000000005  1.0000
  C   C119      1.0  0.53527  0.09689  0.39835000000000004  1.0000
  C   C120      1.0  0.61871  0.16515  0.37976000000000004  1.0000
  C   C121      1.0  0.29969  0.92887  0.25268  1.0000
  C   C122      1.0  0.12216000000000002  0.9309500000000002  0.2512  1.0000
  C   C123      1.0  0.87951  0.91216  0.2773900000000001  1.0000
  C   C124      1.0  0.05754999999999998  0.91976  0.27841  1.0000
  C   C125      1.0  0.9840199999999999  0.369  0.00219  1.0000
  C   C126      1.0  0.00448  0.12894  0.028690000000000007  1.0000
  C   C127      1.0  0.99516  0.30621  0.02955  1.0000
  C   C128      1.0  0.9900399999999999  0.54617  0.0030000000000000005  1.0000
  N   N1        1.0  0.07925  0.40099  0.69989  1.0000
  N   N2        1.0  0.10909  0.48626  0.7751800000000001  1.0000
  N   N3        1.0  0.3214  0.678  0.9470600000000002  1.0000
  N   N4        1.0  0.10108  0.35669  0.52231  1.0000
  N   N5        1.0  0.42249  0.59873  0.19986  1.0000
  N   N6        1.0  0.39218  0.51212  0.27516000000000007  1.0000
  N   N7        1.0  0.17859  0.32219  0.44705000000000006  1.0000
  N   N8        1.0  0.39886  0.64344  0.02231  1.0000
  N   N9        1.0  0.9205399999999998  0.90139  0.80011  1.0000
  N   N10       1.0  0.89061  0.98636  0.72481  1.0000
  N   N11       1.0  0.6782899999999997  0.17763  0.55295  1.0000
  N   N12       1.0  0.89905  0.8571  0.9776800000000002  1.0000
  N   N13       1.0  0.57773  0.09832  0.30016  1.0000
  N   N14       1.0  0.60821  0.01205  0.22485000000000005  1.0000
  N   N15       1.0  0.8216799999999997  0.82234  0.05296  1.0000
  N   N16       1.0  0.60099  0.14291  0.47769  1.0000
  O   O1        1.0  0.85995  0.44468  0.73864  1.0000
  O   O2        1.0  0.31855  0.46871  0.7337700000000003  1.0000
  O   O3        1.0  0.56211  0.68388  0.76519  1.0000
  O   O4        1.0  0.61735  0.71195  0.70831  1.0000
  O   O5        1.0  0.3835699999999999  0.43684  0.98101  1.0000
  O   O6        1.0  0.37222  0.89186  0.9860300000000001  1.0000
  O   O7        1.0  0.60292  0.88188  0.00642  1.0000
  O   O8        1.0  0.8813899999999998  0.68731  0.75379  1.0000
  O   O9        1.0  0.62465  0.43722  0.96334  1.0000
  O   O10       1.0  0.31252  0.70368  0.71452  1.0000
  O   O11       1.0  0.60073  0.19595  0.01396  1.0000
  O   O12       1.0  0.62602  0.13301  0.95712  1.0000
  O   O13       1.0  0.64085  0.55553  0.23866  1.0000
  O   O14       1.0  0.18446  0.53096  0.23372  1.0000
  O   O15       1.0  0.93886  0.31706  0.26517  1.0000
  O   O16       1.0  0.88336  0.28908  0.20837000000000006  1.0000
  O   O17       1.0  0.11653999999999999  0.5632  0.4810100000000001  1.0000
  O   O18       1.0  0.12785  0.10809  0.4860200000000001  1.0000
  O   O19       1.0  0.89715  0.11805  0.50641  1.0000
  O   O20       1.0  0.62415  0.31217  0.25381  1.0000
  O   O21       1.0  0.87546  0.56289  0.4633200000000001  1.0000
  O   O22       1.0  0.18818  0.29601  0.21444  1.0000
  O   O23       1.0  0.89962  0.80402  0.51397  1.0000
  O   O24       1.0  0.8738499999999999  0.86694  0.45712  1.0000
  O   O25       1.0  0.13992  0.94461  0.7613600000000003  1.0000
  O   O26       1.0  0.68126  0.9688200000000001  0.7662000000000002  1.0000
  O   O27       1.0  0.43793  0.1845  0.73482  1.0000
  O   O28       1.0  0.3829  0.21195  0.79168  1.0000
  O   O29       1.0  0.61696  0.9368699999999999  0.51894  1.0000
  O   O30       1.0  0.62928  0.39145  0.51393  1.0000
  O   O31       1.0  0.39783999999999997  0.38193  0.49363000000000007  1.0000
  O   O32       1.0  0.11866  0.18722  0.7462100000000002  1.0000
  O   O33       1.0  0.37631  0.9370100000000001  0.53665  1.0000
  O   O34       1.0  0.6876  0.20351  0.7855500000000001  1.0000
  O   O35       1.0  0.40301  0.69587  0.48591  1.0000
  O   O36       1.0  0.37405  0.63312  0.54283  1.0000
  O   O37       1.0  0.3593  0.05548  0.26134  1.0000
  O   O38       1.0  0.8157799999999997  0.029879999999999997  0.26633  1.0000
  O   O39       1.0  0.06103  0.8163999999999999  0.23484000000000005  1.0000
  O   O40       1.0  0.11683999999999999  0.78884  0.29164  1.0000
  O   O41       1.0  0.8831  0.06304  0.018940000000000002  1.0000
  O   O42       1.0  0.8708899999999998  0.6085  0.013930000000000003  1.0000
  O   O43       1.0  0.10222  0.61803  0.99363  1.0000
  O   O44       1.0  0.3759  0.81226  0.24619000000000005  1.0000
  O   O45       1.0  0.12379999999999998  0.06297  0.03666  1.0000
  O   O46       1.0  0.81208  0.79751  0.28661  1.0000
  O   O47       1.0  0.09709  0.30413  0.98591  1.0000
  O   O48       1.0  0.12604  0.36683  0.04284  1.0000
