data_image0
_chemical_formula_structural       Ni4H152C106N24O24
_chemical_formula_sum              "Ni4 H152 C106 N24 O24"
_cell_length_a       8.81127
_cell_length_b       19.24526
_cell_length_c       23.950750000000003
_cell_angle_alpha    86.11150000000002
_cell_angle_beta     79.41203
_cell_angle_gamma    76.75379

_space_group_name_H-M_alt    "P 1"
_space_group_IT_number       1

loop_
  _space_group_symop_operation_xyz
  'x, y, z'

loop_
  _atom_site_type_symbol
  _atom_site_label
  _atom_site_symmetry_multiplicity
  _atom_site_fract_x
  _atom_site_fract_y
  _atom_site_fract_z
  _atom_site_occupancy
  Ni  Ni1       1.0  0.5033599999999999  0.49868  0.9992900000000001  1.0000
  Ni  Ni2       1.0  0.0003599999999998513  0.9999200000000001  0.4999000000000001  1.0000
  Ni  Ni3       1.0  0.5014799999999999  0.99988  3e-05  1.0000
  Ni  Ni4       1.0  0.50296  0.49945  0.49917  1.0000
  H   H1        1.0  0.6141999999999997  0.38477  0.048470000000000006  1.0000
  H   H2        1.0  0.7436299999999999  0.5284200000000001  0.029  1.0000
  H   H3        1.0  0.36338  0.47637  0.12964  1.0000
  H   H4        1.0  0.49323  0.3970400000000001  0.15056000000000003  1.0000
  H   H5        1.0  0.65067  0.58315  0.12127000000000003  1.0000
  H   H6        1.0  0.4547399999999999  0.58254  0.11095  1.0000
  H   H7        1.0  0.26352000000000003  0.4148  0.06946  1.0000
  H   H8        1.0  0.38903  0.32871  0.07437  1.0000
  H   H9        1.0  0.6952199999999997  0.65526  0.02016  1.0000
  H   H10       1.0  0.48972999999999983  0.6574300000000002  0.028780000000000007  1.0000
  H   H11       1.0  0.8151200000000001  0.42255  0.08272  1.0000
  H   H12       1.0  0.7610699999999999  0.39713  0.15504000000000004  1.0000
  H   H13       1.0  0.82991  0.47731000000000007  0.13826  1.0000
  H   H14       1.0  0.5147799999999999  0.9144100000000001  0.9244  1.0000
  H   H15       1.0  0.26121  0.94682  0.03724  1.0000
  H   H16       1.0  0.39272  0.9853600000000001  0.13198000000000001  1.0000
  H   H17       1.0  0.19303999999999982  0.9786400000000001  0.13446  1.0000
  H   H18       1.0  0.53401  0.87521  0.09016000000000002  1.0000
  H   H19       1.0  0.35208999999999996  0.84569  0.09933  1.0000
  H   H20       1.0  0.7876699999999999  0.8939400000000001  0.8768100000000001  1.0000
  H   H21       1.0  0.8373  0.92147  0.9393100000000002  1.0000
  H   H22       1.0  0.6771299999999998  0.79838  0.95305  1.0000
  H   H23       1.0  0.72151  0.84592  0.007360000000000002  1.0000
  H   H24       1.0  0.3081099999999998  0.86114  0.96941  1.0000
  H   H25       1.0  0.2832799999999999  0.79272  0.022610000000000005  1.0000
  H   H26       1.0  0.42463999999999974  0.77315  0.9598200000000002  1.0000
  H   H27       1.0  0.70366  0.13560000000000003  0.76958  1.0000
  H   H28       1.0  0.84629  0.17543  0.72298  1.0000
  H   H29       1.0  0.4474600000000001  0.20838  0.81072  1.0000
  H   H30       1.0  0.5368  0.2687  0.84024  1.0000
  H   H31       1.0  0.06908999999999982  0.2825500000000001  0.9673300000000001  1.0000
  H   H32       1.0  0.18813999999999997  0.98985  0.81154  1.0000
  H   H33       1.0  0.9837099999999996  0.07255  0.7635800000000003  1.0000
  H   H34       1.0  0.31407  0.24798  0.8958800000000001  1.0000
  H   H35       1.0  0.12201000000000002  0.4144900000000001  0.7816  1.0000
  H   H36       1.0  0.88037  0.45050999999999997  0.8565100000000001  1.0000
  H   H37       1.0  0.10534999999999996  0.13664  0.9456700000000002  1.0000
  H   H38       1.0  0.9048  0.22176  0.8978000000000002  1.0000
  H   H39       1.0  0.04737999999999998  0.11444000000000001  0.45197  1.0000
  H   H40       1.0  0.2991699999999999  0.97198  0.47117000000000003  1.0000
  H   H41       1.0  0.9699199999999999  0.02419  0.36961000000000005  1.0000
  H   H42       1.0  0.041589999999999926  0.10358  0.3496100000000001  1.0000
  H   H43       1.0  0.3554899999999997  0.9170700000000002  0.37846000000000013  1.0000
  H   H44       1.0  0.14883  0.91766  0.38849  1.0000
  H   H45       1.0  0.7474799999999999  0.08553000000000001  0.43026000000000003  1.0000
  H   H46       1.0  0.7930199999999998  0.17138000000000006  0.4259400000000001  1.0000
  H   H47       1.0  0.37123999999999996  0.84472  0.47972000000000004  1.0000
  H   H48       1.0  0.17703999999999995  0.84222  0.47080000000000005  1.0000
  H   H49       1.0  0.32053999999999994  0.07753  0.4174300000000001  1.0000
  H   H50       1.0  0.31382000000000004  0.10311  0.34509  1.0000
  H   H51       1.0  0.44586  0.022870000000000005  0.3619100000000001  1.0000
  H   H52       1.0  0.3530199999999999  0.58515  0.5751700000000001  1.0000
  H   H53       1.0  0.24714999999999998  0.55291  0.46272  1.0000
  H   H54       1.0  0.5112700000000004  0.51484  0.36763  1.0000
  H   H55       1.0  0.30723999999999996  0.52166  0.36517  1.0000
  H   H56       1.0  0.5000699999999998  0.62515  0.40975000000000006  1.0000
  H   H57       1.0  0.29771  0.65441  0.4006  1.0000
  H   H58       1.0  0.5571299999999996  0.60581  0.6232400000000001  1.0000
  H   H59       1.0  0.6973199999999999  0.57827  0.5609100000000001  1.0000
  H   H60       1.0  0.42785  0.7011700000000001  0.54729  1.0000
  H   H61       1.0  0.5747599999999998  0.65392  0.4929900000000001  1.0000
  H   H62       1.0  0.13857999999999998  0.63884  0.5303800000000001  1.0000
  H   H63       1.0  0.09876999999999989  0.70741  0.47722  1.0000
  H   H64       1.0  0.15743  0.7268  0.5401100000000001  1.0000
  H   H65       1.0  0.60527  0.36338  0.7310900000000002  1.0000
  H   H66       1.0  0.7429099999999998  0.32429  0.7772400000000002  1.0000
  H   H67       1.0  0.46585000000000004  0.2887  0.68977  1.0000
  H   H68       1.0  0.6473999999999999  0.23016  0.6601500000000001  1.0000
  H   H69       1.0  0.3177999999999999  0.21690000000000004  0.5336000000000001  1.0000
  H   H70       1.0  0.9892599999999998  0.50939  0.6884800000000001  1.0000
  H   H71       1.0  0.81878  0.42706000000000005  0.73642  1.0000
  H   H72       1.0  0.45888999999999974  0.25001  0.6048100000000001  1.0000
  H   H73       1.0  0.32012999999999986  0.08287  0.71827  1.0000
  H   H74       1.0  0.18601999999999996  0.04834  0.64388  1.0000
  H   H75       1.0  0.18627  0.36215  0.55442  1.0000
  H   H76       1.0  0.02178  0.27783  0.60223  1.0000
  H   H77       1.0  0.3872099999999999  0.6133199999999999  0.9520100000000002  1.0000
  H   H78       1.0  0.2602599999999996  0.47217  0.9713200000000002  1.0000
  H   H79       1.0  0.6372399999999997  0.52357  0.8693000000000002  1.0000
  H   H80       1.0  0.5061699999999999  0.60304  0.8494200000000002  1.0000
  H   H81       1.0  0.34893999999999986  0.41679000000000005  0.8783200000000002  1.0000
  H   H82       1.0  0.54563  0.41696  0.88794  1.0000
  H   H83       1.0  0.7378799999999996  0.5855000000000002  0.93014  1.0000
  H   H84       1.0  0.6098699999999997  0.67105  0.9255800000000002  1.0000
  H   H85       1.0  0.30427999999999983  0.34456  0.97974  1.0000
  H   H86       1.0  0.5102199999999998  0.34131  0.9711000000000002  1.0000
  H   H87       1.0  0.18533000000000005  0.57735  0.9173100000000001  1.0000
  H   H88       1.0  0.23896999999999988  0.6028300000000001  0.8450000000000002  1.0000
  H   H89       1.0  0.16996000000000006  0.52269  0.86178  1.0000
  H   H90       1.0  0.48515  0.08584000000000001  0.07574000000000002  1.0000
  H   H91       1.0  0.73985  0.05344000000000001  0.9624900000000002  1.0000
  H   H92       1.0  0.6073199999999997  0.01468999999999999  0.8680800000000002  1.0000
  H   H93       1.0  0.8071799999999998  0.021329999999999995  0.8653900000000002  1.0000
  H   H94       1.0  0.4661399999999999  0.12470000000000002  0.9098900000000002  1.0000
  H   H95       1.0  0.6478200000000001  0.15445  0.90063  1.0000
  H   H96       1.0  0.21237  0.10605  0.12315  1.0000
  H   H97       1.0  0.16303999999999996  0.07852  0.06061000000000001  1.0000
  H   H98       1.0  0.32287  0.20168  0.04691  1.0000
  H   H99       1.0  0.27861  0.15401  0.99267  1.0000
  H   H100      1.0  0.6918699999999999  0.13886  0.030590000000000006  1.0000
  H   H101      1.0  0.71681  0.20728999999999997  0.9774  1.0000
  H   H102      1.0  0.5753999999999999  0.22686000000000003  0.040190000000000003  1.0000
  H   H103      1.0  0.29635999999999996  0.8644100000000001  0.23041  1.0000
  H   H104      1.0  0.15381000000000003  0.82455  0.27701  1.0000
  H   H105      1.0  0.55266  0.7916299999999998  0.18924000000000002  1.0000
  H   H106      1.0  0.46328999999999987  0.7312900000000002  0.15973000000000004  1.0000
  H   H107      1.0  0.93172  0.71716  0.03257  1.0000
  H   H108      1.0  0.81189  0.01015  0.18849000000000005  1.0000
  H   H109      1.0  0.016349999999999882  0.92744  0.23644000000000007  1.0000
  H   H110      1.0  0.6868499999999998  0.75181  0.10393  1.0000
  H   H111      1.0  0.8783199999999998  0.58544  0.21835000000000004  1.0000
  H   H112      1.0  0.12004  0.54921  0.14355  1.0000
  H   H113      1.0  0.89466  0.8633700000000001  0.05436  1.0000
  H   H114      1.0  0.09516999999999996  0.77824  0.1022  1.0000
  H   H115      1.0  0.95276  0.8854100000000001  0.54808  1.0000
  H   H116      1.0  0.70095  0.02796  0.52883  1.0000
  H   H117      1.0  0.03013999999999986  0.9757800000000001  0.63034  1.0000
  H   H118      1.0  0.9584699999999998  0.8964200000000001  0.6504200000000001  1.0000
  H   H119      1.0  0.64465  0.08289  0.62146  1.0000
  H   H120      1.0  0.8512799999999999  0.08231000000000002  0.61148  1.0000
  H   H121      1.0  0.25254000000000004  0.91442  0.56975  1.0000
  H   H122      1.0  0.20723999999999992  0.82855  0.5740800000000001  1.0000
  H   H123      1.0  0.6289200000000001  0.15515000000000004  0.5203  1.0000
  H   H124      1.0  0.82316  0.15768  0.5292  1.0000
  H   H125      1.0  0.67946  0.9224700000000001  0.58257  1.0000
  H   H126      1.0  0.6861800000000001  0.89689  0.65492  1.0000
  H   H127      1.0  0.55418  0.97714  0.6381  1.0000
  H   H128      1.0  0.64874  0.41354  0.4236300000000001  1.0000
  H   H129      1.0  0.75644  0.44615000000000005  0.53799  1.0000
  H   H130      1.0  0.4889699999999999  0.48498  0.6317100000000001  1.0000
  H   H131      1.0  0.6925  0.47838  0.6348400000000001  1.0000
  H   H132      1.0  0.5001900000000001  0.37540000000000007  0.5899  1.0000
  H   H133      1.0  0.70215  0.34535  0.59939  1.0000
  H   H134      1.0  0.44184  0.39409000000000005  0.3764  1.0000
  H   H135      1.0  0.3036  0.42179  0.43917000000000006  1.0000
  H   H136      1.0  0.5719399999999999  0.29825  0.45288  1.0000
  H   H137      1.0  0.4255199999999999  0.3466100000000001  0.50681  1.0000
  H   H138      1.0  0.8616  0.36107  0.4696100000000001  1.0000
  H   H139      1.0  0.90144  0.2925  0.52275  1.0000
  H   H140      1.0  0.8429599999999998  0.27307  0.4598200000000001  1.0000
  H   H141      1.0  0.3947599999999999  0.6366300000000001  0.2689  1.0000
  H   H142      1.0  0.25713  0.67574  0.22275  1.0000
  H   H143      1.0  0.5341999999999996  0.7113  0.31022  1.0000
  H   H144      1.0  0.35262000000000004  0.76984  0.33983  1.0000
  H   H145      1.0  0.68218  0.7831  0.46640000000000004  1.0000
  H   H146      1.0  0.011179999999999947  0.49065  0.3113600000000001  1.0000
  H   H147      1.0  0.18157000000000006  0.57309  0.26343  1.0000
  H   H148      1.0  0.5410699999999997  0.74999  0.39519000000000004  1.0000
  H   H149      1.0  0.6798799999999999  0.91713  0.28173  1.0000
  H   H150      1.0  0.8139799999999997  0.95165  0.35613000000000006  1.0000
  H   H151      1.0  0.8140199999999999  0.63778  0.4454700000000001  1.0000
  H   H152      1.0  0.9782999999999998  0.7222100000000001  0.39771  1.0000
  C   C1        1.0  0.48323999999999995  0.44275000000000003  0.12013000000000003  1.0000
  C   C2        1.0  0.5794299999999999  0.5543  0.10235  1.0000
  C   C3        1.0  0.37958999999999987  0.38129  0.052270000000000004  1.0000
  C   C4        1.0  0.60821  0.6265  0.0114  1.0000
  C   C5        1.0  0.7591099999999996  0.44315  0.12524  1.0000
  C   C6        1.0  0.2967399999999999  0.99289  0.10715000000000002  1.0000
  C   C7        1.0  0.43424999999999997  0.8718100000000001  0.06974  1.0000
  C   C8        1.0  0.7433699999999996  0.9290400000000001  0.9134800000000002  1.0000
  C   C9        1.0  0.6309100000000001  0.84332  0.98215  1.0000
  C   C10       1.0  0.37028999999999984  0.8140900000000001  0.9916100000000002  1.0000
  C   C11       1.0  0.7518299999999999  0.18387  0.7604400000000001  1.0000
  C   C12       1.0  0.15908000000000003  0.05818  0.88137  1.0000
  C   C13       1.0  0.4908199999999998  0.25798  0.8028000000000001  1.0000
  C   C14       1.0  0.23303000000000004  0.32957  0.83399  1.0000
  C   C15       1.0  0.08305999999999988  0.31154000000000004  0.9267400000000001  1.0000
  C   C16       1.0  0.9603699999999998  0.36877  0.91663  1.0000
  C   C17       1.0  0.12408999999999988  0.04069  0.8300400000000002  1.0000
  C   C18       1.0  0.9296199999999999  0.15164  0.82886  1.0000
  C   C19       1.0  0.009749999999999833  0.08687000000000002  0.8033800000000002  1.0000
  C   C20       1.0  0.21962999999999994  0.2917100000000001  0.88614  1.0000
  C   C21       1.0  0.28487  0.009459999999999996  0.90926  1.0000
  C   C22       1.0  0.10984999999999996  0.38653  0.8226600000000002  1.0000
  C   C23       1.0  0.9761300000000002  0.40598999999999996  0.86405  1.0000
  C   C24       1.0  0.07772999999999988  0.12356999999999997  0.9057800000000003  1.0000
  C   C25       1.0  0.8148399999999998  0.38882  0.9611500000000002  1.0000
  C   C26       1.0  0.9653699999999998  0.17033  0.8797700000000002  1.0000
  C   C27       1.0  0.04650999999999993  0.05753  0.37969000000000014  1.0000
  C   C28       1.0  0.23645000000000005  0.94583  0.39736  1.0000
  C   C29       1.0  0.81334  0.11858  0.4477200000000001  1.0000
  C   C30       1.0  0.24656000000000003  0.87332  0.4883200000000001  1.0000
  C   C31       1.0  0.3278299999999999  0.057039999999999993  0.37485  1.0000
  C   C32       1.0  0.39800999999999986  0.50727  0.39244  1.0000
  C   C33       1.0  0.37654999999999994  0.6283000000000001  0.43015000000000003  1.0000
  C   C34       1.0  0.5849999999999999  0.57065  0.58659  1.0000
  C   C35       1.0  0.45614  0.65642  0.51798  1.0000
  C   C36       1.0  0.17599999999999982  0.6859  0.5082600000000002  1.0000
  C   C37       1.0  0.6942299999999996  0.31551000000000007  0.73987  1.0000
  C   C38       1.0  0.09713000000000004  0.44132  0.61837  1.0000
  C   C39       1.0  0.5529699999999999  0.23976000000000003  0.69755  1.0000
  C   C40       1.0  0.39861  0.16795  0.6663000000000001  1.0000
  C   C41       1.0  0.3200700000000001  0.18756999999999996  0.5740500000000001  1.0000
  C   C42       1.0  0.24374  0.1306  0.58392  1.0000
  C   C43       1.0  0.99386  0.45875  0.6698500000000001  1.0000
  C   C44       1.0  0.9081099999999999  0.34809  0.6711300000000001  1.0000
  C   C45       1.0  0.8988  0.41273  0.69661  1.0000
  C   C46       1.0  0.39792999999999995  0.20648  0.6144900000000001  1.0000
  C   C47       1.0  0.20113999999999999  0.49046000000000006  0.59032  1.0000
  C   C48       1.0  0.32005000000000006  0.11133000000000001  0.67745  1.0000
  C   C49       1.0  0.24503999999999992  0.09279000000000001  0.6362600000000002  1.0000
  C   C50       1.0  0.10546000000000004  0.37579  0.59417  1.0000
  C   C51       1.0  0.16343999999999995  0.11092000000000002  0.53897  1.0000
  C   C52       1.0  0.013390000000000011  0.32922  0.62025  1.0000
  C   C53       1.0  0.5172699999999999  0.55695  0.8794700000000001  1.0000
  C   C54       1.0  0.42106999999999994  0.44529  0.8971100000000001  1.0000
  C   C55       1.0  0.6210499999999998  0.6183  0.94747  1.0000
  C   C56       1.0  0.39227999999999996  0.37287000000000003  0.9883300000000002  1.0000
  C   C57       1.0  0.24103999999999975  0.5567600000000001  0.8747500000000001  1.0000
  C   C58       1.0  0.7035699999999998  0.0071299999999999905  0.8927900000000002  1.0000
  C   C59       1.0  0.5659099999999999  0.12823  0.93026  1.0000
  C   C60       1.0  0.25691  0.07096  0.08646  1.0000
  C   C61       1.0  0.3692099999999999  0.15669000000000002  0.01785  1.0000
  C   C62       1.0  0.62976  0.18593  0.00839  1.0000
  C   C63       1.0  0.2482699999999999  0.81612  0.23954  1.0000
  C   C64       1.0  0.8409899999999997  0.94183  0.11867000000000003  1.0000
  C   C65       1.0  0.5094100000000001  0.742  0.19715  1.0000
  C   C66       1.0  0.7674300000000001  0.6703  0.16592000000000004  1.0000
  C   C67       1.0  0.9178499999999999  0.68812  0.07315000000000002  1.0000
  C   C68       1.0  0.040549999999999926  0.6308300000000001  0.08325  1.0000
  C   C69       1.0  0.8759499999999999  0.9593100000000001  0.17  1.0000
  C   C70       1.0  0.07039999999999998  0.84835  0.17115  1.0000
  C   C71       1.0  0.9902999999999998  0.91313  0.19665000000000002  1.0000
  C   C72       1.0  0.7811699999999999  0.70805  0.11372  1.0000
  C   C73       1.0  0.71536  0.9905900000000001  0.09079000000000001  1.0000
  C   C74       1.0  0.8906199999999999  0.61334  0.17726  1.0000
  C   C75       1.0  0.02446  0.59377  0.13589  1.0000
  C   C76       1.0  0.9222699999999999  0.87643  0.09425  1.0000
  C   C77       1.0  0.18608  0.61052  0.03859  1.0000
  C   C78       1.0  0.03461999999999995  0.82966  0.12025000000000001  1.0000
  C   C79       1.0  0.9535699999999998  0.9424300000000001  0.62029  1.0000
  C   C80       1.0  0.76371  0.054109999999999984  0.6026  1.0000
  C   C81       1.0  0.1867799999999999  0.8813400000000001  0.55228  1.0000
  C   C82       1.0  0.75362  0.12658  0.51168  1.0000
  C   C83       1.0  0.6721999999999999  0.94295  0.6251500000000001  1.0000
  C   C84       1.0  0.6025699999999999  0.4926  0.60724  1.0000
  C   C85       1.0  0.62402  0.37165  0.56966  1.0000
  C   C86       1.0  0.4155299999999999  0.42916000000000004  0.41305  1.0000
  C   C87       1.0  0.54437  0.34334999999999993  0.4818000000000001  1.0000
  C   C88       1.0  0.82429  0.31396  0.49168  1.0000
  C   C89       1.0  0.30589  0.68452  0.26009  1.0000
  C   C90       1.0  0.90351  0.55868  0.38146  1.0000
  C   C91       1.0  0.4470899999999999  0.76024  0.30244  1.0000
  C   C92       1.0  0.60139  0.83205  0.33369  1.0000
  C   C93       1.0  0.6798999999999996  0.81242  0.42595000000000005  1.0000
  C   C94       1.0  0.7562299999999998  0.8693900000000001  0.41608  1.0000
  C   C95       1.0  0.006659999999999971  0.54129  0.32998000000000005  1.0000
  C   C96       1.0  0.09207999999999986  0.6519700000000002  0.3287900000000001  1.0000
  C   C97       1.0  0.10155999999999994  0.58736  0.30325  1.0000
  C   C98       1.0  0.6020399999999999  0.79351  0.38550000000000006  1.0000
  C   C99       1.0  0.7996800000000001  0.50952  0.40941  1.0000
  C   C100      1.0  0.6799399999999997  0.88867  0.32255  1.0000
  C   C101      1.0  0.7549399999999999  0.9072  0.36374  1.0000
  C   C102      1.0  0.8948899999999999  0.6242  0.40573  1.0000
  C   C103      1.0  0.8366399999999998  0.88903  0.4610000000000001  1.0000
  C   C104      1.0  0.98678  0.6708300000000001  0.37967  1.0000
  C   C105      1.0  0.6213899999999997  0.24929  0.7501900000000001  1.0000
  C   C106      1.0  0.37878000000000006  0.75071  0.24977000000000005  1.0000
  N   N1        1.0  0.5027999999999999  0.41772000000000004  0.06134  1.0000
  N   N2        1.0  0.6274000000000001  0.55457  0.03912  1.0000
  N   N3        1.0  0.59544  0.48381  0.12847  1.0000
  N   N4        1.0  0.60105  0.9120600000000001  0.9495900000000002  1.0000
  N   N5        1.0  0.35492  0.94697  0.05703000000000001  1.0000
  N   N6        1.0  0.4934  0.82827  0.02016  1.0000
  N   N7        1.0  0.9818099999999998  0.08181000000000001  0.43863  1.0000
  N   N8        1.0  0.2207999999999998  0.9452400000000001  0.46063  1.0000
  N   N9        1.0  0.20812999999999998  0.016439999999999996  0.37140000000000006  1.0000
  N   N10       1.0  0.46236999999999995  0.58746  0.55023  1.0000
  N   N11       1.0  0.36039999999999994  0.55301  0.4426500000000001  1.0000
  N   N12       1.0  0.3419999999999997  0.67172  0.4798200000000001  1.0000
  N   N13       1.0  0.4991400000000001  0.5810800000000003  0.9384300000000001  1.0000
  N   N14       1.0  0.37519999999999987  0.44465000000000005  0.9604200000000003  1.0000
  N   N15       1.0  0.40474999999999994  0.51598  0.8712600000000001  1.0000
  N   N16       1.0  0.39932  0.08798000000000002  0.05044  1.0000
  N   N17       1.0  0.6458899999999999  0.05312000000000001  0.9429100000000002  1.0000
  N   N18       1.0  0.5066699999999996  0.17177  0.9798300000000002  1.0000
  N   N19       1.0  0.01829999999999997  0.9181000000000001  0.56135  1.0000
  N   N20       1.0  0.77946  0.05465000000000001  0.53934  1.0000
  N   N21       1.0  0.7919600000000001  0.98353  0.6285900000000001  1.0000
  N   N22       1.0  0.5395099999999999  0.41184  0.4488900000000001  1.0000
  N   N23       1.0  0.64205  0.4466600000000001  0.55706  1.0000
  N   N24       1.0  0.65829  0.32813  0.52005  1.0000
  O   O1        1.0  0.8116699999999999  0.20077  0.8086100000000002  1.0000
  O   O2        1.0  0.3102  0.0333  0.9550400000000001  1.0000
  O   O3        1.0  0.35641999999999985  0.95109  0.88617  1.0000
  O   O4        1.0  0.7200999999999999  0.44849000000000006  0.95171  1.0000
  O   O5        1.0  0.7957099999999999  0.34675  0.00344  1.0000
  O   O6        1.0  0.3636899999999999  0.316  0.7918100000000001  1.0000
  O   O7        1.0  0.8186699999999997  0.29917  0.69147  1.0000
  O   O8        1.0  0.29614999999999997  0.46699  0.54446  1.0000
  O   O9        1.0  0.1900499999999999  0.54892  0.6135000000000002  1.0000
  O   O10       1.0  0.12139000000000008  0.05066  0.54753  1.0000
  O   O11       1.0  0.14376999999999984  0.15355000000000002  0.49703000000000014  1.0000
  O   O12       1.0  0.4763899999999998  0.18053  0.7080600000000001  1.0000
  O   O13       1.0  0.18835999999999994  0.79922  0.19139000000000003  1.0000
  O   O14       1.0  0.6903199999999999  0.96675  0.04495  1.0000
  O   O15       1.0  0.6436799999999999  0.04893  0.11386  1.0000
  O   O16       1.0  0.28047000000000005  0.55057  0.047540000000000006  1.0000
  O   O17       1.0  0.20500999999999986  0.65295  0.9964700000000001  1.0000
  O   O18       1.0  0.6366299999999999  0.68397  0.20810000000000003  1.0000
  O   O19       1.0  0.18147000000000002  0.7009  0.30850000000000005  1.0000
  O   O20       1.0  0.7047599999999994  0.5331  0.45529  1.0000
  O   O21       1.0  0.8103899999999997  0.4511  0.38628  1.0000
  O   O22       1.0  0.87889  0.94924  0.45239000000000007  1.0000
  O   O23       1.0  0.8561899999999997  0.84642  0.50296  1.0000
  O   O24       1.0  0.52363  0.81948  0.29193  1.0000
