data_image0
_chemical_formula_structural       Co4H80C124S8N24O32
_chemical_formula_sum              "Co4 H80 C124 S8 N24 O32"
_cell_length_a       13.30879
_cell_length_b       13.41087
_cell_length_c       26.777910000000002
_cell_angle_alpha    90.00827000000001
_cell_angle_beta     89.92378
_cell_angle_gamma    89.47982999999999

_space_group_name_H-M_alt    "P 1"
_space_group_IT_number       1

loop_
  _space_group_symop_operation_xyz
  'x, y, z'

loop_
  _atom_site_type_symbol
  _atom_site_label
  _atom_site_symmetry_multiplicity
  _atom_site_fract_x
  _atom_site_fract_y
  _atom_site_fract_z
  _atom_site_occupancy
  Co  Co1       1.0  0.24795999999999996  0.24931000000000006  0.88927  1.0000
  Co  Co2       1.0  0.7493  0.75176  0.38399  1.0000
  Co  Co3       1.0  0.74946  0.75104  0.11884  1.0000
  Co  Co4       1.0  0.24821999999999997  0.25121  0.6124700000000001  1.0000
  H   H1        1.0  0.35479  0.15391  0.79913  1.0000
  H   H2        1.0  0.49136  0.19423  0.73812  1.0000
  H   H3        1.0  0.51913  0.47973  0.81131  1.0000
  H   H4        1.0  0.37832999999999994  0.42895  0.86773  1.0000
  H   H5        1.0  0.7609399999999998  0.3675  0.69146  1.0000
  H   H6        1.0  0.59124  0.19948000000000002  0.62011  1.0000
  H   H7        1.0  0.77337  0.08432  0.48935  1.0000
  H   H8        1.0  0.54802  0.87924  0.5412  1.0000
  H   H9        1.0  0.8112099999999998  0.9648900000000002  0.4203  1.0000
  H   H10       1.0  0.5983299999999998  0.76523  0.47065999999999997  1.0000
  H   H11       1.0  0.13979  0.34817000000000004  0.80039  1.0000
  H   H12       1.0  0.005290000000000001  0.30851  0.7383799999999999  1.0000
  H   H13       1.0  0.97982  0.01969  0.8083899999999999  1.0000
  H   H14       1.0  0.11729999999999997  0.0707  0.8666299999999999  1.0000
  H   H15       1.0  0.73579  0.1358  0.6913  1.0000
  H   H16       1.0  0.90684  0.30288  0.62037  1.0000
  H   H17       1.0  0.7242  0.42001  0.4905  1.0000
  H   H18       1.0  0.95333  0.62303  0.5403  1.0000
  H   H19       1.0  0.6861699999999998  0.5392800000000001  0.42150999999999994  1.0000
  H   H20       1.0  0.90196  0.73723  0.47014999999999996  1.0000
  H   H21       1.0  0.8455  0.8673900000000001  0.2956  1.0000
  H   H22       1.0  0.79896  0.007680000000000002  0.23837  1.0000
  H   H23       1.0  0.50675  0.014580000000000003  0.30893  1.0000
  H   H24       1.0  0.56522  0.87273  0.36255  1.0000
  H   H25       1.0  0.58555  0.23081000000000004  0.16814  1.0000
  H   H26       1.0  0.7396099999999998  0.13377  0.08402  1.0000
  H   H27       1.0  0.92594  0.28833000000000003  0.9976899999999999  1.0000
  H   H28       1.0  0.1169  0.04385000000000001  0.044539999999999996  1.0000
  H   H29       1.0  0.046139999999999994  0.31889  0.92812  1.0000
  H   H30       1.0  0.23352999999999996  0.08896  0.97409  1.0000
  H   H31       1.0  0.65346  0.63526  0.2953  1.0000
  H   H32       1.0  0.69946  0.4932400000000001  0.23899999999999996  1.0000
  H   H33       1.0  0.9910499999999999  0.48598000000000013  0.3098099999999999  1.0000
  H   H34       1.0  0.93308  0.6294  0.36246999999999996  1.0000
  H   H35       1.0  0.9107399999999999  0.27508  0.1666  1.0000
  H   H36       1.0  0.75689  0.36614  0.08315  1.0000
  H   H37       1.0  0.57131  0.21025  0.99757  1.0000
  H   H38       1.0  0.38105  0.4559100000000001  0.04364  1.0000
  H   H39       1.0  0.45069  0.17809000000000005  0.92846  1.0000
  H   H40       1.0  0.26339  0.4089900000000001  0.97389  1.0000
  H   H41       1.0  0.6275  0.8469400000000002  0.20667  1.0000
  H   H42       1.0  0.48187  0.8039500000000003  0.26119  1.0000
  H   H43       1.0  0.4843  0.51164  0.19317  1.0000
  H   H44       1.0  0.63183  0.56636  0.14223  1.0000
  H   H45       1.0  0.26889  0.58756  0.33574  1.0000
  H   H46       1.0  0.41036  0.7935800000000002  0.37982  1.0000
  H   H47       1.0  0.21791  0.9209  0.50508  1.0000
  H   H48       1.0  0.4528699999999999  0.11949000000000003  0.45736999999999994  1.0000
  H   H49       1.0  0.17763  0.042190000000000005  0.57303  1.0000
  H   H50       1.0  0.40026999999999996  0.23522  0.52689  1.0000
  H   H51       1.0  0.8703099999999999  0.6546100000000002  0.20726  1.0000
  H   H52       1.0  0.01659  0.6968  0.26133  1.0000
  H   H53       1.0  0.01552  0.9889900000000001  0.19322999999999999  1.0000
  H   H54       1.0  0.8672699999999998  0.9351800000000002  0.14284  1.0000
  H   H55       1.0  0.22766  0.91219  0.337  1.0000
  H   H56       1.0  0.08635  0.70672  0.37945999999999996  1.0000
  H   H57       1.0  0.27688  0.58022  0.50515  1.0000
  H   H58       1.0  0.04355  0.38017  0.4575199999999999  1.0000
  H   H59       1.0  0.31747  0.45932000000000006  0.57329  1.0000
  H   H60       1.0  0.09651999999999998  0.26467  0.52701  1.0000
  H   H61       1.0  0.15205  0.14696  0.70319  1.0000
  H   H62       1.0  0.19262999999999997  0.00885  0.76321  1.0000
  H   H63       1.0  0.48199  0.98102  0.6911  1.0000
  H   H64       1.0  0.43058  0.12278000000000001  0.63553  1.0000
  H   H65       1.0  0.3688899999999999  0.73781  0.80889  1.0000
  H   H66       1.0  0.19489  0.9077200000000002  0.87999  1.0000
  H   H67       1.0  0.0836  0.72662  0.011059999999999999  1.0000
  H   H68       1.0  0.8703  0.94867  0.96018  1.0000
  H   H69       1.0  0.9646699999999999  0.68758  0.08034999999999999  1.0000
  H   H70       1.0  0.7572  0.89709  0.03074  1.0000
  H   H71       1.0  0.34643  0.35297  0.70272  1.0000
  H   H72       1.0  0.30846  0.491  0.76317  1.0000
  H   H73       1.0  0.01787  0.52199  0.6930300000000001  1.0000
  H   H74       1.0  0.06694  0.3804200000000001  0.63668  1.0000
  H   H75       1.0  0.13538  0.7656  0.8079  1.0000
  H   H76       1.0  0.30403  0.59401  0.8797299999999999  1.0000
  H   H77       1.0  0.41522  0.77335  0.011069999999999998  1.0000
  H   H78       1.0  0.62938  0.55156  0.96047  1.0000
  H   H79       1.0  0.53367  0.81306  0.08032  1.0000
  H   H80       1.0  0.74171  0.60361  0.03118  1.0000
  C   C1        1.0  0.14412  0.4617  0.89776  1.0000
  C   C2        1.0  0.3918299999999999  0.22579000000000005  0.79962  1.0000
  C   C3        1.0  0.46814  0.24845  0.76605  1.0000
  C   C4        1.0  0.51502  0.34133000000000013  0.76954  1.0000
  C   C5        1.0  0.48287999999999986  0.40792  0.80673  1.0000
  C   C6        1.0  0.4053  0.3796100000000001  0.83838  1.0000
  C   C7        1.0  0.60308  0.36827  0.73823  1.0000
  C   C8        1.0  0.72044  0.29994  0.68217  1.0000
  C   C9        1.0  0.66664  0.20302000000000003  0.60497  1.0000
  C   C10       1.0  0.6272999999999999  0.05514  0.56298  1.0000
  C   C11       1.0  0.65676  0.99074  0.52076  1.0000
  C   C12       1.0  0.73202  0.01508  0.48626  1.0000
  C   C13       1.0  0.60691  0.89965  0.51505  1.0000
  C   C14       1.0  0.7536799999999999  0.9482900000000001  0.44785  1.0000
  C   C15       1.0  0.63464  0.83671  0.47614  1.0000
  C   C16       1.0  0.35267  0.03818  0.89804  1.0000
  C   C17       1.0  0.10368999999999998  0.27582  0.8000199999999998  1.0000
  C   C18       1.0  0.02859  0.25346  0.76584  1.0000
  C   C19       1.0  0.98317  0.15968  0.7679899999999998  1.0000
  C   C20       1.0  0.01514  0.09222  0.8047799999999999  1.0000
  C   C21       1.0  0.09104  0.12052  0.83735  1.0000
  C   C22       1.0  0.89695  0.13198  0.73567  1.0000
  C   C23       1.0  0.7759299999999998  0.20379000000000005  0.68234  1.0000
  C   C24       1.0  0.83147  0.30039  0.6051999999999998  1.0000
  C   C25       1.0  0.87288  0.44729  0.56277  1.0000
  C   C26       1.0  0.8430799999999998  0.51222  0.52078  1.0000
  C   C27       1.0  0.76644  0.48866000000000004  0.48695  1.0000
  C   C28       1.0  0.89351  0.60291  0.51467  1.0000
  C   C29       1.0  0.74451  0.55546  0.44862  1.0000
  C   C30       1.0  0.86524  0.6660300000000002  0.47593999999999986  1.0000
  C   C31       1.0  0.54097  0.6444200000000002  0.3957  1.0000
  C   C32       1.0  0.7711  0.9015500000000002  0.29678  1.0000
  C   C33       1.0  0.74494  0.9799800000000002  0.2653  1.0000
  C   C34       1.0  0.6482  0.02217  0.26907  1.0000
  C   C35       1.0  0.58185  0.98303  0.3045999999999999  1.0000
  C   C36       1.0  0.61409  0.9044200000000001  0.33438  1.0000
  C   C37       1.0  0.6126  0.10598000000000003  0.23791  1.0000
  C   C38       1.0  0.6637  0.20878  0.17175999999999997  1.0000
  C   C39       1.0  0.7777199999999997  0.20288  0.09347  1.0000
  C   C40       1.0  0.93865  0.13659  0.0664  1.0000
  C   C41       1.0  0.01212  0.16266000000000003  0.02655  1.0000
  C   C42       1.0  0.99238  0.2415  0.99349  1.0000
  C   C43       1.0  0.09967  0.10572000000000001  0.01962  1.0000
  C   C44       1.0  0.05932  0.25915000000000005  0.95478  1.0000
  C   C45       1.0  0.16401  0.13022  0.98057  1.0000
  C   C46       1.0  0.9574  0.85825  0.39612  1.0000
  C   C47       1.0  0.72746  0.6004  0.29692  1.0000
  C   C48       1.0  0.75325  0.52102  0.26596  1.0000
  C   C49       1.0  0.84958  0.4781200000000001  0.27002  1.0000
  C   C50       1.0  0.91607  0.5176500000000002  0.30529999999999996  1.0000
  C   C51       1.0  0.8841299999999997  0.5972500000000001  0.33457  1.0000
  C   C52       1.0  0.88435  0.39392  0.23882  1.0000
  C   C53       1.0  0.8320099999999998  0.29319  0.17205  1.0000
  C   C54       1.0  0.71895  0.29717  0.09304  1.0000
  C   C55       1.0  0.55949  0.36317  0.06522  1.0000
  C   C56       1.0  0.4855399999999999  0.3365700000000001  0.02584  1.0000
  C   C57       1.0  0.50479  0.25689  0.99323  1.0000
  C   C58       1.0  0.39792  0.39341000000000004  0.019  1.0000
  C   C59       1.0  0.43753999999999993  0.23843000000000006  0.95482  1.0000
  C   C60       1.0  0.3331  0.36799  0.98035  1.0000
  C   C61       1.0  0.74856  0.25202  0.63141  1.0000
  C   C62       1.0  0.74814  0.25089  0.14409  1.0000
  C   C63       1.0  0.86089  0.54496  0.10786  1.0000
  C   C64       1.0  0.59401  0.77334  0.20531  1.0000
  C   C65       1.0  0.51229  0.7491300000000001  0.23527  1.0000
  C   C66       1.0  0.47095  0.6533800000000002  0.23148  1.0000
  C   C67       1.0  0.51448  0.58631  0.19724999999999998  1.0000
  C   C68       1.0  0.59632  0.61643  0.169  1.0000
  C   C69       1.0  0.38614  0.6181  0.26208  1.0000
  C   C70       1.0  0.28957  0.66524  0.33249  1.0000
  C   C71       1.0  0.3340899999999999  0.7936000000000001  0.39407  1.0000
  C   C72       1.0  0.37173999999999996  0.94501  0.43459  1.0000
  C   C73       1.0  0.34006  0.010710000000000004  0.47608  1.0000
  C   C74       1.0  0.26123  0.9888  0.50899  1.0000
  C   C75       1.0  0.39161  0.10067  0.48248  1.0000
  C   C76       1.0  0.2382  0.05663  0.54679  1.0000
  C   C77       1.0  0.36261  0.16464  0.52077  1.0000
  C   C78       1.0  0.63648  0.95609  0.108  1.0000
  C   C79       1.0  0.9042899999999999  0.72798  0.20573  1.0000
  C   C80       1.0  0.9863699999999997  0.75174  0.23545  1.0000
  C   C81       1.0  0.028399999999999998  0.8471800000000003  0.23151  1.0000
  C   C82       1.0  0.9849599999999998  0.9145000000000002  0.19743  1.0000
  C   C83       1.0  0.9027  0.88484  0.16945  1.0000
  C   C84       1.0  0.11357  0.88203  0.26195  1.0000
  C   C85       1.0  0.20877999999999994  0.8342700000000002  0.33268  1.0000
  C   C86       1.0  0.16255  0.7057  0.39369  1.0000
  C   C87       1.0  0.12339  0.55537  0.43520999999999993  1.0000
  C   C88       1.0  0.15566999999999995  0.48953000000000013  0.47633999999999993  1.0000
  C   C89       1.0  0.23418999999999995  0.5119600000000001  0.50917  1.0000
  C   C90       1.0  0.10461  0.39926000000000006  0.48263  1.0000
  C   C91       1.0  0.25732  0.4444  0.54698  1.0000
  C   C92       1.0  0.13379  0.3354700000000001  0.52088  1.0000
  C   C93       1.0  0.45916999999999997  0.35378  0.60178  1.0000
  C   C94       1.0  0.22484  0.10959  0.70283  1.0000
  C   C95       1.0  0.24764999999999998  0.03242  0.73578  1.0000
  C   C96       1.0  0.34174  0.98507  0.73223  1.0000
  C   C97       1.0  0.40927  0.01768  0.69566  1.0000
  C   C98       1.0  0.38068  0.09594  0.66459  1.0000
  C   C99       1.0  0.3695699999999999  0.89619  0.76257  1.0000
  C   C100      1.0  0.30023  0.7786900000000002  0.81782  1.0000
  C   C101      1.0  0.19965  0.8328000000000001  0.89502  1.0000
  C   C102      1.0  0.05064999999999999  0.87244  0.93822  1.0000
  C   C103      1.0  0.98608  0.84179  0.98018  1.0000
  C   C104      1.0  0.012689999999999998  0.7669900000000002  0.01445  1.0000
  C   C105      1.0  0.8928399999999997  0.89028  0.98614  1.0000
  C   C106      1.0  0.9461899999999999  0.7447600000000002  0.05297  1.0000
  C   C107      1.0  0.83031  0.86193  0.02509  1.0000
  C   C108      1.0  0.037079999999999995  0.14866  0.60258  1.0000
  C   C109      1.0  0.27402  0.3910400000000001  0.7028599999999999  1.0000
  C   C110      1.0  0.25263  0.46816  0.73607  1.0000
  C   C111      1.0  0.15895  0.5164  0.73321  1.0000
  C   C112      1.0  0.09035  0.48464  0.69701  1.0000
  C   C113      1.0  0.11758999999999997  0.4064700000000001  0.66554  1.0000
  C   C114      1.0  0.13229  0.60529  0.76382  1.0000
  C   C115      1.0  0.20368999999999998  0.72464  0.8173  1.0000
  C   C116      1.0  0.30055  0.66889  0.89489  1.0000
  C   C117      1.0  0.44906  0.62763  0.93825  1.0000
  C   C118      1.0  0.5132399999999999  0.65819  0.98037  1.0000
  C   C119      1.0  0.48613  0.7330300000000002  0.014539999999999999  1.0000
  C   C120      1.0  0.60646  0.6099000000000001  0.9864  1.0000
  C   C121      1.0  0.55237  0.75569  0.05303999999999999  1.0000
  C   C122      1.0  0.66863  0.6386000000000001  0.025369999999999997  1.0000
  C   C123      1.0  0.24873  0.74948  0.36461  1.0000
  C   C124      1.0  0.2509  0.75142  0.86851  1.0000
  S   S1        1.0  0.07556999999999998  0.55774  0.9112499999999999  1.0000
  S   S2        1.0  0.42081  0.9433300000000001  0.91391  1.0000
  S   S3        1.0  0.4510499999999999  0.57131  0.41207  1.0000
  S   S4        1.0  0.04689  0.9309500000000002  0.41337  1.0000
  S   S5        1.0  0.9378  0.45641  0.09222  1.0000
  S   S6        1.0  0.55829  0.043940000000000014  0.09307  1.0000
  S   S7        1.0  0.55119  0.42506  0.5865  1.0000
  S   S8        1.0  0.94458  0.07798  0.58742  1.0000
  N   N1        1.0  0.19585  0.39036  0.88835  1.0000
  N   N2        1.0  0.36029  0.29  0.83523  1.0000
  N   N3        1.0  0.70694  0.8598400000000003  0.44267  1.0000
  N   N4        1.0  0.30133  0.10878  0.88698  1.0000
  N   N5        1.0  0.13511  0.21074000000000004  0.83525  1.0000
  N   N6        1.0  0.7919999999999999  0.6434  0.44298  1.0000
  N   N7        1.0  0.60759  0.6995  0.38414  1.0000
  N   N8        1.0  0.70706  0.86373  0.33095  1.0000
  N   N9        1.0  0.1443  0.20524000000000006  0.94819  1.0000
  N   N10       1.0  0.8910499999999998  0.8034400000000002  0.38392999999999994  1.0000
  N   N11       1.0  0.7915099999999999  0.6385500000000002  0.33091  1.0000
  N   N12       1.0  0.3525799999999999  0.29234000000000004  0.94823  1.0000
  N   N13       1.0  0.80439  0.6114200000000002  0.11896  1.0000
  N   N14       1.0  0.63642  0.70848  0.17267  1.0000
  N   N15       1.0  0.28718  0.14362000000000003  0.55285  1.0000
  N   N16       1.0  0.6939399999999998  0.8902000000000001  0.11864  1.0000
  N   N17       1.0  0.86213  0.79301  0.17316  1.0000
  N   N18       1.0  0.20882  0.35712000000000005  0.553  1.0000
  N   N19       1.0  0.3904  0.30088  0.61295  1.0000
  N   N20       1.0  0.28999  0.14158  0.66782  1.0000
  N   N21       1.0  0.85585  0.7904500000000002  0.058449999999999995  1.0000
  N   N22       1.0  0.10612  0.20122  0.61367  1.0000
  N   N23       1.0  0.20794  0.3600200000000001  0.66813  1.0000
  N   N24       1.0  0.64281  0.71041  0.058489999999999986  1.0000
  O   O1        1.0  0.6561  0.44042  0.74528  1.0000
  O   O2        1.0  0.62129  0.29765  0.70185  1.0000
  O   O3        1.0  0.69161  0.13558  0.56847  1.0000
  O   O4        1.0  0.55584  0.040700000000000014  0.59083  1.0000
  O   O5        1.0  0.8486399999999997  0.05578  0.73998  1.0000
  O   O6        1.0  0.8745  0.20701  0.70217  1.0000
  O   O7        1.0  0.80762  0.36795  0.56859  1.0000
  O   O8        1.0  0.94488  0.46017000000000013  0.59035  1.0000
  O   O9        1.0  0.53011  0.14609000000000003  0.23979  1.0000
  O   O10       1.0  0.68766  0.13609  0.20507  1.0000
  O   O11       1.0  0.87475  0.21606000000000006  0.07301  1.0000
  O   O12       1.0  0.93388  0.05696  0.08827  1.0000
  O   O13       1.0  0.9671399999999999  0.3543000000000001  0.23972  1.0000
  O   O14       1.0  0.80783  0.3632800000000001  0.20687  1.0000
  O   O15       1.0  0.62182  0.28317  0.07296  1.0000
  O   O16       1.0  0.56596  0.4438600000000001  0.08594  1.0000
  O   O17       1.0  0.3486  0.5356  0.26049  1.0000
  O   O18       1.0  0.35359999999999997  0.69224  0.29547  1.0000
  O   O19       1.0  0.30816  0.86386  0.42905999999999994  1.0000
  O   O20       1.0  0.44393  0.95915  0.40729  1.0000
  O   O21       1.0  0.15134  0.96441  0.26044  1.0000
  O   O22       1.0  0.14594999999999994  0.80763  0.29522  1.0000
  O   O23       1.0  0.18725999999999995  0.6360500000000002  0.42911  1.0000
  O   O24       1.0  0.050199999999999995  0.54129  0.40874  1.0000
  O   O25       1.0  0.44349999999999995  0.8439200000000001  0.7552299999999998  1.0000
  O   O26       1.0  0.29755  0.8772000000000002  0.79834  1.0000
  O   O27       1.0  0.13192  0.80789  0.93151  1.0000
  O   O28       1.0  0.03566999999999999  0.9451100000000002  0.91149  1.0000
  O   O29       1.0  0.057079999999999985  0.65631  0.75781  1.0000
  O   O30       1.0  0.20697999999999997  0.6262800000000001  0.79791  1.0000
  O   O31       1.0  0.36805  0.69237  0.93166  1.0000
  O   O32       1.0  0.46437  0.55514  0.91147  1.0000
