data_image0
_chemical_formula_structural       Gd8H96C168O60
_chemical_formula_sum              "Gd8 H96 C168 O60"
_cell_length_a       14.7454
_cell_length_b       15.12712
_cell_length_c       23.04236
_cell_angle_alpha    84.26634
_cell_angle_beta     82.42235
_cell_angle_gamma    87.14338000000001

_symmetry_space_group_name_H-M    'P 1'
_symmetry_Int_Tables_number       1

loop_
  _symmetry_equiv_pos_as_xyz
  'x,y,z'

loop_
  _atom_site_type_symbol
  _atom_site_label
  _atom_site_symmetry_multiplicity
  _atom_site_fract_x
  _atom_site_fract_y
  _atom_site_fract_z
  _atom_site_occupancy
  Gd  Gd1       1.0  0.18776999999999988  0.8671100000000003  0.7240900000000001  1.0000
  Gd  Gd2       1.0  0.20749999999999996  0.11869000000000006  0.76079  1.0000
  Gd  Gd3       1.0  0.3155200000000001  0.3384000000000001  0.7704099999999999  1.0000
  Gd  Gd4       1.0  0.2923999999999999  0.59662  0.7649  1.0000
  Gd  Gd5       1.0  0.8122399999999997  0.13290000000000005  0.27591  1.0000
  Gd  Gd6       1.0  0.7924999999999999  0.8813200000000001  0.23921  1.0000
  Gd  Gd7       1.0  0.68448  0.66161  0.22959000000000002  1.0000
  Gd  Gd8       1.0  0.7075999999999998  0.40338  0.2351  1.0000
  H   H1        1.0  0.3522  0.9771500000000001  0.59891  1.0000
  H   H2        1.0  0.13012  0.14669000000000001  0.5447  1.0000
  H   H3        1.0  0.41147  0.95945  0.49454000000000004  1.0000
  H   H4        1.0  0.18556  0.12376999999999999  0.43946  1.0000
  H   H5        1.0  0.19803  0.35077000000000025  0.65046  1.0000
  H   H6        1.0  0.20800999999999992  0.26665000000000005  0.56255  1.0000
  H   H7        1.0  0.3984799999999999  0.5304  0.55943  1.0000
  H   H8        1.0  0.40993999999999997  0.4439300000000001  0.47065  1.0000
  H   H9        1.0  0.52279  0.4229600000000001  0.6687  1.0000
  H   H10       1.0  0.63353  0.5750300000000003  0.78918  1.0000
  H   H11       1.0  0.67723  0.4150400000000001  0.60859  1.0000
  H   H12       1.0  0.7886  0.55898  0.73323  1.0000
  H   H13       1.0  0.9107900000000001  0.12849000000000005  0.94  1.0000
  H   H14       1.0  0.7273199999999997  0.98138  0.85862  1.0000
  H   H15       1.0  0.04130999999999999  0.07655  0.8714300000000001  1.0000
  H   H16       1.0  0.85968  0.9302400000000002  0.7885300000000001  1.0000
  H   H17       1.0  0.14232999999999998  0.16353999999999996  0.9727600000000001  1.0000
  H   H18       1.0  0.42637  0.1850900000000001  0.90437  1.0000
  H   H19       1.0  0.466  0.19077000000000005  0.00638  1.0000
  H   H20       1.0  0.18073999999999996  0.17445  0.07484  1.0000
  H   H21       1.0  0.31819000000000003  0.34079  0.97199  1.0000
  H   H22       1.0  0.1621799999999999  0.57954  0.92824  1.0000
  H   H23       1.0  0.28374  0.36314000000000013  0.07897  1.0000
  H   H24       1.0  0.42731999999999987  0.03858000000000002  0.08053  1.0000
  H   H25       1.0  0.56368  0.21391000000000002  0.21668  1.0000
  H   H26       1.0  0.56346  0.97717  0.1285  1.0000
  H   H27       1.0  0.4273  0.27584  0.16981  1.0000
  H   H28       1.0  0.08481  0.49628  0.71353  1.0000
  H   H29       1.0  0.9654600000000001  0.74082  0.64154  1.0000
  H   H30       1.0  0.9599699999999997  0.41137  0.68233  1.0000
  H   H31       1.0  0.8441599999999998  0.07904000000000005  0.11756  1.0000
  H   H32       1.0  0.82542  0.008930000000000004  0.0264  1.0000
  H   H33       1.0  0.6836999999999998  0.3080500000000001  0.05969  1.0000
  H   H34       1.0  0.6683899999999998  0.23918999999999999  0.9665200000000002  1.0000
  H   H35       1.0  0.3565899999999999  0.3350900000000001  0.35034  1.0000
  H   H36       1.0  0.50958  0.3017900000000001  0.29522  1.0000
  H   H37       1.0  0.60791  0.19411  0.45621  1.0000
  H   H38       1.0  0.45437999999999984  0.22926000000000007  0.51217  1.0000
  H   H39       1.0  0.8413199999999997  0.65526  0.60868  1.0000
  H   H40       1.0  0.12608  0.60221  0.03493  1.0000
  H   H41       1.0  0.09751999999999994  0.7523600000000001  0.19875  1.0000
  H   H42       1.0  0.21939999999999998  0.6453800000000001  0.1556  1.0000
  H   H43       1.0  0.010799999999999995  0.46411000000000013  0.13818  1.0000
  H   H44       1.0  0.8912699999999998  0.56783  0.18238000000000001  1.0000
  H   H45       1.0  0.48702  0.06851000000000003  0.34508  1.0000
  H   H46       1.0  0.31368999999999986  0.8557200000000003  0.42222  1.0000
  H   H47       1.0  0.60448  0.9577400000000001  0.30595  1.0000
  H   H48       1.0  0.4287299999999999  0.7447100000000002  0.3786300000000001  1.0000
  H   H49       1.0  0.6478  0.022850000000000006  0.40109  1.0000
  H   H50       1.0  0.86988  0.8533200000000002  0.4553  1.0000
  H   H51       1.0  0.58853  0.040560000000000006  0.50546  1.0000
  H   H52       1.0  0.81444  0.87623  0.56054  1.0000
  H   H53       1.0  0.80197  0.6492400000000003  0.34954  1.0000
  H   H54       1.0  0.7919899999999997  0.73336  0.43745  1.0000
  H   H55       1.0  0.6015199999999998  0.4696100000000001  0.4405700000000001  1.0000
  H   H56       1.0  0.5900599999999998  0.55608  0.52935  1.0000
  H   H57       1.0  0.47720999999999975  0.5770500000000002  0.3313  1.0000
  H   H58       1.0  0.36647  0.42498  0.21083  1.0000
  H   H59       1.0  0.32277  0.5849700000000002  0.39142  1.0000
  H   H60       1.0  0.21139999999999992  0.44103000000000003  0.26677  1.0000
  H   H61       1.0  0.08920999999999994  0.87152  0.060000000000000005  1.0000
  H   H62       1.0  0.27268  0.018630000000000015  0.14138  1.0000
  H   H63       1.0  0.95869  0.9234600000000002  0.12857  1.0000
  H   H64       1.0  0.14031999999999997  0.06976000000000003  0.21148  1.0000
  H   H65       1.0  0.8576699999999998  0.83647  0.027240000000000004  1.0000
  H   H66       1.0  0.5736299999999998  0.8149200000000002  0.09563000000000002  1.0000
  H   H67       1.0  0.534  0.8092400000000002  0.9936200000000001  1.0000
  H   H68       1.0  0.81927  0.82555  0.92517  1.0000
  H   H69       1.0  0.6818099999999998  0.65922  0.028010000000000004  1.0000
  H   H70       1.0  0.8378199999999999  0.4204600000000001  0.07176  1.0000
  H   H71       1.0  0.7162599999999998  0.6368700000000003  0.9210300000000001  1.0000
  H   H72       1.0  0.5726799999999999  0.9614300000000005  0.9194700000000001  1.0000
  H   H73       1.0  0.43631999999999993  0.7861000000000002  0.78332  1.0000
  H   H74       1.0  0.43654  0.02284  0.8715  1.0000
  H   H75       1.0  0.5726999999999998  0.7241700000000004  0.83019  1.0000
  H   H76       1.0  0.9151899999999997  0.5037300000000002  0.28647  1.0000
  H   H77       1.0  0.03453999999999998  0.25919000000000003  0.35846  1.0000
  H   H78       1.0  0.040029999999999975  0.5886400000000003  0.31767  1.0000
  H   H79       1.0  0.1558399999999999  0.9209700000000002  0.8824400000000001  1.0000
  H   H80       1.0  0.17457999999999987  0.9910800000000001  0.9736  1.0000
  H   H81       1.0  0.3163  0.6919600000000002  0.94031  1.0000
  H   H82       1.0  0.33161  0.76082  0.03349  1.0000
  H   H83       1.0  0.6434099999999998  0.6649200000000002  0.64966  1.0000
  H   H84       1.0  0.49042  0.6982200000000002  0.70478  1.0000
  H   H85       1.0  0.39209  0.8059  0.54379  1.0000
  H   H86       1.0  0.5456199999999998  0.7707499999999999  0.48783  1.0000
  H   H87       1.0  0.15867999999999996  0.3447500000000001  0.39132  1.0000
  H   H88       1.0  0.87392  0.3978000000000002  0.96507  1.0000
  H   H89       1.0  0.9024799999999997  0.2476500000000001  0.80125  1.0000
  H   H90       1.0  0.7805999999999998  0.3546300000000001  0.8444000000000002  1.0000
  H   H91       1.0  0.9891999999999999  0.53589  0.86183  1.0000
  H   H92       1.0  0.10872999999999997  0.43218  0.81762  1.0000
  H   H93       1.0  0.51298  0.9315000000000002  0.65492  1.0000
  H   H94       1.0  0.6863099999999998  0.14428  0.57778  1.0000
  H   H95       1.0  0.39552  0.042270000000000016  0.69405  1.0000
  H   H96       1.0  0.5712699999999997  0.2553  0.62137  1.0000
  C   C1        1.0  0.20872000000000002  0.07664  0.64108  1.0000
  C   C2        1.0  0.23776999999999998  0.06310000000000002  0.5786  1.0000
  C   C3        1.0  0.31641  0.009710000000000002  0.56399  1.0000
  C   C4        1.0  0.19115  0.10528999999999998  0.53341  1.0000
  C   C5        1.0  0.30026  0.03914  0.46133  1.0000
  C   C6        1.0  0.3489899999999999  0.99872  0.50559  1.0000
  C   C7        1.0  0.22133999999999993  0.09267000000000006  0.47497  1.0000
  C   C8        1.0  0.29819  0.44555000000000017  0.61043  1.0000
  C   C9        1.0  0.29542  0.49272000000000005  0.66362  1.0000
  C   C10       1.0  0.24369999999999997  0.37183  0.61101  1.0000
  C   C11       1.0  0.30923  0.35106999999999994  0.51194  1.0000
  C   C12       1.0  0.24857  0.32479  0.56175  1.0000
  C   C13       1.0  0.35742999999999997  0.47251000000000004  0.55943  1.0000
  C   C14       1.0  0.36375  0.42503000000000013  0.51029  1.0000
  C   C15       1.0  0.4748799999999998  0.51778  0.76202  1.0000
  C   C16       1.0  0.5809  0.4537300000000002  0.68194  1.0000
  C   C17       1.0  0.64331  0.5393200000000002  0.7499999999999999  1.0000
  C   C18       1.0  0.66641  0.44868000000000025  0.64863  1.0000
  C   C19       1.0  0.7406899999999997  0.48850000000000005  0.66655  1.0000
  C   C20       1.0  0.5681  0.50108  0.7321  1.0000
  C   C21       1.0  0.7300299999999997  0.53144  0.7184  1.0000
  C   C22       1.0  0.03719000000000001  0.97022  0.78394  1.0000
  C   C23       1.0  0.89978  0.08463000000000004  0.90725  1.0000
  C   C24       1.0  0.9591099999999998  0.9999799999999999  0.82526  1.0000
  C   C25       1.0  0.8115799999999997  0.05715000000000001  0.90356  1.0000
  C   C26       1.0  0.7963799999999999  0.0018300000000000007  0.86067  1.0000
  C   C27       1.0  0.9728999999999999  0.055370000000000016  0.86847  1.0000
  C   C28       1.0  0.86999  0.97357  0.82184  1.0000
  C   C29       1.0  0.7473500000000001  0.12142000000000006  0.99133  1.0000
  C   C30       1.0  0.25732  0.17054  0.87265  1.0000
  C   C31       1.0  0.28207999999999994  0.1728200000000001  0.93258  1.0000
  C   C32       1.0  0.32501  0.18261000000000005  0.045790000000000004  1.0000
  C   C33       1.0  0.21282  0.16923000000000007  0.98065  1.0000
  C   C34       1.0  0.37333  0.18064  0.94199  1.0000
  C   C35       1.0  0.3955299999999999  0.18439  0.9985800000000001  1.0000
  C   C36       1.0  0.23365999999999995  0.17515000000000006  0.03722  1.0000
  C   C37       1.0  0.2767699999999999  0.39779  0.9863300000000002  1.0000
  C   C38       1.0  0.24192999999999998  0.45824000000000015  0.9435800000000001  1.0000
  C   C39       1.0  0.2616399999999999  0.4408100000000002  0.88118  1.0000
  C   C40       1.0  0.1878899999999999  0.5321700000000005  0.96147  1.0000
  C   C41       1.0  0.25786  0.40994000000000014  0.04557  1.0000
  C   C42       1.0  0.45733999999999986  0.07628000000000003  0.11053000000000002  1.0000
  C   C43       1.0  0.41981999999999986  0.16011000000000003  0.12335  1.0000
  C   C44       1.0  0.57028  0.09128000000000003  0.17619  1.0000
  C   C45       1.0  0.5325099999999998  0.17584  0.18747  1.0000
  C   C46       1.0  0.5328699999999997  0.04221000000000001  0.13722  1.0000
  C   C47       1.0  0.64865  0.05562000000000001  0.20699  1.0000
  C   C48       1.0  0.45717999999999986  0.21052000000000007  0.16131  1.0000
  C   C49       1.0  0.03124000000000002  0.6235999999999999  0.68051  1.0000
  C   C50       1.0  0.031499999999999986  0.53055  0.69062  1.0000
  C   C51       1.0  0.9640500000000001  0.66877  0.64965  1.0000
  C   C52       1.0  0.96295  0.48310000000000003  0.67298  1.0000
  C   C53       1.0  0.09994000000000001  0.67366  0.70507  1.0000
  C   C54       1.0  0.8946  0.52972  0.64496  1.0000
  C   C55       1.0  0.8061799999999998  0.11412000000000003  0.08435  1.0000
  C   C56       1.0  0.79594  0.07481  0.03359  1.0000
  C   C57       1.0  0.7663699999999998  0.19869000000000006  0.09364000000000001  1.0000
  C   C58       1.0  0.71498  0.24306000000000005  0.05168  1.0000
  C   C59       1.0  0.70594  0.20493  0.00019000000000000004  1.0000
  C   C60       1.0  0.39779999999999976  0.2843100000000001  0.43387  1.0000
  C   C61       1.0  0.4116499999999998  0.30359  0.37299  1.0000
  C   C62       1.0  0.5684099999999999  0.24622000000000008  0.37248000000000003  1.0000
  C   C63       1.0  0.49740999999999996  0.28498  0.3425  1.0000
  C   C64       1.0  0.5523999999999997  0.22503  0.43367  1.0000
  C   C65       1.0  0.46736999999999995  0.2443800000000001  0.46471  1.0000
  C   C66       1.0  0.8954  0.6218600000000001  0.6315  1.0000
  C   C67       1.0  0.7770199999999998  0.24020000000000005  0.14824  1.0000
  C   C68       1.0  0.6595899999999998  0.22613000000000008  0.34011  1.0000
  C   C69       1.0  0.20289999999999994  0.48337000000000013  0.0628  1.0000
  C   C70       1.0  0.16788  0.5450700000000003  0.021  1.0000
  C   C71       1.0  0.12074000000000001  0.55046  0.14442  1.0000
  C   C72       1.0  0.07999999999999997  0.6887900000000002  0.18581  1.0000
  C   C73       1.0  0.1472  0.63031  0.16166  1.0000
  C   C74       1.0  0.02917  0.5272600000000002  0.15142  1.0000
  C   C75       1.0  0.98742  0.66667  0.19339  1.0000
  C   C76       1.0  0.9177399999999998  0.7313000000000002  0.21808  1.0000
  C   C77       1.0  0.9625799999999998  0.5857100000000002  0.1763  1.0000
  C   C78       1.0  0.47573  0.9975100000000002  0.35290000000000005  1.0000
  C   C79       1.0  0.3943  0.96785  0.38526  1.0000
  C   C80       1.0  0.37735999999999986  0.8769200000000003  0.39637  1.0000
  C   C81       1.0  0.5237799999999998  0.8441200000000002  0.33957  1.0000
  C   C82       1.0  0.5407899999999995  0.9352400000000002  0.33086  1.0000
  C   C83       1.0  0.44161999999999996  0.81543  0.37254000000000004  1.0000
  C   C84       1.0  0.5892299999999999  0.7793200000000002  0.31112  1.0000
  C   C85       1.0  0.79128  0.9233700000000002  0.35892  1.0000
  C   C86       1.0  0.76223  0.9369000000000002  0.42140000000000005  1.0000
  C   C87       1.0  0.68359  0.9903000000000002  0.43601  1.0000
  C   C88       1.0  0.80885  0.89472  0.46659000000000006  1.0000
  C   C89       1.0  0.69974  0.96087  0.53867  1.0000
  C   C90       1.0  0.6510099999999996  0.0012899999999999873  0.49441000000000007  1.0000
  C   C91       1.0  0.77866  0.9073400000000003  0.52503  1.0000
  C   C92       1.0  0.7018099999999999  0.55445  0.38957  1.0000
  C   C93       1.0  0.70458  0.5072800000000002  0.33638  1.0000
  C   C94       1.0  0.7563  0.6281700000000002  0.38899  1.0000
  C   C95       1.0  0.6907699999999998  0.6489400000000002  0.48806000000000005  1.0000
  C   C96       1.0  0.7514299999999998  0.67522  0.43825  1.0000
  C   C97       1.0  0.64257  0.5275  0.4405700000000001  1.0000
  C   C98       1.0  0.6362499999999996  0.5749800000000003  0.48971000000000003  1.0000
  C   C99       1.0  0.52512  0.4822300000000001  0.23798  1.0000
  C   C100      1.0  0.4191  0.5462800000000002  0.31806  1.0000
  C   C101      1.0  0.3567  0.46068  0.25001  1.0000
  C   C102      1.0  0.33359  0.5513300000000001  0.35137  1.0000
  C   C103      1.0  0.25931  0.51151  0.33346  1.0000
  C   C104      1.0  0.4319  0.4989300000000002  0.2679  1.0000
  C   C105      1.0  0.26997  0.46857  0.2816  1.0000
  C   C106      1.0  0.96281  0.02979  0.21607  1.0000
  C   C107      1.0  0.10021999999999999  0.9153800000000002  0.09275  1.0000
  C   C108      1.0  0.04089  3.0000000000000733e-05  0.17474  1.0000
  C   C109      1.0  0.18842  0.94285  0.09644  1.0000
  C   C110      1.0  0.20361999999999994  0.9981800000000001  0.13933  1.0000
  C   C111      1.0  0.02709999999999999  0.9446400000000003  0.13153  1.0000
  C   C112      1.0  0.13001  0.026439999999999998  0.17816000000000004  1.0000
  C   C113      1.0  0.2526599999999999  0.87859  0.00867  1.0000
  C   C114      1.0  0.7426799999999998  0.8294600000000002  0.12736  1.0000
  C   C115      1.0  0.71792  0.8271900000000002  0.06742  1.0000
  C   C116      1.0  0.6749899999999998  0.8174000000000002  0.9542100000000001  1.0000
  C   C117      1.0  0.7871799999999998  0.83078  0.01935  1.0000
  C   C118      1.0  0.62667  0.8193700000000002  0.05802000000000001  1.0000
  C   C119      1.0  0.6044699999999997  0.8156200000000002  0.00142  1.0000
  C   C120      1.0  0.76635  0.8248600000000003  0.96278  1.0000
  C   C121      1.0  0.7232299999999998  0.6022200000000002  0.01367  1.0000
  C   C122      1.0  0.7580699999999998  0.54177  0.05642  1.0000
  C   C123      1.0  0.73836  0.5592000000000001  0.11882  1.0000
  C   C124      1.0  0.81212  0.4678400000000001  0.03853  1.0000
  C   C125      1.0  0.74214  0.5900700000000004  0.95443  1.0000
  C   C126      1.0  0.54266  0.9237300000000005  0.88947  1.0000
  C   C127      1.0  0.58018  0.8399  0.8766500000000002  1.0000
  C   C128      1.0  0.42971999999999977  0.9087200000000002  0.8238100000000002  1.0000
  C   C129      1.0  0.4675000000000001  0.82416  0.81253  1.0000
  C   C130      1.0  0.46712999999999993  0.9577900000000004  0.8627800000000001  1.0000
  C   C131      1.0  0.35135  0.94439  0.7930100000000001  1.0000
  C   C132      1.0  0.5428200000000001  0.7894900000000001  0.83869  1.0000
  C   C133      1.0  0.96876  0.37641000000000013  0.31949  1.0000
  C   C134      1.0  0.9684999999999998  0.4694500000000001  0.30938  1.0000
  C   C135      1.0  0.035949999999999996  0.33124000000000003  0.35035  1.0000
  C   C136      1.0  0.03704999999999998  0.5169100000000002  0.32702  1.0000
  C   C137      1.0  0.9000599999999995  0.3263500000000001  0.29493  1.0000
  C   C138      1.0  0.1054  0.47029000000000004  0.3550400000000001  1.0000
  C   C139      1.0  0.19382  0.8858900000000002  0.91565  1.0000
  C   C140      1.0  0.20405999999999996  0.9252  0.9664100000000001  1.0000
  C   C141      1.0  0.23362999999999995  0.8013100000000003  0.90637  1.0000
  C   C142      1.0  0.2850199999999998  0.7569500000000002  0.94832  1.0000
  C   C143      1.0  0.2940599999999998  0.79508  0.99981  1.0000
  C   C144      1.0  0.6022  0.7157  0.56613  1.0000
  C   C145      1.0  0.58835  0.69641  0.62701  1.0000
  C   C146      1.0  0.43158999999999986  0.7537900000000001  0.62752  1.0000
  C   C147      1.0  0.5025899999999999  0.7150300000000003  0.6575  1.0000
  C   C148      1.0  0.44761000000000006  0.7749700000000003  0.56633  1.0000
  C   C149      1.0  0.5326299999999998  0.7556300000000002  0.53529  1.0000
  C   C150      1.0  0.10459999999999996  0.3781500000000001  0.3685  1.0000
  C   C151      1.0  0.22297999999999998  0.75981  0.8517600000000001  1.0000
  C   C152      1.0  0.34041  0.7738800000000002  0.65989  1.0000
  C   C153      1.0  0.7970999999999999  0.51664  0.93721  1.0000
  C   C154      1.0  0.8321199999999997  0.45494  0.979  1.0000
  C   C155      1.0  0.87926  0.44954999999999995  0.85558  1.0000
  C   C156      1.0  0.9199999999999997  0.31122  0.81419  1.0000
  C   C157      1.0  0.8527999999999998  0.3696999999999999  0.83834  1.0000
  C   C158      1.0  0.9708299999999999  0.47275000000000017  0.8485800000000001  1.0000
  C   C159      1.0  0.012580000000000008  0.33334  0.80661  1.0000
  C   C160      1.0  0.08225999999999999  0.26870999999999995  0.78192  1.0000
  C   C161      1.0  0.037420000000000016  0.41430000000000006  0.8237  1.0000
  C   C162      1.0  0.52427  0.0025000000000000022  0.64711  1.0000
  C   C163      1.0  0.6057  0.03214999999999999  0.61474  1.0000
  C   C164      1.0  0.62264  0.12309000000000002  0.60363  1.0000
  C   C165      1.0  0.47622  0.15588000000000005  0.66043  1.0000
  C   C166      1.0  0.45921  0.06477000000000001  0.66914  1.0000
  C   C167      1.0  0.5583799999999997  0.1845800000000001  0.62746  1.0000
  C   C168      1.0  0.4107699999999998  0.22068000000000007  0.68888  1.0000
  O   O1        1.0  0.23169999999999988  0.014430000000000014  0.68084  1.0000
  O   O2        1.0  0.3275199999999999  0.03184  0.40223000000000003  1.0000
  O   O3        1.0  0.2544  0.45543000000000006  0.71335  1.0000
  O   O4        1.0  0.33193  0.5668800000000002  0.66242  1.0000
  O   O5        1.0  0.31132  0.3035500000000001  0.4632  1.0000
  O   O6        1.0  0.41264999999999985  0.45992999999999995  0.7626800000000001  1.0000
  O   O7        1.0  0.4534099999999999  0.59189  0.78302  1.0000
  O   O8        1.0  0.8228999999999997  0.48191000000000017  0.63082  1.0000
  O   O9        1.0  0.027539999999999943  0.9188700000000001  0.7450700000000001  1.0000
  O   O10       1.0  0.11898999999999987  0.9952900000000003  0.78906  1.0000
  O   O11       1.0  0.7350299999999999  0.08459000000000001  0.9397800000000001  1.0000
  O   O12       1.0  0.31349  0.2006500000000001  0.82759  1.0000
  O   O13       1.0  0.18198999999999993  0.13837  0.86568  1.0000
  O   O14       1.0  0.23168  0.49544  0.84077  1.0000
  O   O15       1.0  0.30653999999999987  0.3693200000000002  0.86833  1.0000
  O   O16       1.0  0.18891  0.4907200000000001  0.12267  1.0000
  O   O17       1.0  0.1676  0.14717  0.65714  1.0000
  O   O18       1.0  0.34032  0.19572000000000006  0.10230000000000002  1.0000
  O   O19       1.0  0.6776199999999998  0.10639999999999998  0.24090000000000003  1.0000
  O   O20       1.0  0.6814999999999998  0.9773300000000003  0.19964  1.0000
  O   O21       1.0  0.14976000000000003  0.6291200000000002  0.74013  1.0000
  O   O22       1.0  0.10456999999999989  0.7570200000000002  0.69146  1.0000
  O   O23       1.0  0.73182  0.31258  0.15768  1.0000
  O   O24       1.0  0.8314099999999998  0.20158  0.18265  1.0000
  O   O25       1.0  0.7136799999999998  0.16875000000000007  0.36293  1.0000
  O   O26       1.0  0.68217  0.2637500000000001  0.28764  1.0000
  O   O27       1.0  0.9410699999999997  0.8072700000000002  0.22773  1.0000
  O   O28       1.0  0.8319199999999999  0.7103900000000002  0.22875000000000004  1.0000
  O   O29       1.0  0.56259  0.7037600000000003  0.30109  1.0000
  O   O30       1.0  0.6730499999999999  0.7993200000000003  0.29427  1.0000
  O   O31       1.0  0.7683099999999998  0.98557  0.31916  1.0000
  O   O32       1.0  0.6724799999999996  0.9681700000000003  0.59777  1.0000
  O   O33       1.0  0.7456  0.54458  0.28665  1.0000
  O   O34       1.0  0.6680699999999998  0.43313  0.33758  1.0000
  O   O35       1.0  0.68868  0.69646  0.5368  1.0000
  O   O36       1.0  0.5873499999999998  0.54008  0.23732  1.0000
  O   O37       1.0  0.54659  0.4081100000000001  0.21698  1.0000
  O   O38       1.0  0.17709999999999992  0.5180900000000003  0.36918  1.0000
  O   O39       1.0  0.9724599999999998  0.08114000000000003  0.25493  1.0000
  O   O40       1.0  0.8810099999999997  0.004720000000000001  0.21094  1.0000
  O   O41       1.0  0.26497  0.9154100000000002  0.06022  1.0000
  O   O42       1.0  0.6865199999999998  0.79936  0.17241  1.0000
  O   O43       1.0  0.8180099999999998  0.8616300000000002  0.13433  1.0000
  O   O44       1.0  0.76832  0.50457  0.15923  1.0000
  O   O45       1.0  0.6934599999999997  0.6306900000000002  0.13167  1.0000
  O   O46       1.0  0.81109  0.50929  0.8773300000000002  1.0000
  O   O47       1.0  0.8324  0.8528400000000003  0.34286  1.0000
  O   O48       1.0  0.6596799999999999  0.8042900000000002  0.8977  1.0000
  O   O49       1.0  0.32237999999999994  0.8936100000000002  0.7591  1.0000
  O   O50       1.0  0.31849999999999995  0.02267999999999998  0.8003600000000001  1.0000
  O   O51       1.0  0.85024  0.37089000000000016  0.25987  1.0000
  O   O52       1.0  0.8954299999999997  0.24299000000000004  0.30855  1.0000
  O   O53       1.0  0.2681799999999999  0.68742  0.84232  1.0000
  O   O54       1.0  0.16859  0.7984300000000002  0.81735  1.0000
  O   O55       1.0  0.28632  0.83126  0.63707  1.0000
  O   O56       1.0  0.31784  0.73626  0.71236  1.0000
  O   O57       1.0  0.05892999999999998  0.19274  0.7722700000000001  1.0000
  O   O58       1.0  0.16808  0.28961  0.77125  1.0000
  O   O59       1.0  0.43740999999999997  0.29625  0.69891  1.0000
  O   O60       1.0  0.3269499999999998  0.20069000000000012  0.70573  1.0000
