data_image0
_chemical_formula_structural       Zn16H64C120O52
_chemical_formula_sum              "Zn16 H64 C120 O52"
_cell_length_a       17.34265
_cell_length_b       18.21464
_cell_length_c       18.6435
_cell_angle_alpha    90.07065
_cell_angle_beta     89.96064
_cell_angle_gamma    89.98022

_space_group_name_H-M_alt    "P 1"
_space_group_IT_number       1

loop_
  _space_group_symop_operation_xyz
  'x, y, z'

loop_
  _atom_site_type_symbol
  _atom_site_label
  _atom_site_symmetry_multiplicity
  _atom_site_fract_x
  _atom_site_fract_y
  _atom_site_fract_z
  _atom_site_occupancy
  Zn  Zn1       1.0  0.17314  0.93939  0.31811  1.0000
  Zn  Zn2       1.0  0.29977  0.6165  0.81658  1.0000
  Zn  Zn3       1.0  0.17301  0.1165  0.31794  1.0000
  Zn  Zn4       1.0  0.29983000000000004  0.43943  0.8196100000000001  1.0000
  Zn  Zn5       1.0  0.3035  0.027730000000000005  0.40217  1.0000
  Zn  Zn6       1.0  0.30392  0.028020000000000003  0.23115  1.0000
  Zn  Zn7       1.0  0.16885  0.52759  0.9034600000000002  1.0000
  Zn  Zn8       1.0  0.16896  0.52808  0.7326400000000001  1.0000
  Zn  Zn9       1.0  0.82709  0.88348  0.68208  1.0000
  Zn  Zn10      1.0  0.70024  0.5605  0.18049  1.0000
  Zn  Zn11      1.0  0.82689  0.06053  0.68188  1.0000
  Zn  Zn12      1.0  0.70019  0.3834700000000001  0.18339  1.0000
  Zn  Zn13      1.0  0.69644  0.9723200000000001  0.5978  1.0000
  Zn  Zn14      1.0  0.6961500000000003  0.9720600000000001  0.76886  1.0000
  Zn  Zn15      1.0  0.83115  0.47245000000000004  0.09653  1.0000
  Zn  Zn16      1.0  0.831  0.47204  0.26736  1.0000
  H   H1        1.0  0.6861400000000001  0.97199  0.41905  1.0000
  H   H2        1.0  0.13072000000000006  0.78344  0.47785000000000005  1.0000
  H   H3        1.0  0.34544  0.8668100000000002  0.55925  1.0000
  H   H4        1.0  0.34346  0.77218  0.65639  1.0000
  H   H5        1.0  0.12908000000000003  0.68809  0.57505  1.0000
  H   H6        1.0  0.93451  0.14025  0.28121  1.0000
  H   H7        1.0  0.79081  0.13903  0.27873  1.0000
  H   H8        1.0  0.7920400000000001  0.91681  0.35758  1.0000
  H   H9        1.0  0.93045  0.46637000000000006  0.9166800000000002  1.0000
  H   H10       1.0  0.32494  0.78846  0.96315  1.0000
  H   H11       1.0  0.14488000000000004  0.6727700000000001  0.07392  1.0000
  H   H12       1.0  0.14652000000000004  0.7679700000000002  0.1713  1.0000
  H   H13       1.0  0.32615  0.88393  0.06068  1.0000
  H   H14       1.0  0.53755  0.41441  0.84549  1.0000
  H   H15       1.0  0.9302300000000001  0.58953  0.72003  1.0000
  H   H16       1.0  0.78655  0.59242  0.72195  1.0000
  H   H17       1.0  0.5428  0.97471  0.42022000000000004  1.0000
  H   H18       1.0  0.14719  0.28727000000000014  0.4653399999999999  1.0000
  H   H19       1.0  0.3275  0.17185000000000003  0.57591  1.0000
  H   H20       1.0  0.32553  0.26695  0.67328  1.0000
  H   H21       1.0  0.14575  0.38273  0.56267  1.0000
  H   H22       1.0  0.9356900000000001  0.9175000000000001  0.3563  1.0000
  H   H23       1.0  0.54295  0.08139000000000002  0.21461  1.0000
  H   H24       1.0  0.68664  0.08357  0.21574  1.0000
  H   H25       1.0  0.7874  0.46333000000000013  0.91531  1.0000
  H   H26       1.0  0.34111  0.28217000000000003  0.97728  1.0000
  H   H27       1.0  0.13014  0.37011  0.06279  1.0000
  H   H28       1.0  0.13201  0.2754  0.16009  1.0000
  H   H29       1.0  0.34271000000000007  0.18686  0.07461  1.0000
  H   H30       1.0  0.53876  0.64415  0.79426  1.0000
  H   H31       1.0  0.68269  0.64355  0.79346  1.0000
  H   H32       1.0  0.68136  0.41367  0.84671  1.0000
  H   H33       1.0  0.31341  0.0279  0.58141  1.0000
  H   H34       1.0  0.85178  0.71193  0.53554  1.0000
  H   H35       1.0  0.67426  0.82933  0.42313  1.0000
  H   H36       1.0  0.67623  0.73422  0.32576  1.0000
  H   H37       1.0  0.85319  0.6164200000000001  0.43826000000000004  1.0000
  H   H38       1.0  0.06439  0.08329  0.64625  1.0000
  H   H39       1.0  0.06947  0.53523  0.08359  1.0000
  H   H40       1.0  0.65804  0.71726  0.02218  1.0000
  H   H41       1.0  0.8703900000000001  0.63085  0.93818  1.0000
  H   H42       1.0  0.86855  0.72556  0.84084  1.0000
  H   H43       1.0  0.6564800000000001  0.8125500000000001  0.92486  1.0000
  H   H44       1.0  0.46102999999999994  0.3574  0.21055  1.0000
  H   H45       1.0  0.06989000000000001  0.41042000000000006  0.27927  1.0000
  H   H46       1.0  0.21343  0.40771  0.27728  1.0000
  H   H47       1.0  0.45677  0.024970000000000006  0.57947  1.0000
  H   H48       1.0  0.87048  0.21551  0.52105  1.0000
  H   H49       1.0  0.65415  0.13401  0.4415  1.0000
  H   H50       1.0  0.65601  0.22873000000000002  0.34442  1.0000
  H   H51       1.0  0.87202  0.31087000000000004  0.42388  1.0000
  H   H52       1.0  0.0656  0.8595600000000002  0.71852  1.0000
  H   H53       1.0  0.2093  0.8608200000000003  0.72115  1.0000
  H   H54       1.0  0.20806  0.08403000000000002  0.6450400000000001  1.0000
  H   H55       1.0  0.45772  0.9191300000000001  0.78548  1.0000
  H   H56       1.0  0.31399000000000005  0.9169100000000001  0.78504  1.0000
  H   H57       1.0  0.21238  0.53813  0.08471  1.0000
  H   H58       1.0  0.6761  0.21100000000000005  0.03739  1.0000
  H   H59       1.0  0.85176  0.3298300000000001  0.9238499999999998  1.0000
  H   H60       1.0  0.85006  0.23488  0.82634  1.0000
  H   H61       1.0  0.67478  0.11565  0.93975  1.0000
  H   H62       1.0  0.46281  0.58462  0.14955  1.0000
  H   H63       1.0  0.31912  0.58562  0.14813  1.0000
  H   H64       1.0  0.31721  0.35829  0.2111  1.0000
  C   C1        1.0  0.23496  0.6682000000000002  0.6793  1.0000
  C   C2        1.0  0.65479  0.99545  0.37403  1.0000
  C   C3        1.0  0.23615  0.72463  0.62126  1.0000
  C   C4        1.0  0.23805000000000004  0.8305400000000002  0.5129  1.0000
  C   C5        1.0  0.23826  0.8873000000000002  0.45516999999999996  1.0000
  C   C6        1.0  0.17692  0.78018  0.51708  1.0000
  C   C7        1.0  0.29841  0.8275800000000001  0.56296  1.0000
  C   C8        1.0  0.29734  0.77492  0.6170100000000001  1.0000
  C   C9        1.0  0.17601  0.7274100000000002  0.57095  1.0000
  C   C10       1.0  0.90266  0.09149  0.29702  1.0000
  C   C11       1.0  0.82246  0.09042  0.29542  1.0000
  C   C12       1.0  0.82308  0.96579  0.34081  1.0000
  C   C13       1.0  0.23780000000000004  0.8876900000000002  0.17975  1.0000
  C   C14       1.0  0.8986600000000001  0.49235  0.87327  1.0000
  C   C15       1.0  0.23662  0.83109  0.12162  1.0000
  C   C16       1.0  0.23505  0.7251000000000001  0.01297  1.0000
  C   C17       1.0  0.23448  0.66827  0.9551200000000001  1.0000
  C   C18       1.0  0.28622  0.7846700000000002  0.00888  1.0000
  C   C19       1.0  0.18442  0.71898  0.07153  1.0000
  C   C20       1.0  0.18527  0.7717100000000002  0.12561  1.0000
  C   C21       1.0  0.28699  0.83743  0.06291  1.0000
  C   C22       1.0  0.56988  0.46429  0.83462  1.0000
  C   C23       1.0  0.89832  0.5629100000000001  0.7629600000000001  1.0000
  C   C24       1.0  0.8181000000000003  0.56413  0.76409  1.0000
  C   C25       1.0  0.23463  0.3872900000000001  0.68146  1.0000
  C   C26       1.0  0.5745300000000001  0.9971700000000001  0.37494  1.0000
  C   C27       1.0  0.23547000000000004  0.3302300000000001  0.62363  1.0000
  C   C28       1.0  0.23713000000000004  0.22393000000000005  0.51503  1.0000
  C   C29       1.0  0.23805000000000004  0.1674  0.4568400000000001  1.0000
  C   C30       1.0  0.18585000000000004  0.2834600000000001  0.51106  1.0000
  C   C31       1.0  0.2876900000000001  0.21791  0.5736  1.0000
  C   C32       1.0  0.28672  0.2707000000000001  0.62767  1.0000
  C   C33       1.0  0.185  0.33627  0.56505  1.0000
  C   C34       1.0  0.9033200000000002  0.9658600000000002  0.34019  1.0000
  C   C35       1.0  0.57477  0.05827000000000001  0.25945  1.0000
  C   C36       1.0  0.65505  0.05926  0.2602  1.0000
  C   C37       1.0  0.23806  0.16846  0.17996  1.0000
  C   C38       1.0  0.81842  0.49078000000000005  0.87231  1.0000
  C   C39       1.0  0.23735000000000003  0.22564000000000003  0.12271000000000001  1.0000
  C   C40       1.0  0.23547000000000004  0.3313  0.014459999999999999  1.0000
  C   C41       1.0  0.23475  0.38769000000000003  0.9565700000000001  1.0000
  C   C42       1.0  0.29572  0.27985  0.01745  1.0000
  C   C43       1.0  0.17625  0.3298300000000001  0.06577  1.0000
  C   C44       1.0  0.17733  0.27725000000000005  0.11984  1.0000
  C   C45       1.0  0.29662  0.22717  0.07132  1.0000
  C   C46       1.0  0.5706  0.59394  0.80502  1.0000
  C   C47       1.0  0.65086  0.59327  0.8042  1.0000
  C   C48       1.0  0.65012  0.4641700000000001  0.83541  1.0000
  C   C49       1.0  0.53372  0.02787  0.31719  1.0000
  C   C50       1.0  0.02954  0.02924  0.31846  1.0000
  C   C51       1.0  0.4477  0.028170000000000004  0.31696  1.0000
  C   C52       1.0  0.69633  0.02721  0.3171  1.0000
  C   C53       1.0  0.9437199999999999  0.0289  0.31871  1.0000
  C   C54       1.0  0.78145  0.027770000000000003  0.31771  1.0000
  C   C55       1.0  0.9392699999999999  0.5279300000000001  0.81818  1.0000
  C   C56       1.0  0.4434800000000001  0.52941  0.81868  1.0000
  C   C57       1.0  0.02517  0.52906  0.81825  1.0000
  C   C58       1.0  0.77695  0.52757  0.81845  1.0000
  C   C59       1.0  0.5294  0.52925  0.81953  1.0000
  C   C60       1.0  0.69181  0.52839  0.81938  1.0000
  C   C61       1.0  0.76545  0.61276  0.3186  1.0000
  C   C62       1.0  0.34501  0.00453  0.62632  1.0000
  C   C63       1.0  0.76482  0.6699000000000002  0.37636  1.0000
  C   C64       1.0  0.76317  0.77621  0.48496000000000006  1.0000
  C   C65       1.0  0.76211  0.83268  0.54319  1.0000
  C   C66       1.0  0.81372  0.7161500000000002  0.48942  1.0000
  C   C67       1.0  0.71345  0.78281  0.42585  1.0000
  C   C68       1.0  0.7144  0.7300200000000001  0.37179  1.0000
  C   C69       1.0  0.81454  0.6633000000000002  0.43546  1.0000
  C   C70       1.0  0.09677  0.03471  0.66171  1.0000
  C   C71       1.0  0.76185  0.8316  0.82008  1.0000
  C   C72       1.0  0.10131  0.50882  0.12672  1.0000
  C   C73       1.0  0.76248  0.77449  0.87742  1.0000
  C   C74       1.0  0.7643900000000002  0.6688600000000002  0.98572  1.0000
  C   C75       1.0  0.7651600000000002  0.6123900000000002  0.04354  1.0000
  C   C76       1.0  0.70374  0.71987  0.9823300000000001  1.0000
  C   C77       1.0  0.82396  0.67078  0.93481  1.0000
  C   C78       1.0  0.8229  0.72334  0.88073  1.0000
  C   C79       1.0  0.70284  0.77255  0.9284299999999999  1.0000
  C   C80       1.0  0.42932  0.4071100000000001  0.1975  1.0000
  C   C81       1.0  0.10168  0.43745  0.23651000000000003  1.0000
  C   C82       1.0  0.1819  0.43628  0.23532000000000003  1.0000
  C   C83       1.0  0.76517  0.3318  0.32064  1.0000
  C   C84       1.0  0.4252800000000001  0.00271  0.62499  1.0000
  C   C85       1.0  0.76412  0.27533  0.37864  1.0000
  C   C86       1.0  0.7622800000000002  0.16937  0.48696000000000006  1.0000
  C   C87       1.0  0.76186  0.11268000000000002  0.54477  1.0000
  C   C88       1.0  0.82388  0.21917  0.48225  1.0000
  C   C89       1.0  0.70151  0.17285000000000006  0.43738000000000005  1.0000
  C   C90       1.0  0.70253  0.22553  0.38335  1.0000
  C   C91       1.0  0.82477  0.27195  0.42838  1.0000
  C   C92       1.0  0.09745  0.90853  0.70332  1.0000
  C   C93       1.0  0.17765  0.9096200000000001  0.705  1.0000
  C   C94       1.0  0.177  0.03482  0.66114  1.0000
  C   C95       1.0  0.42560000000000003  0.94204  0.74071  1.0000
  C   C96       1.0  0.34533  0.94106  0.74035  1.0000
  C   C97       1.0  0.7618700000000003  0.11264000000000002  0.82002  1.0000
  C   C98       1.0  0.18154  0.5103300000000001  0.12759  1.0000
  C   C99       1.0  0.7624100000000003  0.16982  0.8776199999999998  1.0000
  C   C100      1.0  0.76399  0.27578  0.9862999999999998  1.0000
  C   C101      1.0  0.7652100000000001  0.33206  0.04464  1.0000
  C   C102      1.0  0.71384  0.21549  0.99103  1.0000
  C   C103      1.0  0.81317  0.28293  0.9268200000000001  1.0000
  C   C104      1.0  0.81229  0.23027000000000003  0.8726699999999998  1.0000
  C   C105      1.0  0.71304  0.1628  0.9369600000000001  1.0000
  C   C106      1.0  0.4303600000000001  0.5353200000000001  0.16248  1.0000
  C   C107      1.0  0.35013  0.5355600000000003  0.16159  1.0000
  C   C108      1.0  0.34908  0.40799  0.19819  1.0000
  C   C109      1.0  0.46634000000000003  0.9722400000000001  0.6827  1.0000
  C   C110      1.0  0.9705499999999999  0.9708300000000001  0.68187  1.0000
  C   C111      1.0  0.5523300000000001  0.97208  0.68283  1.0000
  C   C112      1.0  0.30378  0.9729900000000001  0.68357  1.0000
  C   C113      1.0  0.056380000000000006  0.9713100000000001  0.68222  1.0000
  C   C114      1.0  0.21864000000000006  0.9725200000000003  0.68335  1.0000
  C   C115      1.0  0.06072  0.47295  0.18162  1.0000
  C   C116      1.0  0.55656  0.47070000000000006  0.18127  1.0000
  C   C117      1.0  0.9748199999999999  0.4723800000000001  0.18168  1.0000
  C   C118      1.0  0.22309000000000007  0.47317000000000004  0.18118  1.0000
  C   C119      1.0  0.47067000000000003  0.47101000000000004  0.18032  1.0000
  C   C120      1.0  0.30822  0.47220000000000006  0.18024  1.0000
  O   O1        1.0  0.28554  0.94064  0.46225000000000005  1.0000
  O   O2        1.0  0.18736  0.61516  0.67238  1.0000
  O   O3        1.0  0.19105  0.87791  0.40334  1.0000
  O   O4        1.0  0.28177  0.67789  0.73147  1.0000
  O   O5        1.0  0.06309  0.96665  0.32031  1.0000
  O   O6        1.0  0.18769  0.6146000000000001  0.96364  1.0000
  O   O7        1.0  0.28496  0.9409400000000001  0.17132  1.0000
  O   O8        1.0  0.2805000000000001  0.6777900000000002  0.90236  1.0000
  O   O9        1.0  0.19178  0.8780500000000002  0.23255000000000003  1.0000
  O   O10       1.0  0.4102  0.59226  0.81798  1.0000
  O   O11       1.0  0.28476  0.1136  0.46505  1.0000
  O   O12       1.0  0.1876  0.44072  0.67294  1.0000
  O   O13       1.0  0.19224  0.17746  0.40398  1.0000
  O   O14       1.0  0.28082  0.37791  0.73409  1.0000
  O   O15       1.0  0.06262  0.09214000000000003  0.31624  1.0000
  O   O16       1.0  0.18721  0.44081000000000004  0.96366  1.0000
  O   O17       1.0  0.28505  0.11506  0.17127  1.0000
  O   O18       1.0  0.28193  0.37814  0.90465  1.0000
  O   O19       1.0  0.19171  0.17780000000000007  0.23265  1.0000
  O   O20       1.0  0.4099500000000001  0.46676000000000006  0.81854  1.0000
  O   O21       1.0  0.23809000000000002  0.02828  0.31679  1.0000
  O   O22       1.0  0.4141300000000001  0.025630000000000007  0.37815  1.0000
  O   O23       1.0  0.41448  0.031  0.25566  1.0000
  O   O24       1.0  0.23477000000000003  0.52827  0.81812  1.0000
  O   O25       1.0  0.05836  0.5252100000000002  0.8794999999999998  1.0000
  O   O26       1.0  0.05849  0.53397  0.7571  1.0000
  O   O27       1.0  0.71534  0.8864600000000001  0.53497  1.0000
  O   O28       1.0  0.8123600000000001  0.5592700000000003  0.32715  1.0000
  O   O29       1.0  0.80784  0.82256  0.59608  1.0000
  O   O30       1.0  0.71925  0.6221300000000001  0.26596  1.0000
  O   O31       1.0  0.9374800000000001  0.9079100000000001  0.6838  1.0000
  O   O32       1.0  0.8127200000000001  0.5592700000000003  0.03636  1.0000
  O   O33       1.0  0.71484  0.8850100000000001  0.82875  1.0000
  O   O34       1.0  0.71807  0.62192  0.09551  1.0000
  O   O35       1.0  0.80825  0.8222600000000001  0.76746  1.0000
  O   O36       1.0  0.5901  0.53333  0.18137  1.0000
  O   O37       1.0  0.71444  0.05945000000000001  0.53775  1.0000
  O   O38       1.0  0.81278  0.38487  0.32754  1.0000
  O   O39       1.0  0.8089900000000001  0.12208000000000001  0.59666  1.0000
  O   O40       1.0  0.71824  0.32215  0.26859  1.0000
  O   O41       1.0  0.9369500000000001  0.03339  0.67973  1.0000
  O   O42       1.0  0.81225  0.38556  0.03631  1.0000
  O   O43       1.0  0.7150300000000003  0.05916  0.82873  1.0000
  O   O44       1.0  0.71952  0.32225  0.09759  1.0000
  O   O45       1.0  0.8082  0.12199000000000002  0.76742  1.0000
  O   O46       1.0  0.58977  0.40782000000000007  0.18207  1.0000
  O   O47       1.0  0.76188  0.9716100000000001  0.68318  1.0000
  O   O48       1.0  0.58583  0.9743600000000001  0.62164  1.0000
  O   O49       1.0  0.5856  0.9696900000000002  0.74412  1.0000
  O   O50       1.0  0.76525  0.4716000000000001  0.18187  1.0000
  O   O51       1.0  0.9416300000000001  0.4746100000000001  0.12036000000000001  1.0000
  O   O52       1.0  0.94158  0.4696200000000001  0.24298000000000003  1.0000
