data_image0
_chemical_formula_structural       Zn8H68C112N20O32
_chemical_formula_sum              "Zn8 H68 C112 N20 O32"
_cell_length_a       13.79044
_cell_length_b       16.89394
_cell_length_c       19.242589999999996
_cell_angle_alpha    116.0031
_cell_angle_beta     103.59425
_cell_angle_gamma    89.89868999999999

_space_group_name_H-M_alt    "P 1"
_space_group_IT_number       1

loop_
  _space_group_symop_operation_xyz
  'x, y, z'

loop_
  _atom_site_type_symbol
  _atom_site_label
  _atom_site_symmetry_multiplicity
  _atom_site_fract_x
  _atom_site_fract_y
  _atom_site_fract_z
  _atom_site_occupancy
  Zn  Zn1       1.0  0.24274999999999994  0.42738  0.34611  1.0000
  Zn  Zn2       1.0  0.18443999999999994  0.33308  0.17434  1.0000
  Zn  Zn3       1.0  0.7425899999999998  0.9178299999999998  0.34549  1.0000
  Zn  Zn4       1.0  0.68432  0.84157  0.17446  1.0000
  Zn  Zn5       1.0  0.2574199999999999  0.08217  0.65452  1.0000
  Zn  Zn6       1.0  0.31568  0.15844  0.82554  1.0000
  Zn  Zn7       1.0  0.7572599999999998  0.57263  0.65389  1.0000
  Zn  Zn8       1.0  0.8155599999999997  0.66692  0.82566  1.0000
  H   H1        1.0  0.94141  0.16029  0.14827  1.0000
  H   H2        1.0  0.83797  0.03866  0.14974  1.0000
  H   H3        1.0  0.9328999999999997  0.16326  0.4062500000000001  1.0000
  H   H4        1.0  0.03668000000000001  0.28493000000000007  0.40465000000000007  1.0000
  H   H5        1.0  0.48965999999999993  0.60031  0.11517  1.0000
  H   H6        1.0  0.5910699999999998  0.7205399999999997  0.37127000000000004  1.0000
  H   H7        1.0  0.4845699999999999  0.60121  0.37298  1.0000
  H   H8        1.0  0.3828099999999999  0.48101  0.11679  1.0000
  H   H9        1.0  0.12256  0.14174  0.0938  1.0000
  H   H10       1.0  0.020059999999999995  0.028139999999999995  0.95835  1.0000
  H   H11       1.0  0.03499000000000001  0.22330000000000005  0.87217  1.0000
  H   H12       1.0  0.13462  0.32913  0.0106  1.0000
  H   H13       1.0  0.7934499999999998  0.89437  0.72149  1.0000
  H   H14       1.0  0.9796599999999995  0.05755999999999997  0.62996  1.0000
  H   H15       1.0  0.91716  0.026110000000000053  0.48565  1.0000
  H   H16       1.0  0.6543199999999999  0.88439  0.45635  1.0000
  H   H17       1.0  0.70122  0.91299  0.59998  1.0000
  H   H18       1.0  0.4418399999999999  0.9874399999999999  0.14849  1.0000
  H   H19       1.0  0.33834999999999993  0.11073  0.14977  1.0000
  H   H20       1.0  0.43341999999999986  0.24261999999999997  0.40621  1.0000
  H   H21       1.0  0.5371699999999998  0.11915000000000002  0.40489  1.0000
  H   H22       1.0  0.98976  0.51489  0.11555  1.0000
  H   H23       1.0  0.09102999999999997  0.65074  0.37166  1.0000
  H   H24       1.0  0.9846799999999998  0.77198  0.37299  1.0000
  H   H25       1.0  0.8829999999999999  0.63603  0.11689  1.0000
  H   H26       1.0  0.62249  0.95188  0.09366  1.0000
  H   H27       1.0  0.5198399999999999  0.93015  0.958  1.0000
  H   H28       1.0  0.53512  0.6488  0.87218  1.0000
  H   H29       1.0  0.6347999999999998  0.68148  0.01093  1.0000
  H   H30       1.0  0.2928699999999999  0.8270299999999998  0.72101  1.0000
  H   H31       1.0  0.4800399999999999  0.5722199999999998  0.62994  1.0000
  H   H32       1.0  0.41747999999999996  0.45944000000000007  0.48584000000000005  1.0000
  H   H33       1.0  0.15417  0.57197  0.45635  1.0000
  H   H34       1.0  0.20103  0.68705  0.59981  1.0000
  H   H35       1.0  0.5581699999999998  0.012559999999999988  0.85151  1.0000
  H   H36       1.0  0.6616599999999999  0.88927  0.85023  1.0000
  H   H37       1.0  0.56658  0.75738  0.59379  1.0000
  H   H38       1.0  0.46283  0.8808499999999999  0.59511  1.0000
  H   H39       1.0  0.010239999999999987  0.48511000000000004  0.88445  1.0000
  H   H40       1.0  0.90897  0.34926  0.62834  1.0000
  H   H41       1.0  0.015319999999999985  0.22802  0.62701  1.0000
  H   H42       1.0  0.11700999999999999  0.36396999999999996  0.88311  1.0000
  H   H43       1.0  0.3775199999999999  0.04812  0.90634  1.0000
  H   H44       1.0  0.4801699999999999  0.06985  0.042  1.0000
  H   H45       1.0  0.46488999999999997  0.35119999999999996  0.12782  1.0000
  H   H46       1.0  0.3652  0.31852999999999987  0.98907  1.0000
  H   H47       1.0  0.70714  0.17297  0.279  1.0000
  H   H48       1.0  0.51996  0.42778  0.37006  1.0000
  H   H49       1.0  0.58252  0.54056  0.51416  1.0000
  H   H50       1.0  0.8458399999999999  0.42803  0.54365  1.0000
  H   H51       1.0  0.7989699999999997  0.31295  0.40019  1.0000
  H   H52       1.0  0.05859000000000001  0.83971  0.85173  1.0000
  H   H53       1.0  0.16204000000000007  0.9613400000000001  0.8502600000000002  1.0000
  H   H54       1.0  0.06709999999999998  0.8367399999999997  0.59376  1.0000
  H   H55       1.0  0.9633299999999998  0.71507  0.59535  1.0000
  H   H56       1.0  0.51034  0.3996899999999999  0.88484  1.0000
  H   H57       1.0  0.40892999999999996  0.27946  0.62873  1.0000
  H   H58       1.0  0.51543  0.39879  0.62702  1.0000
  H   H59       1.0  0.6171999999999997  0.5189899999999998  0.88321  1.0000
  H   H60       1.0  0.8774399999999998  0.85826  0.9062  1.0000
  H   H61       1.0  0.9799499999999998  0.97186  0.04165  1.0000
  H   H62       1.0  0.9650099999999998  0.7767  0.12783  1.0000
  H   H63       1.0  0.8653799999999998  0.6708699999999999  0.9894100000000001  1.0000
  H   H64       1.0  0.20654999999999996  0.10563000000000003  0.27851  1.0000
  H   H65       1.0  0.020350000000000004  0.94244  0.37004  1.0000
  H   H66       1.0  0.08283999999999994  0.97389  0.51435  1.0000
  H   H67       1.0  0.34569  0.11561  0.54366  1.0000
  H   H68       1.0  0.2987899999999999  0.08701  0.40002  1.0000
  C   C1        1.0  0.8226399999999999  0.017580000000000005  0.27707  1.0000
  C   C2        1.0  0.06677999999999999  0.29467999999999994  0.27421  1.0000
  C   C3        1.0  0.9955099999999998  0.22909  0.27635  1.0000
  C   C4        1.0  0.9381699999999997  0.16061  0.20429  1.0000
  C   C5        1.0  0.8812299999999997  0.09324999999999997  0.20504  1.0000
  C   C6        1.0  0.8805399999999998  0.09319  0.2778  1.0000
  C   C7        1.0  0.93494  0.16345999999999997  0.35017  1.0000
  C   C8        1.0  0.9919599999999997  0.23108000000000012  0.3494000000000001  1.0000
  C   C9        1.0  0.60581  0.7420799999999999  0.24371  1.0000
  C   C10       1.0  0.5460199999999997  0.6677  0.24328000000000002  1.0000
  C   C11       1.0  0.4885999999999999  0.59939  0.17112  1.0000
  C   C12       1.0  0.54564  0.6673999999999999  0.3160200000000001  1.0000
  C   C13       1.0  0.35906  0.46686  0.24719  1.0000
  C   C14       1.0  0.42803  0.53363  0.24496  1.0000
  C   C15       1.0  0.4872299999999999  0.60101  0.31692  1.0000
  C   C16       1.0  0.4299699999999999  0.53291  0.17207  1.0000
  C   C17       1.0  0.10135999999999998  0.1567  0.04303  1.0000
  C   C18       1.0  0.04459999999999994  0.09432000000000013  0.96869  1.0000
  C   C19       1.0  0.01841000000000006  0.11899000000000001  0.90675  1.0000
  C   C20       1.0  0.05271999999999999  0.20337  0.91976  1.0000
  C   C21       1.0  0.10867000000000002  0.26157  0.9962299999999998  1.0000
  C   C22       1.0  0.87784  0.0017100000000000151  0.70976  1.0000
  C   C23       1.0  0.84724  0.9527699999999999  0.74661  1.0000
  C   C24       1.0  0.8457499999999998  0.9864  0.62655  1.0000
  C   C25       1.0  0.90681  0.01942999999999997  0.59376  1.0000
  C   C26       1.0  0.8731299999999997  0.0017499999999999634  0.51388  1.0000
  C   C27       1.0  0.7251099999999998  0.92248  0.49748  1.0000
  C   C28       1.0  0.75263  0.93768  0.5769  1.0000
  C   C29       1.0  0.32287  0.25905  0.27677  1.0000
  C   C30       1.0  0.56658  0.97836  0.27443  1.0000
  C   C31       1.0  0.4957999999999999  0.04653999999999997  0.27652  1.0000
  C   C32       1.0  0.43857  0.043189999999999985  0.20445  1.0000
  C   C33       1.0  0.38161  0.11139999999999999  0.20511  1.0000
  C   C34       1.0  0.38093  0.18421  0.27787  1.0000
  C   C35       1.0  0.4354599999999999  0.18623  0.35022  1.0000
  C   C36       1.0  0.4925  0.11773  0.34956  1.0000
  C   C37       1.0  0.10536  0.50103  0.24411000000000002  1.0000
  C   C38       1.0  0.04606999999999998  0.57543  0.24363999999999997  1.0000
  C   C39       1.0  0.9887499999999998  0.5718  0.17145  1.0000
  C   C40       1.0  0.04574  0.6485699999999999  0.31629  1.0000
  C   C41       1.0  0.85948  0.78084  0.24696  1.0000
  C   C42       1.0  0.9283399999999996  0.71165  0.24502  1.0000
  C   C43       1.0  0.9874199999999999  0.7160499999999999  0.31703  1.0000
  C   C44       1.0  0.93017  0.63936  0.17222  1.0000
  C   C45       1.0  0.60127  0.88622  0.04286000000000001  1.0000
  C   C46       1.0  0.54446  0.8743099999999997  0.96847  1.0000
  C   C47       1.0  0.51843  0.78769  0.90663  1.0000
  C   C48       1.0  0.55281  0.7163  0.91978  1.0000
  C   C49       1.0  0.60876  0.7345799999999999  0.99633  1.0000
  C   C50       1.0  0.37775  0.7081  0.70961  1.0000
  C   C51       1.0  0.34692  0.79387  0.74631  1.0000
  C   C52       1.0  0.3458  0.64017  0.62651  1.0000
  C   C53       1.0  0.4070499999999999  0.5743  0.59385  1.0000
  C   C54       1.0  0.37332  0.51202  0.51407  1.0000
  C   C55       1.0  0.22499999999999998  0.57493  0.49752  1.0000
  C   C56       1.0  0.25256  0.63923  0.57682  1.0000
  C   C57       1.0  0.6771299999999998  0.74095  0.72323  1.0000
  C   C58       1.0  0.4334299999999999  0.021639999999999996  0.72557  1.0000
  C   C59       1.0  0.50421  0.95346  0.72349  1.0000
  C   C60       1.0  0.5614399999999998  0.9568100000000002  0.79555  1.0000
  C   C61       1.0  0.6183899999999998  0.8886  0.79489  1.0000
  C   C62       1.0  0.61907  0.81579  0.72214  1.0000
  C   C63       1.0  0.5645499999999999  0.81377  0.64978  1.0000
  C   C64       1.0  0.5074999999999997  0.88228  0.65044  1.0000
  C   C65       1.0  0.8946399999999995  0.49896999999999997  0.75589  1.0000
  C   C66       1.0  0.95393  0.42457  0.75636  1.0000
  C   C67       1.0  0.011249999999999994  0.4282  0.82856  1.0000
  C   C68       1.0  0.9542599999999998  0.35143  0.68371  1.0000
  C   C69       1.0  0.14051999999999998  0.21915999999999994  0.75304  1.0000
  C   C70       1.0  0.07167000000000003  0.28835  0.75499  1.0000
  C   C71       1.0  0.01258999999999995  0.28395  0.68297  1.0000
  C   C72       1.0  0.06984  0.36063999999999996  0.82779  1.0000
  C   C73       1.0  0.39873999999999993  0.11378000000000002  0.95714  1.0000
  C   C74       1.0  0.4555399999999999  0.12569  0.03153  1.0000
  C   C75       1.0  0.4815799999999999  0.21232  0.09337  1.0000
  C   C76       1.0  0.44718999999999987  0.28369999999999995  0.08022  1.0000
  C   C77       1.0  0.3912399999999999  0.26542  0.00367  1.0000
  C   C78       1.0  0.6222599999999998  0.2919  0.29039  1.0000
  C   C79       1.0  0.65308  0.20613  0.25369  1.0000
  C   C80       1.0  0.6542099999999998  0.35983  0.37349  1.0000
  C   C81       1.0  0.59295  0.4257  0.40616  1.0000
  C   C82       1.0  0.62668  0.4879800000000001  0.48594  1.0000
  C   C83       1.0  0.77501  0.42507  0.50249  1.0000
  C   C84       1.0  0.7474399999999999  0.36078  0.42318  1.0000
  C   C85       1.0  0.17737  0.9824200000000001  0.72293  1.0000
  C   C86       1.0  0.9332299999999998  0.70532  0.72579  1.0000
  C   C87       1.0  0.0044999999999999875  0.77091  0.72365  1.0000
  C   C88       1.0  0.06183000000000001  0.83939  0.79571  1.0000
  C   C89       1.0  0.11877  0.9067499999999998  0.79496  1.0000
  C   C90       1.0  0.11946000000000002  0.9068100000000001  0.7222000000000002  1.0000
  C   C91       1.0  0.06506  0.83654  0.64983  1.0000
  C   C92       1.0  0.00804  0.76892  0.6506  1.0000
  C   C93       1.0  0.3941899999999999  0.25792  0.75629  1.0000
  C   C94       1.0  0.4539799999999999  0.3323  0.75672  1.0000
  C   C95       1.0  0.5114  0.40061  0.82888  1.0000
  C   C96       1.0  0.4543599999999999  0.3326  0.68398  1.0000
  C   C97       1.0  0.6409499999999998  0.53314  0.75281  1.0000
  C   C98       1.0  0.5719699999999999  0.46637  0.75504  1.0000
  C   C99       1.0  0.5127699999999997  0.39899  0.68308  1.0000
  C   C100      1.0  0.57003  0.4670999999999999  0.82794  1.0000
  C   C101      1.0  0.8986399999999999  0.8433  0.95698  1.0000
  C   C102      1.0  0.9553999999999998  0.90568  0.03131  1.0000
  C   C103      1.0  0.9815899999999997  0.88101  0.09325  1.0000
  C   C104      1.0  0.9472899999999997  0.79663  0.08024  1.0000
  C   C105      1.0  0.8913299999999997  0.73843  0.0037700000000000003  1.0000
  C   C106      1.0  0.12216999999999997  0.99829  0.29025  1.0000
  C   C107      1.0  0.15277  0.04722999999999999  0.2534  1.0000
  C   C108      1.0  0.15425  0.013600000000000013  0.37345  1.0000
  C   C109      1.0  0.09318999999999997  0.98057  0.40624  1.0000
  C   C110      1.0  0.12686999999999998  0.99826  0.48612  1.0000
  C   C111      1.0  0.2748999999999999  0.07752000000000006  0.5025200000000001  1.0000
  C   C112      1.0  0.24737999999999993  0.06232000000000001  0.4231  1.0000
  N   N1        1.0  0.13175999999999993  0.23968  0.05717  1.0000
  N   N2        1.0  0.78446  0.9533599999999999  0.46605  1.0000
  N   N3        1.0  0.9557399999999998  0.05924000000000006  0.8320400000000002  1.0000
  N   N4        1.0  0.9468299999999998  0.06924  0.76548  1.0000
  N   N5        1.0  0.8972400000000001  0.9895999999999999  0.82372  1.0000
  N   N6        1.0  0.63179  0.81742  0.05714  1.0000
  N   N7        1.0  0.28451  0.51256  0.46623  1.0000
  N   N8        1.0  0.4557199999999999  0.77278  0.83185  1.0000
  N   N9        1.0  0.44688  0.69624  0.76538  1.0000
  N   N10       1.0  0.39698  0.8341  0.82342  1.0000
  N   N11       1.0  0.3682199999999999  0.18259000000000003  0.94286  1.0000
  N   N12       1.0  0.7154899999999997  0.48744  0.53377  1.0000
  N   N13       1.0  0.54428  0.22722  0.16815  1.0000
  N   N14       1.0  0.55312  0.30376  0.23462  1.0000
  N   N15       1.0  0.6030199999999998  0.1659  0.17658  1.0000
  N   N16       1.0  0.8682499999999997  0.76032  0.94283  1.0000
  N   N17       1.0  0.21553999999999995  0.046639999999999994  0.53395  1.0000
  N   N18       1.0  0.044259999999999994  0.94076  0.16796  1.0000
  N   N19       1.0  0.05317  0.93076  0.23453  1.0000
  N   N20       1.0  0.10275999999999998  0.010400000000000001  0.17628  1.0000
  O   O1        1.0  0.8240299999999998  0.02007000000000001  0.34447  1.0000
  O   O2        1.0  0.7758399999999998  0.9569999999999999  0.2084  1.0000
  O   O3        1.0  0.07179  0.28267  0.20509  1.0000
  O   O4        1.0  0.11917  0.35431  0.34117  1.0000
  O   O5        1.0  0.60478  0.7394899999999996  0.17635  1.0000
  O   O6        1.0  0.65313  0.80255  0.31243  1.0000
  O   O7        1.0  0.30539999999999995  0.40793  0.18008  1.0000
  O   O8        1.0  0.35756  0.47547  0.31617  1.0000
  O   O9        1.0  0.32454  0.32432  0.3441  1.0000
  O   O10       1.0  0.27579  0.25058  0.20803  1.0000
  O   O11       1.0  0.57133  0.92106  0.20526  1.0000
  O   O12       1.0  0.61881  0.98507  0.34125  1.0000
  O   O13       1.0  0.10436999999999998  0.43649  0.17669  1.0000
  O   O14       1.0  0.15220999999999996  0.50839  0.31269  1.0000
  O   O15       1.0  0.8058299999999998  0.77286  0.17985  1.0000
  O   O16       1.0  0.8580899999999998  0.8414199999999997  0.31584  1.0000
  O   O17       1.0  0.67547  0.67568  0.6559  1.0000
  O   O18       1.0  0.72421  0.74942  0.79197  1.0000
  O   O19       1.0  0.42868  0.07893999999999997  0.79474  1.0000
  O   O20       1.0  0.3812  0.01493000000000002  0.65875  1.0000
  O   O21       1.0  0.8956399999999998  0.56351  0.82332  1.0000
  O   O22       1.0  0.8477899999999999  0.49161000000000005  0.68731  1.0000
  O   O23       1.0  0.19417  0.22713999999999998  0.82015  1.0000
  O   O24       1.0  0.14191000000000004  0.15858000000000008  0.6841600000000001  1.0000
  O   O25       1.0  0.17597  0.9799300000000001  0.65553  1.0000
  O   O26       1.0  0.22416  0.04299999999999999  0.79161  1.0000
  O   O27       1.0  0.9282100000000001  0.71733  0.79492  1.0000
  O   O28       1.0  0.88083  0.64569  0.65883  1.0000
  O   O29       1.0  0.3952200000000001  0.2605100000000001  0.8236600000000002  1.0000
  O   O30       1.0  0.3468799999999999  0.19745000000000004  0.68757  1.0000
  O   O31       1.0  0.6946099999999997  0.59207  0.81992  1.0000
  O   O32       1.0  0.64245  0.52453  0.68384  1.0000
