data_image0
_chemical_formula_structural       Zn6H108C132O34
_chemical_formula_sum              "Zn6 H108 C132 O34"
_cell_length_a       8.40375
_cell_length_b       23.70764
_cell_length_c       23.744989999999998
_cell_angle_alpha    88.41290000000001
_cell_angle_beta     80.01246
_cell_angle_gamma    79.89473

_space_group_name_H-M_alt    "P 1"
_space_group_IT_number       1

loop_
  _space_group_symop_operation_xyz
  'x, y, z'

loop_
  _atom_site_type_symbol
  _atom_site_label
  _atom_site_symmetry_multiplicity
  _atom_site_fract_x
  _atom_site_fract_y
  _atom_site_fract_z
  _atom_site_occupancy
  Zn  Zn1       1.0  0.7886499999999995  0.06068000000000001  0.9503900000000001  1.0000
  Zn  Zn2       1.0  0.14618  0.04776  0.06120000000000001  1.0000
  Zn  Zn3       1.0  0.8058399999999999  0.93897  0.04684  1.0000
  Zn  Zn4       1.0  0.2503600000000001  0.50147  0.49883000000000005  1.0000
  Zn  Zn5       1.0  0.25879999999999986  0.95257  0.9384900000000003  1.0000
  Zn  Zn6       1.0  0.4983099999999999  0.00103  0.001  1.0000
  H   H1        1.0  0.38906  0.99516  0.7264500000000002  1.0000
  H   H2        1.0  0.42336  0.89693  0.37574  1.0000
  H   H3        1.0  0.4798499999999999  0.96237  0.20063  1.0000
  H   H4        1.0  0.58079  0.021530000000000004  0.18013  1.0000
  H   H5        1.0  0.32696000000000003  0.81957  0.60991  1.0000
  H   H6        1.0  0.8795399999999994  0.014900000000000002  0.7302000000000001  1.0000
  H   H7        1.0  0.31942999999999994  0.20225  0.03569  1.0000
  H   H8        1.0  0.7856799999999999  0.32089  0.49859  1.0000
  H   H9        1.0  0.10795999999999999  0.00514  0.27395  1.0000
  H   H10       1.0  0.14663000000000004  0.50216  0.25031  1.0000
  H   H11       1.0  0.16454000000000002  0.97546  0.79166  1.0000
  H   H12       1.0  0.69277  0.0027800000000000004  0.36369  1.0000
  H   H13       1.0  0.8527699999999999  0.63612  0.84928  1.0000
  H   H14       1.0  0.8928099999999999  0.50247  0.3195  1.0000
  H   H15       1.0  0.22217  0.04288  0.46979000000000004  1.0000
  H   H16       1.0  0.8797  0.50554  0.1112  1.0000
  H   H17       1.0  0.25565  0.13002  0.40182000000000007  1.0000
  H   H18       1.0  0.70673  0.18545  0.024490000000000005  1.0000
  H   H19       1.0  0.8984099999999999  0.49782  0.75012  1.0000
  H   H20       1.0  0.6198700000000001  0.50683  0.18091  1.0000
  H   H21       1.0  0.50661  0.30639  0.88489  1.0000
  H   H22       1.0  0.511  0.15196  0.6356400000000001  1.0000
  H   H23       1.0  0.18561000000000002  0.11249  0.30684  1.0000
  H   H24       1.0  0.012969999999999971  0.11282  0.4941  1.0000
  H   H25       1.0  0.8190099999999999  0.63146  0.50231  1.0000
  H   H26       1.0  0.00890999999999995  0.34953000000000006  0.55952  1.0000
  H   H27       1.0  0.6073400000000001  0.88594  0.69396  1.0000
  H   H28       1.0  0.6802799999999998  0.13039  0.35234000000000004  1.0000
  H   H29       1.0  0.6223099999999999  0.9842000000000001  0.2702800000000001  1.0000
  H   H30       1.0  0.8113899999999998  0.8732300000000001  0.31085  1.0000
  H   H31       1.0  0.18357999999999988  0.9930300000000001  0.36973  1.0000
  H   H32       1.0  0.3514199999999999  0.7493300000000002  0.50284  1.0000
  H   H33       1.0  0.6152699999999998  0.8885  0.50564  1.0000
  H   H34       1.0  0.7318199999999999  0.4612500000000001  0.01861  1.0000
  H   H35       1.0  0.6765099999999998  0.50574  0.36790000000000006  1.0000
  H   H36       1.0  0.61707  0.27356  0.9930100000000001  1.0000
  H   H37       1.0  0.02851999999999999  0.62043  0.10933000000000001  1.0000
  H   H38       1.0  0.5535999999999999  0.49128  0.62964  1.0000
  H   H39       1.0  0.8741499999999999  0.81851  0.5068  1.0000
  H   H40       1.0  0.14569999999999997  0.47744  0.014700000000000003  1.0000
  H   H41       1.0  0.49287000000000003  0.49454  0.88715  1.0000
  H   H42       1.0  0.95426  0.37084000000000006  0.49172000000000005  1.0000
  H   H43       1.0  0.16008999999999995  0.13739  0.59079  1.0000
  H   H44       1.0  0.4629199999999997  0.8258400000000002  0.40141  1.0000
  H   H45       1.0  0.69347  0.1744  0.59926  1.0000
  H   H46       1.0  0.20114999999999997  0.3749  0.10269  1.0000
  H   H47       1.0  0.8516799999999999  0.39019  0.8193000000000001  1.0000
  H   H48       1.0  0.9212699999999998  0.8146700000000001  0.97605  1.0000
  H   H49       1.0  0.16273999999999994  0.8693300000000002  0.64817  1.0000
  H   H50       1.0  0.5491999999999999  0.00725  0.63113  1.0000
  H   H51       1.0  0.13714  0.4008  0.17375  1.0000
  H   H52       1.0  0.8851500000000001  0.86225  0.4083  1.0000
  H   H53       1.0  0.050869999999999936  0.7938500000000001  0.027060000000000004  1.0000
  H   H54       1.0  0.80723  0.98113  0.4611600000000001  1.0000
  H   H55       1.0  0.8635200000000001  0.20664  0.97276  1.0000
  H   H56       1.0  0.43424  0.55949  0.65155  1.0000
  H   H57       1.0  0.6150899999999999  0.5997  0.13183  1.0000
  H   H58       1.0  0.6050500000000001  0.67987  0.50327  1.0000
  H   H59       1.0  0.7076  0.59928  0.82627  1.0000
  H   H60       1.0  0.7355100000000001  0.53131  0.04268000000000001  1.0000
  H   H61       1.0  0.8181599999999999  0.63212  0.99289  1.0000
  H   H62       1.0  0.26908  0.02705  0.8142700000000002  1.0000
  H   H63       1.0  0.39287  0.82159  0.02318  1.0000
  H   H64       1.0  0.8851099999999998  0.7273700000000001  0.006210000000000001  1.0000
  H   H65       1.0  0.3162899999999999  0.68813  0.8764900000000001  1.0000
  H   H66       1.0  0.69822  0.10344  0.62526  1.0000
  H   H67       1.0  0.6531300000000001  0.03649  0.8000500000000001  1.0000
  H   H68       1.0  0.19091999999999995  0.64827  0.13079  1.0000
  H   H69       1.0  0.69882  0.6953  0.11481000000000001  1.0000
  H   H70       1.0  0.9291899999999998  0.0249  0.20833000000000004  1.0000
  H   H71       1.0  0.5506100000000002  0.7985  0.9643  1.0000
  H   H72       1.0  0.3068399999999999  0.49301000000000006  0.8159800000000003  1.0000
  H   H73       1.0  0.25051999999999996  0.59108  0.8644600000000001  1.0000
  H   H74       1.0  0.75786  0.18015  0.39062  1.0000
  H   H75       1.0  0.6372099999999999  0.52266  0.98506  1.0000
  H   H76       1.0  0.30721  0.63578  0.0035200000000000006  1.0000
  H   H77       1.0  0.06433000000000001  0.61009  0.18027000000000007  1.0000
  H   H78       1.0  0.7169500000000001  0.49722  0.67951  1.0000
  H   H79       1.0  0.6355099999999999  0.43934  0.34543  1.0000
  H   H80       1.0  0.29501000000000005  0.84845  0.36453  1.0000
  H   H81       1.0  0.9987299999999999  0.12649  0.6878300000000002  1.0000
  H   H82       1.0  0.3774999999999999  0.9848700000000001  0.47714  1.0000
  H   H83       1.0  0.10906999999999999  0.27041  0.01407  1.0000
  H   H84       1.0  0.23739999999999994  0.1802  0.97752  1.0000
  H   H85       1.0  0.75565  0.3795  0.89003  1.0000
  H   H86       1.0  0.059389999999999936  0.9966400000000002  0.63658  1.0000
  H   H87       1.0  0.8647199999999999  0.10921  0.37971  1.0000
  H   H88       1.0  0.70798  0.4087200000000001  0.13593  1.0000
  H   H89       1.0  0.8807200000000001  0.31149  0.12373  1.0000
  H   H90       1.0  0.25270999999999993  0.01838  0.53918  1.0000
  H   H91       1.0  0.7874600000000003  0.86863  0.59886  1.0000
  H   H92       1.0  0.3416  0.36421  0.15075  1.0000
  H   H93       1.0  0.10742999999999994  0.97381  0.18512  1.0000
  H   H94       1.0  0.8396799999999998  0.01504  0.52269  1.0000
  H   H95       1.0  0.6033599999999999  0.25039  0.49897  1.0000
  H   H96       1.0  0.3919599999999999  0.72984  0.9856300000000001  1.0000
  H   H97       1.0  0.34253000000000006  0.40159  0.86808  1.0000
  H   H98       1.0  0.20891000000000004  0.53967  0.98177  1.0000
  H   H99       1.0  0.30839000000000005  0.47017  0.95687  1.0000
  H   H100      1.0  0.4439  0.36905  0.00652  1.0000
  H   H101      1.0  0.94633  0.3640300000000001  0.9963200000000001  1.0000
  H   H102      1.0  0.7875599999999999  0.97601  0.82067  1.0000
  H   H103      1.0  0.67586  0.6253  0.89729  1.0000
  H   H104      1.0  0.9274999999999998  0.65573  0.4374  1.0000
  H   H105      1.0  0.9670500000000001  0.35208  0.86893  1.0000
  H   H106      1.0  0.3529200000000001  0.89051  0.62067  1.0000
  H   H107      1.0  0.7334800000000001  0.95728  0.53092  1.0000
  H   H108      1.0  0.2005800000000001  0.18389  0.49265  1.0000
  C   C1        1.0  0.99737  0.93329  0.50358  1.0000
  C   C2        1.0  0.3066500000000001  0.86414  0.50385  1.0000
  C   C3        1.0  0.4684600000000001  0.08545  0.54857  1.0000
  C   C4        1.0  0.8066599999999999  0.90097  0.62746  1.0000
  C   C5        1.0  0.14858  0.01994  0.80676  1.0000
  C   C6        1.0  0.02811000000000002  0.60476  0.92738  1.0000
  C   C7        1.0  0.9725899999999997  0.98062  0.19270000000000004  1.0000
  C   C8        1.0  0.73198  0.9511500000000002  0.71801  1.0000
  C   C9        1.0  0.006600000000000033  0.25677  0.49477  1.0000
  C   C10       1.0  0.06939999999999992  0.35201  0.9719000000000002  1.0000
  C   C11       1.0  0.91038  0.44409  0.8820900000000002  1.0000
  C   C12       1.0  0.4995299999999999  0.50346  0.06662000000000001  1.0000
  C   C13       1.0  0.54165  0.016340000000000004  0.29858  1.0000
  C   C14       1.0  0.7698099999999998  0.60532  0.86195  1.0000
  C   C15       1.0  0.4314799999999999  0.51308  0.65088  1.0000
  C   C16       1.0  0.70955  0.49587  0.82369  1.0000
  C   C17       1.0  0.2935899999999999  0.4511500000000001  0.11942000000000001  1.0000
  C   C18       1.0  0.79451  0.17649999999999996  0.49611000000000005  1.0000
  C   C19       1.0  0.42772  0.5015  0.38427  1.0000
  C   C20       1.0  0.9654099999999998  0.69805  0.97495  1.0000
  C   C21       1.0  0.48028999999999994  0.06791  0.3896100000000001  1.0000
  C   C22       1.0  0.31858  0.28223  0.94983  1.0000
  C   C23       1.0  0.07015  0.6142  0.49964000000000003  1.0000
  C   C24       1.0  0.2953  0.08853000000000001  0.32028  1.0000
  C   C25       1.0  0.44911  0.45148  0.08512  1.0000
  C   C26       1.0  0.38431000000000004  0.32001  0.90922  1.0000
  C   C27       1.0  0.73593  0.50619  0.19560000000000002  1.0000
  C   C28       1.0  0.9341200000000001  0.89346  0.37882  1.0000
  C   C29       1.0  0.05048999999999998  0.9164200000000001  0.55577  1.0000
  C   C30       1.0  0.03167999999999999  0.44472  0.91624  1.0000
  C   C31       1.0  0.2082299999999999  0.67493  0.9017300000000003  1.0000
  C   C32       1.0  0.5617199999999999  0.39569000000000004  0.07255  1.0000
  C   C33       1.0  0.6597499999999998  0.50427  0.0266  1.0000
  C   C34       1.0  0.05881999999999997  0.97369  0.3028600000000001  1.0000
  C   C35       1.0  0.8261899999999998  0.49662  0.8643400000000002  1.0000
  C   C36       1.0  0.24035000000000004  0.39491  0.13809  1.0000
  C   C37       1.0  0.68807  0.37904  0.10475  1.0000
  C   C38       1.0  0.29186  0.3730200000000001  0.90028  1.0000
  C   C39       1.0  0.8587199999999999  0.98277  0.70183  1.0000
  C   C40       1.0  0.31719999999999987  0.50046  0.6121400000000001  1.0000
  C   C41       1.0  0.89229  0.8992100000000002  0.32457  1.0000
  C   C42       1.0  0.7412099999999996  0.13543  0.38861  1.0000
  C   C43       1.0  0.7848799999999999  0.32499  0.09833000000000001  1.0000
  C   C44       1.0  0.44127999999999995  0.70182  0.01775  1.0000
  C   C45       1.0  0.18923999999999994  0.49649000000000004  0.97335  1.0000
  C   C46       1.0  0.7342199999999999  0.23552000000000003  0.49754000000000004  1.0000
  C   C47       1.0  0.88693  0.50348  0.27415  1.0000
  C   C48       1.0  0.8607699999999999  0.54917  0.8807100000000001  1.0000
  C   C49       1.0  0.2100799999999999  0.10634  0.62059  1.0000
  C   C50       1.0  0.6143599999999996  0.68127  0.09052000000000002  1.0000
  C   C51       1.0  0.42838  0.03342  0.64304  1.0000
  C   C52       1.0  0.7586399999999999  0.8038500000000001  0.50631  1.0000
  C   C53       1.0  0.36761999999999995  0.07357  0.6042  1.0000
  C   C54       1.0  0.9280899999999999  0.64384  0.9673300000000001  1.0000
  C   C55       1.0  0.23944999999999997  0.5562  0.11789  1.0000
  C   C56       1.0  0.54201  0.49446  0.84161  1.0000
  C   C57       1.0  0.10440999999999992  0.71403  0.9411200000000001  1.0000
  C   C58       1.0  0.39391999999999977  0.64823  0.02791  1.0000
  C   C59       1.0  0.18322000000000002  0.38808  0.49903  1.0000
  C   C60       1.0  0.43696999999999986  0.49369  0.8021000000000001  1.0000
  C   C61       1.0  0.9637  0.15846  0.49436000000000013  1.0000
  C   C62       1.0  0.8379900000000001  0.2756  0.4972500000000001  1.0000
  C   C63       1.0  0.5931000000000001  0.48624000000000006  0.34616  1.0000
  C   C64       1.0  0.75837  0.28617  0.05865  1.0000
  C   C65       1.0  0.7687899999999996  0.49671  0.7648100000000001  1.0000
  C   C66       1.0  0.03146999999999997  0.50324  0.23482000000000006  1.0000
  C   C67       1.0  0.10124000000000002  0.96673  0.35738  1.0000
  C   C68       1.0  0.04184000000000001  0.92637  0.39591  1.0000
  C   C69       1.0  0.04967999999999995  0.80785  0.98249  1.0000
  C   C70       1.0  0.18410999999999994  0.06115000000000003  0.71348  1.0000
  C   C71       1.0  0.8703099999999999  0.38837000000000005  0.8639500000000001  1.0000
  C   C72       1.0  0.25527999999999984  0.88013  0.45146000000000003  1.0000
  C   C73       1.0  0.4367199999999999  0.06636  0.49673000000000006  1.0000
  C   C74       1.0  0.52661  0.81272  0.00918  1.0000
  C   C75       1.0  0.9221899999999996  0.65345  0.48423  1.0000
  C   C76       1.0  0.9179200000000001  0.97456  0.13579  1.0000
  C   C77       1.0  0.6376  0.30262  0.024540000000000003  1.0000
  C   C78       1.0  0.17044999999999996  0.62098  0.89539  1.0000
  C   C79       1.0  0.49899999999999983  0.49437000000000003  0.7434100000000001  1.0000
  C   C80       1.0  0.13157999999999995  0.38971  0.9308  1.0000
  C   C81       1.0  0.6247799999999997  0.13887  0.60513  1.0000
  C   C82       1.0  0.16123  0.29865  0.9819600000000002  1.0000
  C   C83       1.0  0.39491999999999994  0.55571  0.08384  1.0000
  C   C84       1.0  0.46434999999999993  0.82393  0.50451  1.0000
  C   C85       1.0  0.3378999999999999  0.02648  0.6972600000000001  1.0000
  C   C86       1.0  0.03198999999999998  0.5042  0.17575000000000005  1.0000
  C   C87       1.0  0.06957999999999999  0.19794  0.49366  1.0000
  C   C88       1.0  0.59244  0.86833  0.012310000000000003  1.0000
  C   C89       1.0  0.030829999999999972  0.02642  0.86327  1.0000
  C   C90       1.0  0.8819399999999998  0.50557  0.15689  1.0000
  C   C91       1.0  0.3504199999999999  0.18843  0.9906600000000001  1.0000
  C   C92       1.0  0.9370499999999999  0.9313300000000001  0.61078  1.0000
  C   C93       1.0  0.6131  0.8427300000000001  0.50575  1.0000
  C   C94       1.0  0.11037999999999998  0.86464  0.97428  1.0000
  C   C95       1.0  0.05604000000000003  0.3497  0.51308  1.0000
  C   C96       1.0  0.12571  0.61184  0.13572  1.0000
  C   C97       1.0  0.61003  0.72531  0.50402  1.0000
  C   C98       1.0  0.6654800000000001  0.4963000000000001  0.72469  1.0000
  C   C99       1.0  0.06717999999999992  0.49705000000000005  0.93345  1.0000
  C   C100      1.0  0.94455  0.13555  0.02479  1.0000
  C   C101      1.0  0.58082  0.02685  0.35181  1.0000
  C   C102      1.0  0.5500499999999999  0.71878  0.0499  1.0000
  C   C103      1.0  0.75702  0.74489  0.50569  1.0000
  C   C104      1.0  0.5427199999999999  0.98685  0.86811  1.0000
  C   C105      1.0  0.7382399999999999  0.50542  0.25447  1.0000
  C   C106      1.0  0.9600299999999999  0.97241  0.64853  1.0000
  C   C107      1.0  0.20542  0.8821800000000001  0.5563300000000001  1.0000
  C   C108      1.0  0.9567  0.93887  0.28592  1.0000
  C   C109      1.0  0.8361  0.97333  0.5042  1.0000
  C   C110      1.0  0.6622499999999998  0.9911300000000002  0.8124900000000003  1.0000
  C   C111      1.0  0.4656700000000001  0.76476  0.50374  1.0000
  C   C112      1.0  0.33542999999999995  0.09789  0.37314  1.0000
  C   C113      1.0  0.6460999999999998  0.11746  0.4441300000000001  1.0000
  C   C114      1.0  0.53982  0.35695000000000005  0.03224  1.0000
  C   C115      1.0  0.9829399999999999  0.54896  0.9149900000000001  1.0000
  C   C116      1.0  0.36497999999999997  0.8613800000000001  0.39542000000000005  1.0000
  C   C117      1.0  0.09906999999999999  0.91434  0.45172  1.0000
  C   C118      1.0  0.39942999999999995  0.047990000000000005  0.28241000000000005  1.0000
  C   C119      1.0  0.83465  0.19234000000000004  0.01733  1.0000
  C   C120      1.0  0.52488  0.08306  0.44458  1.0000
  C   C121      1.0  0.59006  0.11983  0.54896  1.0000
  C   C122      1.0  0.47265  0.13231  0.9865400000000001  1.0000
  C   C123      1.0  0.26403000000000004  0.86428  0.61185  1.0000
  C   C124      1.0  0.19028999999999993  0.50361  0.13568  1.0000
  C   C125      1.0  0.56703  0.62805  0.09959000000000001  1.0000
  C   C126      1.0  0.46052999999999994  0.00778  0.18804  1.0000
  C   C127      1.0  0.11920999999999994  0.10064  0.67454  1.0000
  C   C128      1.0  0.39285  0.012870000000000001  0.1321  1.0000
  C   C129      1.0  0.31527  0.02646  0.49610000000000004  1.0000
  C   C130      1.0  0.6773200000000001  0.13578  0.49663000000000007  1.0000
  C   C131      1.0  0.45374999999999993  0.61085  0.06914  1.0000
  C   C132      1.0  0.70566  0.91025  0.68039  1.0000
  O   O1        1.0  0.3493699999999999  0.04274  0.23128000000000004  1.0000
  O   O2        1.0  0.06251000000000008  0.99132  0.90283  1.0000
  O   O3        1.0  0.9041699999999999  0.06539  0.8687400000000002  1.0000
  O   O4        1.0  0.4362299999999999  0.95473  0.86883  1.0000
  O   O5        1.0  0.34191  0.52249  0.56348  1.0000
  O   O6        1.0  0.85794  0.23376  0.056690000000000004  1.0000
  O   O7        1.0  0.4189799999999999  0.23090000000000002  0.95466  1.0000
  O   O8        1.0  0.08675000000000004  0.05975  0.7659  1.0000
  O   O9        1.0  0.03377999999999998  0.13102  0.06329  1.0000
  O   O10       1.0  0.38786  0.49172  0.7068500000000001  1.0000
  O   O11       1.0  0.5627699999999999  0.017170000000000005  0.9085200000000001  1.0000
  O   O12       1.0  0.72774  0.0002600000000000001  0.99992  1.0000
  O   O13       1.0  0.5871999999999998  0.50822  0.2902  1.0000
  O   O14       1.0  0.7019499999999999  0.8688100000000002  0.04303  1.0000
  O   O15       1.0  0.27097  0.00025  0.00015  1.0000
  O   O16       1.0  0.84091  0.9344200000000001  0.12887  1.0000
  O   O17       1.0  0.12007999999999994  0.29341  0.49184000000000005  1.0000
  O   O18       1.0  0.48376999999999987  0.9829000000000001  0.09169  1.0000
  O   O19       1.0  0.9453400000000001  0.09465  0.99132  1.0000
  O   O20       1.0  0.25538999999999995  0.045110000000000004  0.13127  1.0000
  O   O21       1.0  0.4223  0.47996  0.43312  1.0000
  O   O22       1.0  0.42168  0.09236  0.01708  1.0000
  O   O23       1.0  0.15136999999999987  0.76626  0.9431100000000001  1.0000
  O   O24       1.0  0.14172999999999994  0.43650000000000005  0.5223  1.0000
  O   O25       1.0  0.90519  0.70879  0.5084  1.0000
  O   O26       1.0  0.10319999999999994  0.56677  0.47435  1.0000
  O   O27       1.0  0.9500999999999997  0.01114  0.09728  1.0000
  O   O28       1.0  0.03986000000000005  0.90535  0.00846  1.0000
  O   O29       1.0  0.6108199999999999  0.13106  0.9543900000000002  1.0000
  O   O30       1.0  0.23016999999999974  0.8694600000000001  0.9347300000000001  1.0000
  O   O31       1.0  0.6260299999999999  0.9570400000000001  0.7689500000000001  1.0000
  O   O32       1.0  0.9113599999999994  0.9401800000000001  0.23311000000000004  1.0000
  O   O33       1.0  0.53088  0.9087600000000001  0.98268  1.0000
  O   O34       1.0  0.6024799999999997  0.77044  0.04514  1.0000
