data_image0
_chemical_formula_structural       Cu4H112C112N32O16
_chemical_formula_sum              "Cu4 H112 C112 N32 O16"
_cell_length_a       8.95879
_cell_length_b       17.67911
_cell_length_c       21.45653
_cell_angle_alpha    89.88784999999999
_cell_angle_beta     89.95569
_cell_angle_gamma    89.98596000000002

_symmetry_space_group_name_H-M    'P 1'
_symmetry_Int_Tables_number       1

loop_
  _symmetry_equiv_pos_as_xyz
  'x,y,z'

loop_
  _atom_site_type_symbol
  _atom_site_label
  _atom_site_symmetry_multiplicity
  _atom_site_fract_x
  _atom_site_fract_y
  _atom_site_fract_z
  _atom_site_occupancy
  Cu  Cu1       1.0  0.01989  0.89387  0.8895399999999998  1.0000
  Cu  Cu2       1.0  0.97817  0.39279  0.10939  1.0000
  Cu  Cu3       1.0  0.9815899999999999  0.89464  0.38945  1.0000
  Cu  Cu4       1.0  0.02208  0.39257  0.60984  1.0000
  H   H1        1.0  0.70424  0.9451999999999999  0.89224  1.0000
  H   H2        1.0  0.95592  0.84813  0.03409  1.0000
  H   H3        1.0  0.8343  0.93079  0.11361999999999998  1.0000
  H   H4        1.0  0.64069  0.02159  0.08187999999999998  1.0000
  H   H5        1.0  0.70996  0.31285  0.07376999999999999  1.0000
  H   H6        1.0  0.92303  0.5084599999999999  0.015619999999999997  1.0000
  H   H7        1.0  0.76634  0.5165  0.91918  1.0000
  H   H8        1.0  0.57468  0.41609  0.8989399999999999  1.0000
  H   H9        1.0  0.51056  0.0967  0.03869999999999999  1.0000
  H   H10       1.0  0.48162  0.27218999999999993  0.0669  1.0000
  H   H11       1.0  0.25277  0.10564  0.9699  1.0000
  H   H12       1.0  0.37964  0.16028  0.92521  1.0000
  H   H13       1.0  0.23150000000000007  0.23911  0.9971799999999997  1.0000
  H   H14       1.0  0.29953  0.18813999999999995  0.06276  1.0000
  H   H15       1.0  0.32372  0.9159400000000001  0.84466  1.0000
  H   H16       1.0  0.0884  0.72643  0.7908599999999999  1.0000
  H   H17       1.0  0.16959  0.74106  0.6796299999999998  1.0000
  H   H18       1.0  0.34242  0.84768  0.65165  1.0000
  H   H19       1.0  0.77017  0.3096  0.6342199999999999  1.0000
  H   H20       1.0  0.00891  0.46155999999999997  0.74317  1.0000
  H   H21       1.0  0.86218  0.42513  0.83809  1.0000
  H   H22       1.0  0.66765  0.3260699999999999  0.83098  1.0000
  H   H23       1.0  0.4883100000000001  0.9853  0.8212399999999999  1.0000
  H   H24       1.0  0.57421  0.22700999999999996  0.81225  1.0000
  H   H25       1.0  0.66689  0.07534999999999997  0.80053  1.0000
  H   H26       1.0  0.63845  0.06595  0.7184999999999998  1.0000
  H   H27       1.0  0.4018  0.12912999999999997  0.80766  1.0000
  H   H28       1.0  0.40074  0.13418  0.72441  1.0000
  H   H29       1.0  0.29461  0.44458  0.10771999999999998  1.0000
  H   H30       1.0  0.04509  0.34879  0.965  1.0000
  H   H31       1.0  0.16698  0.43241  0.8859999999999999  1.0000
  H   H32       1.0  0.35886  0.5234399999999999  0.91854  1.0000
  H   H33       1.0  0.29096  0.8153  0.9251099999999998  1.0000
  H   H34       1.0  0.07159  0.00887  0.9834599999999999  1.0000
  H   H35       1.0  0.22675  0.01696  0.08031999999999999  1.0000
  H   H36       1.0  0.42048  0.9174799999999999  0.10075999999999999  1.0000
  H   H37       1.0  0.4863  0.5990699999999999  0.96208  1.0000
  H   H38       1.0  0.51572  0.7733199999999998  0.93309  1.0000
  H   H39       1.0  0.74538  0.60765  0.03126  1.0000
  H   H40       1.0  0.61688  0.66181  0.07536  1.0000
  H   H41       1.0  0.76476  0.74111  0.003559999999999999  1.0000
  H   H42       1.0  0.6988  0.68989  0.9379499999999998  1.0000
  H   H43       1.0  0.67195  0.41474  0.15425  1.0000
  H   H44       1.0  0.9077800000000001  0.22464  0.20690999999999998  1.0000
  H   H45       1.0  0.83282  0.2399  0.31878999999999996  1.0000
  H   H46       1.0  0.66232  0.34703999999999996  0.3476699999999999  1.0000
  H   H47       1.0  0.23281999999999997  0.81142  0.36493999999999993  1.0000
  H   H48       1.0  0.9941299999999998  0.9636699999999999  0.25579  1.0000
  H   H49       1.0  0.13618  0.9249699999999998  0.16038  1.0000
  H   H50       1.0  0.32845  0.8249  0.16734  1.0000
  H   H51       1.0  0.51158  0.48556999999999995  0.17892999999999998  1.0000
  H   H52       1.0  0.42566  0.72632  0.18656  1.0000
  H   H53       1.0  0.33424  0.5755  0.20065999999999998  1.0000
  H   H54       1.0  0.36504  0.56576  0.28258  1.0000
  H   H55       1.0  0.60106  0.62913  0.19319  1.0000
  H   H56       1.0  0.59935  0.63567  0.27633  1.0000
  H   H57       1.0  0.30074  0.94474  0.39125  1.0000
  H   H58       1.0  0.04749  0.84846  0.53312  1.0000
  H   H59       1.0  0.17044  0.9304499999999999  0.61276  1.0000
  H   H60       1.0  0.36467  0.020869999999999993  0.5808799999999998  1.0000
  H   H61       1.0  0.29063  0.31308  0.57378  1.0000
  H   H62       1.0  0.07562999999999999  0.50813  0.5153199999999999  1.0000
  H   H63       1.0  0.23186  0.51589  0.41865  1.0000
  H   H64       1.0  0.42414  0.4157  0.39840999999999993  1.0000
  H   H65       1.0  0.48780999999999997  0.09863  0.53763  1.0000
  H   H66       1.0  0.51893  0.27346  0.56677  1.0000
  H   H67       1.0  0.7503  0.10661  0.47068  1.0000
  H   H68       1.0  0.62469  0.16107999999999997  0.42529  1.0000
  H   H69       1.0  0.76913  0.24019999999999997  0.49833999999999995  1.0000
  H   H70       1.0  0.69956  0.18868  0.56334  1.0000
  H   H71       1.0  0.67437  0.9152499999999999  0.34498  1.0000
  H   H72       1.0  0.9111299999999999  0.72616  0.29106  1.0000
  H   H73       1.0  0.83221  0.74148  0.17963999999999997  1.0000
  H   H74       1.0  0.66014  0.84832  0.1516  1.0000
  H   H75       1.0  0.22901  0.3094  0.13396  1.0000
  H   H76       1.0  0.99067  0.46188  0.24276  1.0000
  H   H77       1.0  0.13722  0.4255299999999999  0.33768999999999993  1.0000
  H   H78       1.0  0.3317  0.3264299999999999  0.3305199999999999  1.0000
  H   H79       1.0  0.51335  0.98525  0.32148  1.0000
  H   H80       1.0  0.42598  0.22769999999999999  0.31218  1.0000
  H   H81       1.0  0.33506  0.07531  0.30224  1.0000
  H   H82       1.0  0.35956  0.06627999999999999  0.21994999999999998  1.0000
  H   H83       1.0  0.59858  0.13001  0.30773999999999996  1.0000
  H   H84       1.0  0.59849  0.13431999999999997  0.2244  1.0000
  H   H85       1.0  0.7046  0.44372  0.60791  1.0000
  H   H86       1.0  0.95542  0.34753  0.46559  1.0000
  H   H87       1.0  0.8337  0.43075999999999987  0.38631  1.0000
  H   H88       1.0  0.6421  0.5221  0.41856  1.0000
  H   H89       1.0  0.71377  0.81395  0.42590999999999996  1.0000
  H   H90       1.0  0.92842  0.00904  0.48383  1.0000
  H   H91       1.0  0.77273  0.01645  0.58066  1.0000
  H   H92       1.0  0.58058  0.9163199999999999  0.60116  1.0000
  H   H93       1.0  0.51231  0.59651  0.46123  1.0000
  H   H94       1.0  0.48576  0.7742199999999998  0.43351  1.0000
  H   H95       1.0  0.25452  0.60709  0.5299999999999999  1.0000
  H   H96       1.0  0.38297  0.66047  0.57471  1.0000
  H   H97       1.0  0.23712  0.7408  0.50324  1.0000
  H   H98       1.0  0.30346  0.69024  0.43733  1.0000
  H   H99       1.0  0.3264  0.41568  0.6544899999999999  1.0000
  H   H100      1.0  0.09241  0.22485999999999995  0.70693  1.0000
  H   H101      1.0  0.16761  0.23984999999999998  0.8187299999999997  1.0000
  H   H102      1.0  0.33816  0.34682  0.8476899999999998  1.0000
  H   H103      1.0  0.76599  0.81275  0.8656699999999998  1.0000
  H   H104      1.0  0.00988  0.96207  0.7555899999999999  1.0000
  H   H105      1.0  0.86587  0.9242400000000001  0.66054  1.0000
  H   H106      1.0  0.67056  0.8257  0.6681899999999998  1.0000
  H   H107      1.0  0.4883199999999999  0.48577  0.6788899999999999  1.0000
  H   H108      1.0  0.57523  0.72754  0.6878299999999999  1.0000
  H   H109      1.0  0.66509  0.57581  0.7000299999999999  1.0000
  H   H110      1.0  0.6359  0.56603  0.7820699999999998  1.0000
  H   H111      1.0  0.40051  0.63079  0.6930399999999999  1.0000
  H   H112      1.0  0.4002  0.63593  0.7762599999999998  1.0000
  C   C1        1.0  0.65625  0.9908199999999999  0.9824799999999998  1.0000
  C   C2        1.0  0.73149  0.9426099999999998  0.94159  1.0000
  C   C3        1.0  0.87187  0.88948  0.02066  1.0000
  C   C4        1.0  0.80377  0.93579  0.06473  1.0000
  C   C5        1.0  0.69504  0.98754  0.04637  1.0000
  C   C6        1.0  0.53923  0.04014  0.9555999999999999  1.0000
  C   C7        1.0  0.6258  0.35604  0.98511  1.0000
  C   C8        1.0  0.71607  0.35673  0.03808999999999999  1.0000
  C   C9        1.0  0.8378  0.46660999999999997  0.005509999999999999  1.0000
  C   C10       1.0  0.75078  0.46989999999999993  0.95182  1.0000
  C   C11       1.0  0.64495  0.41421  0.94022  1.0000
  C   C12       1.0  0.51252  0.29675  0.9726099999999999  1.0000
  C   C13       1.0  0.35507  0.14024  0.9723599999999999  1.0000
  C   C14       1.0  0.32770999999999995  0.20728  0.0155  1.0000
  C   C15       1.0  0.34663  0.891  0.7458999999999998  1.0000
  C   C16       1.0  0.29511  0.87787  0.80652  1.0000
  C   C17       1.0  0.16232  0.7723599999999998  0.77684  1.0000
  C   C18       1.0  0.20697  0.7809599999999998  0.7149  1.0000
  C   C19       1.0  0.30144  0.84055  0.69904  1.0000
  C   C20       1.0  0.44033  0.9580199999999999  0.72835  1.0000
  C   C21       1.0  0.70467  0.30804999999999993  0.7306  1.0000
  C   C22       1.0  0.78876  0.33387  0.68012  1.0000
  C   C23       1.0  0.9207599999999999  0.4194499999999999  0.7410799999999998  1.0000
  C   C24       1.0  0.83973  0.39802  0.79356  1.0000
  C   C25       1.0  0.73104  0.34167  0.7894999999999998  1.0000
  C   C26       1.0  0.60146  0.24380999999999997  0.71779  1.0000
  C   C27       1.0  0.58285  0.06803999999999999  0.7639499999999998  1.0000
  C   C28       1.0  0.47175  0.13486  0.76599  1.0000
  C   C29       1.0  0.34309  0.49141  0.01769  1.0000
  C   C30       1.0  0.2678499999999999  0.44264999999999993  0.05832  1.0000
  C   C31       1.0  0.12857  0.39017  0.9787799999999999  1.0000
  C   C32       1.0  0.19683  0.43694  0.93498  1.0000
  C   C33       1.0  0.30474  0.48877999999999994  0.9537899999999998  1.0000
  C   C34       1.0  0.45987  0.54064  0.04471  1.0000
  C   C35       1.0  0.372  0.85799  0.01427  1.0000
  C   C36       1.0  0.28295  0.85881  0.9608999999999999  1.0000
  C   C37       1.0  0.15797  0.96757  0.9935599999999999  1.0000
  C   C38       1.0  0.24395  0.9707899999999999  0.04755999999999999  1.0000
  C   C39       1.0  0.35091  0.91569  0.05927  1.0000
  C   C40       1.0  0.48568999999999996  0.79911  0.027099999999999996  1.0000
  C   C41       1.0  0.6425  0.64178  0.028359999999999993  1.0000
  C   C42       1.0  0.66944  0.7089  0.98505  1.0000
  C   C43       1.0  0.6545  0.39037  0.25335  1.0000
  C   C44       1.0  0.70232  0.37677  0.19233999999999998  1.0000
  C   C45       1.0  0.83525  0.27089  0.2214  1.0000
  C   C46       1.0  0.7940899999999999  0.2798299999999999  0.2836699999999999  1.0000
  C   C47       1.0  0.70125  0.33983  0.30002999999999996  1.0000
  C   C48       1.0  0.56312  0.45791999999999994  0.27148  1.0000
  C   C49       1.0  0.29547  0.80857  0.26813999999999993  1.0000
  C   C50       1.0  0.21327  0.8351699999999997  0.31886  1.0000
  C   C51       1.0  0.08085  0.92079  0.25787  1.0000
  C   C52       1.0  0.15923  0.89822  0.20508  1.0000
  C   C53       1.0  0.26703  0.84142  0.20904  1.0000
  C   C54       1.0  0.39866  0.74425  0.28095  1.0000
  C   C55       1.0  0.4193  0.56817  0.23683999999999997  1.0000
  C   C56       1.0  0.52965  0.63531  0.23436  1.0000
  C   C57       1.0  0.34819  0.9905799999999999  0.48155999999999993  1.0000
  C   C58       1.0  0.27309  0.9424899999999999  0.44061  1.0000
  C   C59       1.0  0.13221  0.88952  0.5197499999999999  1.0000
  C   C60       1.0  0.20078  0.9354599999999998  0.56385  1.0000
  C   C61       1.0  0.30973  0.9870699999999999  0.54545  1.0000
  C   C62       1.0  0.46502  0.040209999999999996  0.45508  1.0000
  C   C63       1.0  0.37387  0.35603  0.4848499999999999  1.0000
  C   C64       1.0  0.2839  0.35683  0.53801  1.0000
  C   C65       1.0  0.16108  0.46631999999999996  0.50526  1.0000
  C   C66       1.0  0.24768  0.46940999999999994  0.45137  1.0000
  C   C67       1.0  0.35396  0.41391999999999995  0.43978  1.0000
  C   C68       1.0  0.48752000000000006  0.29691  0.4724  1.0000
  C   C69       1.0  0.64762  0.141  0.47256  1.0000
  C   C70       1.0  0.67271  0.20797  0.51599  1.0000
  C   C71       1.0  0.65366  0.89105  0.24601  1.0000
  C   C72       1.0  0.70392  0.8774799999999999  0.30674  1.0000
  C   C73       1.0  0.83752  0.77219  0.27698999999999996  1.0000
  C   C74       1.0  0.7940899999999999  0.78117  0.21495999999999998  1.0000
  C   C75       1.0  0.7000299999999999  0.84093  0.19910999999999998  1.0000
  C   C76       1.0  0.55986  0.95815  0.22849999999999998  1.0000
  C   C77       1.0  0.29467  0.30804999999999993  0.23031999999999997  1.0000
  C   C78       1.0  0.21055000000000001  0.33373  0.17983999999999997  1.0000
  C   C79       1.0  0.07865  0.41965  0.24069999999999997  1.0000
  C   C80       1.0  0.1595  0.39827  0.29318999999999995  1.0000
  C   C81       1.0  0.26807  0.34185  0.28911999999999993  1.0000
  C   C82       1.0  0.39842  0.24392  0.21765999999999996  1.0000
  C   C83       1.0  0.41736  0.06815  0.2649  1.0000
  C   C84       1.0  0.52812  0.13513  0.2662  1.0000
  C   C85       1.0  0.65684  0.49023999999999995  0.51774  1.0000
  C   C86       1.0  0.73182  0.44164  0.55853  1.0000
  C   C87       1.0  0.8717  0.3889  0.47920999999999997  1.0000
  C   C88       1.0  0.8036  0.43545999999999996  0.43526  1.0000
  C   C89       1.0  0.69558  0.48736  0.45388  1.0000
  C   C90       1.0  0.54046  0.53991  0.54451  1.0000
  C   C91       1.0  0.63109  0.85663  0.51487  1.0000
  C   C92       1.0  0.7205  0.8577  0.46154  1.0000
  C   C93       1.0  0.84295  0.9672499999999999  0.494  1.0000
  C   C94       1.0  0.75666  0.9701299999999999  0.5479799999999999  1.0000
  C   C95       1.0  0.65058  0.91457  0.55974  1.0000
  C   C96       1.0  0.51861  0.7971  0.52769  1.0000
  C   C97       1.0  0.35787  0.64091  0.52756  1.0000
  C   C98       1.0  0.33243  0.70856  0.48464999999999997  1.0000
  C   C99       1.0  0.34537  0.39062999999999987  0.75341  1.0000
  C   C100      1.0  0.29677  0.37738  0.69248  1.0000
  C   C101      1.0  0.16459  0.27119  0.72144  1.0000
  C   C102      1.0  0.2062  0.27991999999999995  0.7836699999999999  1.0000
  C   C103      1.0  0.29901  0.33987  0.80006  1.0000
  C   C104      1.0  0.43677  0.45819999999999994  0.77148  1.0000
  C   C105      1.0  0.70439  0.8094899999999999  0.76889  1.0000
  C   C106      1.0  0.78649  0.83615  0.81952  1.0000
  C   C107      1.0  0.9215399999999999  0.9200999999999999  0.75794  1.0000
  C   C108      1.0  0.84212  0.89794  0.7053499999999999  1.0000
  C   C109      1.0  0.73286  0.84196  0.70969  1.0000
  C   C110      1.0  0.60144  0.74529  0.7821  1.0000
  C   C111      1.0  0.5807  0.5685599999999997  0.7365599999999999  1.0000
  C   C112      1.0  0.47097999999999995  0.63604  0.73457  1.0000
  N   N1        1.0  0.83828  0.89305  0.9585399999999998  1.0000
  N   N2        1.0  0.82074  0.41023  0.04896999999999999  1.0000
  N   N3        1.0  0.47933999999999993  0.09397999999999998  0.99329  1.0000
  N   N4        1.0  0.45536000000000004  0.25774  0.02226  1.0000
  N   N5        1.0  0.20496  0.8199499999999998  0.82258  1.0000
  N   N6        1.0  0.8955800000000002  0.38744  0.6840099999999999  1.0000
  N   N7        1.0  0.50748  0.99663  0.77512  1.0000
  N   N8        1.0  0.54949  0.20671  0.76918  1.0000
  N   N9        1.0  0.16143  0.39315  0.040959999999999996  1.0000
  N   N10       1.0  0.17728  0.9118099999999999  0.9498899999999998  1.0000
  N   N11       1.0  0.51941  0.59495  0.007169999999999998  1.0000
  N   N12       1.0  0.54109  0.75884  0.97785  1.0000
  N   N13       1.0  0.79078  0.31842  0.17581  1.0000
  N   N14       1.0  0.10703  0.8891  0.31507  1.0000
  N   N15       1.0  0.4943199999999999  0.49681  0.22517999999999994  1.0000
  N   N16       1.0  0.45094  0.70686  0.22989  1.0000
  N   N17       1.0  0.16584  0.89316  0.45760999999999996  1.0000
  N   N18       1.0  0.1788  0.41015999999999997  0.54888  1.0000
  N   N19       1.0  0.52316  0.09441  0.49282  1.0000
  N   N20       1.0  0.5442  0.258  0.52225  1.0000
  N   N21       1.0  0.79391  0.81952  0.32276  1.0000
  N   N22       1.0  0.10375  0.38736  0.18371  1.0000
  N   N23       1.0  0.4930800000000001  0.9966699999999998  0.2754499999999999  1.0000
  N   N24       1.0  0.44953000000000004  0.2068  0.26919  1.0000
  N   N25       1.0  0.83839  0.39207  0.54136  1.0000
  N   N26       1.0  0.82501  0.9113  0.4503899999999999  1.0000
  N   N27       1.0  0.48091999999999996  0.59385  0.50665  1.0000
  N   N28       1.0  0.4613  0.75831  0.47806  1.0000
  N   N29       1.0  0.20838  0.3190599999999999  0.67593  1.0000
  N   N30       1.0  0.8940000000000001  0.88932  0.8153599999999998  1.0000
  N   N31       1.0  0.50508  0.49729  0.7250899999999999  1.0000
  N   N32       1.0  0.5505  0.70745  0.73105  1.0000
  O   O1        1.0  0.49598  0.0338  0.9000999999999998  1.0000
  O   O2        1.0  0.47009999999999996  0.28404  0.91796  1.0000
  O   O3        1.0  0.45441  0.97706  0.6725499999999999  1.0000
  O   O4        1.0  0.56961  0.22339999999999996  0.66347  1.0000
  O   O5        1.0  0.50293  0.53382  0.10011999999999999  1.0000
  O   O6        1.0  0.52986  0.78745  0.08175  1.0000
  O   O7        1.0  0.55273  0.47707  0.32731999999999994  1.0000
  O   O8        1.0  0.43097  0.72375  0.33523  1.0000
  O   O9        1.0  0.5097  0.03366999999999999  0.3997999999999999  1.0000
  O   O10       1.0  0.53029  0.28408  0.41779  1.0000
  O   O11       1.0  0.54553  0.97713  0.17276999999999998  1.0000
  O   O12       1.0  0.43107  0.22354999999999994  0.16341999999999998  1.0000
  O   O13       1.0  0.4982  0.53389  0.60017  1.0000
  O   O14       1.0  0.47725  0.7839099999999998  0.5825599999999999  1.0000
  O   O15       1.0  0.44733  0.47719  0.8273  1.0000
  O   O16       1.0  0.56913  0.72574  0.83669  1.0000
