data_image0
_chemical_formula_structural       Cd8H88C120N8O32
_chemical_formula_sum              "Cd8 H88 C120 N8 O32"
_cell_length_a       18.32493
_cell_length_b       18.38624
_cell_length_c       18.388989999999996
_cell_angle_alpha    94.9561
_cell_angle_beta     117.30974999999998
_cell_angle_gamma    117.29070999999999

_space_group_name_H-M_alt    "P 1"
_space_group_IT_number       1

loop_
  _space_group_symop_operation_xyz
  'x, y, z'

loop_
  _atom_site_type_symbol
  _atom_site_label
  _atom_site_symmetry_multiplicity
  _atom_site_fract_x
  _atom_site_fract_y
  _atom_site_fract_z
  _atom_site_occupancy
  Cd  Cd1       1.0  0.82897  0.15786000000000003  0.67468  1.0000
  Cd  Cd2       1.0  0.67117  0.8457900000000002  0.82909  1.0000
  Cd  Cd3       1.0  0.48297  0.82918  0.1571  1.0000
  Cd  Cd4       1.0  0.01708999999999995  0.67432  0.8462  1.0000
  Cd  Cd5       1.0  0.1710299999999999  0.8421399999999998  0.32532  1.0000
  Cd  Cd6       1.0  0.32884  0.15421  0.17091  1.0000
  Cd  Cd7       1.0  0.51703  0.17083000000000007  0.8429  1.0000
  Cd  Cd8       1.0  0.9829199999999998  0.32569  0.15379999999999994  1.0000
  H   H1        1.0  0.63483  0.09241999999999999  0.63981  1.0000
  H   H2        1.0  0.5908400000000001  0.11068000000000006  0.70274  1.0000
  H   H3        1.0  0.69677  0.10573  0.75277  1.0000
  H   H4        1.0  0.98411  0.36139  0.74387  1.0000
  H   H5        1.0  0.95286  0.43333  0.7009  1.0000
  H   H6        1.0  0.8839399999999998  0.32059999999999994  0.6319099999999999  1.0000
  H   H7        1.0  0.8928299999999997  0.45268  0.97893  1.0000
  H   H8        1.0  0.89004  0.5573  0.06936  1.0000
  H   H9        1.0  0.77841  0.6068  0.99744  1.0000
  H   H10       1.0  0.67047  0.55196  0.83359  1.0000
  H   H11       1.0  0.67321  0.44663  0.74177  1.0000
  H   H12       1.0  0.86499  0.0047700000000000095  0.95762  1.0000
  H   H13       1.0  0.90921  0.11176999999999997  0.01994  1.0000
  H   H14       1.0  0.80305  0.05575999999999997  0.90908  1.0000
  H   H15       1.0  0.51572  0.7597  0.87725  1.0000
  H   H16       1.0  0.5469599999999998  0.74793  0.9804599999999998  1.0000
  H   H17       1.0  0.61582  0.74776  0.93663  1.0000
  H   H18       1.0  0.60715  0.0858  0.05989  1.0000
  H   H19       1.0  0.61006  0.17924  0.16719999999999996  1.0000
  H   H20       1.0  0.72166  0.21909  0.32836  1.0000
  H   H21       1.0  0.82967  0.16328999999999994  0.38164  1.0000
  H   H22       1.0  0.8269  0.06859000000000001  0.27367  1.0000
  H   H23       1.0  0.45299999999999985  0.9575599999999997  0.09284  1.0000
  H   H24       1.0  0.40794  0.019520000000000006  0.11085  1.0000
  H   H25       1.0  0.35209999999999997  0.90862  0.10472999999999998  1.0000
  H   H26       1.0  0.6168699999999998  0.8777999999999998  0.36086  1.0000
  H   H27       1.0  0.7330799999999998  0.98098  0.4334999999999999  1.0000
  H   H28       1.0  0.68904  0.93663  0.32091  1.0000
  H   H29       1.0  0.47422000000000003  0.05983999999999993  0.4530099999999999  1.0000
  H   H30       1.0  0.48803999999999975  0.1672199999999999  0.5572299999999998  1.0000
  H   H31       1.0  0.60935  0.3284799999999999  0.60676  1.0000
  H   H32       1.0  0.7185099999999999  0.38174999999999987  0.55218  1.0000
  H   H33       1.0  0.70492  0.27367999999999987  0.44672  1.0000
  H   H34       1.0  0.04682000000000001  0.64  0.00433  1.0000
  H   H35       1.0  0.09188  0.70302  0.11136  1.0000
  H   H36       1.0  0.14792999999999998  0.75268  0.05644  1.0000
  H   H37       1.0  0.8829499999999999  0.7440899999999998  0.76095  1.0000
  H   H38       1.0  0.76675  0.7006  0.74779  1.0000
  H   H39       1.0  0.81052  0.63179  0.74725  1.0000
  H   H40       1.0  0.025700000000000077  0.9789400000000001  0.08559  1.0000
  H   H41       1.0  0.012039999999999999  0.06936  0.17933  1.0000
  H   H42       1.0  0.8906800000000001  0.99742  0.21918  1.0000
  H   H43       1.0  0.7816299999999998  0.8336399999999998  0.1633  1.0000
  H   H44       1.0  0.7951  0.74182  0.06864  1.0000
  H   H45       1.0  0.36518000000000006  0.9075900000000001  0.3602  1.0000
  H   H46       1.0  0.40917  0.88933  0.29726  1.0000
  H   H47       1.0  0.3032400000000001  0.89428  0.24723  1.0000
  H   H48       1.0  0.015900000000000004  0.63861  0.25613  1.0000
  H   H49       1.0  0.047139999999999925  0.5666699999999998  0.2991  1.0000
  H   H50       1.0  0.11605999999999989  0.6794099999999997  0.36809  1.0000
  H   H51       1.0  0.10716999999999999  0.54732  0.021079999999999995  1.0000
  H   H52       1.0  0.10996999999999987  0.44270999999999994  0.9306399999999998  1.0000
  H   H53       1.0  0.2215999999999999  0.3932099999999999  0.00257  1.0000
  H   H54       1.0  0.32954  0.4480499999999999  0.16641  1.0000
  H   H55       1.0  0.32679999999999987  0.5533699999999998  0.25823  1.0000
  H   H56       1.0  0.13501999999999997  0.9952399999999999  0.04238  1.0000
  H   H57       1.0  0.09080000000000012  0.8882300000000001  0.98006  1.0000
  H   H58       1.0  0.1969599999999998  0.9442499999999996  0.09093  1.0000
  H   H59       1.0  0.48428  0.24030999999999994  0.12276  1.0000
  H   H60       1.0  0.45305  0.25208  0.01955  1.0000
  H   H61       1.0  0.38418  0.25224  0.06337  1.0000
  H   H62       1.0  0.39284999999999964  0.9142099999999996  0.9401099999999998  1.0000
  H   H63       1.0  0.38994999999999996  0.8207599999999999  0.8328  1.0000
  H   H64       1.0  0.27835  0.78091  0.67164  1.0000
  H   H65       1.0  0.17033  0.83671  0.61836  1.0000
  H   H66       1.0  0.17310000000000003  0.9314200000000001  0.72634  1.0000
  H   H67       1.0  0.5470099999999999  0.042449999999999974  0.90716  1.0000
  H   H68       1.0  0.59206  0.98048  0.8891499999999998  1.0000
  H   H69       1.0  0.6479  0.09138999999999997  0.89527  1.0000
  H   H70       1.0  0.38314  0.12221000000000003  0.63915  1.0000
  H   H71       1.0  0.26692  0.019030000000000012  0.5665  1.0000
  H   H72       1.0  0.31096  0.06338  0.6791  1.0000
  H   H73       1.0  0.52579  0.9401699999999997  0.54699  1.0000
  H   H74       1.0  0.51196  0.83278  0.44278  1.0000
  H   H75       1.0  0.39064999999999994  0.6715299999999998  0.39324  1.0000
  H   H76       1.0  0.28150000000000003  0.61825  0.44783  1.0000
  H   H77       1.0  0.29508999999999985  0.7263199999999999  0.5532799999999998  1.0000
  H   H78       1.0  0.95318  0.36  0.99567  1.0000
  H   H79       1.0  0.9081299999999999  0.29698  0.8886499999999998  1.0000
  H   H80       1.0  0.8520699999999997  0.24732999999999988  0.9435699999999998  1.0000
  H   H81       1.0  0.11705  0.25592  0.23905  1.0000
  H   H82       1.0  0.23326  0.29941  0.25221  1.0000
  H   H83       1.0  0.18948  0.36822  0.25275  1.0000
  H   H84       1.0  0.97431  0.021069999999999926  0.9144199999999998  1.0000
  H   H85       1.0  0.98796  0.93065  0.82067  1.0000
  H   H86       1.0  0.10932000000000001  0.0025800000000000176  0.78082  1.0000
  H   H87       1.0  0.21837  0.16637  0.83671  1.0000
  H   H88       1.0  0.20491  0.25818  0.93136  1.0000
  C   C1        1.0  0.91613  0.50027  0.79333  1.0000
  C   C2        1.0  0.64906  0.25475000000000003  0.8046  1.0000
  C   C3        1.0  0.71972  0.28724  0.77671  1.0000
  C   C4        1.0  0.72368  0.22597999999999996  0.73026  1.0000
  C   C5        1.0  0.65793  0.12855000000000003  0.70525  1.0000
  C   C6        1.0  0.85141  0.34087  0.72713  1.0000
  C   C7        1.0  0.9219699999999998  0.3656899999999999  0.6992699999999997  1.0000
  C   C8        1.0  0.84883  0.40402999999999994  0.7722199999999998  1.0000
  C   C9        1.0  0.7838899999999999  0.3778699999999998  0.7997999999999998  1.0000
  C   C10       1.0  0.78368  0.4431499999999999  0.85383  1.0000
  C   C11       1.0  0.8444  0.47438  0.9464  1.0000
  C   C12       1.0  0.8422000000000001  0.53307  0.99769  1.0000
  C   C13       1.0  0.7794699999999999  0.5607599999999998  0.95718  1.0000
  C   C14       1.0  0.7189299999999996  0.5299699999999999  0.8650899999999999  1.0000
  C   C15       1.0  0.72092  0.47132  0.81345  1.0000
  C   C16       1.0  0.5840199999999999  0.8769799999999998  0.08422  1.0000
  C   C17       1.0  0.851  0.15548  0.10599  1.0000
  C   C18       1.0  0.78037  0.056889999999999996  0.06772  1.0000
  C   C19       1.0  0.77639  0.00642  0.00251  1.0000
  C   C20       1.0  0.84201  0.047169999999999934  0.97076  1.0000
  C   C21       1.0  0.64857  0.87555  0.98954  1.0000
  C   C22       1.0  0.57783  0.77711  0.94368  1.0000
  C   C23       1.0  0.6512199999999999  0.9232699999999998  0.05527  1.0000
  C   C24       1.0  0.71613  0.015819999999999987  0.09406  1.0000
  C   C25       1.0  0.71638  0.07004  0.1596  1.0000
  C   C26       1.0  0.6556  0.10181  0.13005  1.0000
  C   C27       1.0  0.65784  0.15536999999999995  0.19089  1.0000
  C   C28       1.0  0.7206299999999999  0.17773999999999998  0.28132999999999997  1.0000
  C   C29       1.0  0.78115  0.14618  0.31117  1.0000
  C   C30       1.0  0.77913  0.09247999999999998  0.25055  1.0000
  C   C31       1.0  0.70708  0.08446999999999998  0.50048  1.0000
  C   C32       1.0  0.4506899999999999  0.10587  0.25471  1.0000
  C   C33       1.0  0.5104  0.06721999999999999  0.28728  1.0000
  C   C34       1.0  0.4955899999999999  0.002039999999999981  0.22596999999999995  1.0000
  C   C35       1.0  0.42314999999999986  0.9703899999999998  0.12848  1.0000
  C   C36       1.0  0.61426  0.9899699999999999  0.34093  1.0000
  C   C37       1.0  0.66667  0.9441  0.36572  1.0000
  C   C38       1.0  0.63216  0.05556999999999998  0.40413  1.0000
  C   C39       1.0  0.57812  0.09398999999999996  0.3779599999999999  1.0000
  C   C40       1.0  0.58951  0.15959  0.44328  1.0000
  C   C41       1.0  0.52829  0.13003  0.47457  1.0000
  C   C42       1.0  0.53559  0.19093  0.53314  1.0000
  C   C43       1.0  0.60366  0.2813999999999999  0.56079  1.0000
  C   C44       1.0  0.66504  0.31125  0.5301  1.0000
  C   C45       1.0  0.658  0.25059  0.47144  1.0000
  C   C46       1.0  0.7924  0.79302  0.87694  1.0000
  C   C47       1.0  0.049179999999999995  0.80437  0.15507  1.0000
  C   C48       1.0  0.98956  0.77712  0.05667  1.0000
  C   C49       1.0  0.004400000000000026  0.73066  0.00631  1.0000
  C   C50       1.0  0.07679  0.70555  0.04707999999999998  1.0000
  C   C51       1.0  0.8854799999999998  0.7266299999999998  0.87549  1.0000
  C   C52       1.0  0.83301  0.6990099999999999  0.77722  1.0000
  C   C53       1.0  0.86742  0.7717499999999999  0.9231499999999998  1.0000
  C   C54       1.0  0.9216  0.7998099999999998  0.01564  1.0000
  C   C55       1.0  0.9103399999999999  0.85383  0.0699  1.0000
  C   C56       1.0  0.9716  0.94639  0.10165  1.0000
  C   C57       1.0  0.9644599999999999  0.9976899999999999  0.15539  1.0000
  C   C58       1.0  0.89644  0.9572  0.17783  1.0000
  C   C59       1.0  0.83502  0.86511  0.1462  1.0000
  C   C60       1.0  0.8419199999999999  0.81348  0.09245  1.0000
  C   C61       1.0  0.08386999999999994  0.49973999999999996  0.20667  1.0000
  C   C62       1.0  0.35093999999999986  0.74526  0.19539999999999996  1.0000
  C   C63       1.0  0.2802899999999999  0.7127699999999998  0.22329  1.0000
  C   C64       1.0  0.2763199999999999  0.7740299999999998  0.26974  1.0000
  C   C65       1.0  0.34207000000000004  0.87145  0.29475  1.0000
  C   C66       1.0  0.1486  0.65914  0.27287  1.0000
  C   C67       1.0  0.07803999999999987  0.6343199999999998  0.30073  1.0000
  C   C68       1.0  0.15117999999999995  0.59598  0.22777999999999995  1.0000
  C   C69       1.0  0.2161099999999999  0.62214  0.20019999999999993  1.0000
  C   C70       1.0  0.21633000000000002  0.5568500000000001  0.14617  1.0000
  C   C71       1.0  0.15561  0.52562  0.05361  1.0000
  C   C72       1.0  0.1578  0.46693  0.00231  1.0000
  C   C73       1.0  0.22053  0.43924  0.04282  1.0000
  C   C74       1.0  0.28108  0.47003  0.13492  1.0000
  C   C75       1.0  0.27909  0.52868  0.18654999999999994  1.0000
  C   C76       1.0  0.41597999999999996  0.12302999999999993  0.91578  1.0000
  C   C77       1.0  0.1490099999999999  0.8445299999999998  0.89401  1.0000
  C   C78       1.0  0.21962999999999996  0.94312  0.9322799999999999  1.0000
  C   C79       1.0  0.2236199999999998  0.9935799999999997  0.9974899999999999  1.0000
  C   C80       1.0  0.15798999999999988  0.9528399999999998  0.02924  1.0000
  C   C81       1.0  0.35144  0.12445  0.01046  1.0000
  C   C82       1.0  0.42217  0.22289  0.05632  1.0000
  C   C83       1.0  0.34878999999999977  0.0767299999999999  0.9447299999999997  1.0000
  C   C84       1.0  0.28387999999999974  0.98419  0.9059399999999997  1.0000
  C   C85       1.0  0.2836299999999998  0.9299599999999999  0.8403999999999998  1.0000
  C   C86       1.0  0.3443999999999999  0.89819  0.8699599999999997  1.0000
  C   C87       1.0  0.3421599999999998  0.8446299999999998  0.8091099999999998  1.0000
  C   C88       1.0  0.2793800000000001  0.8222699999999998  0.71867  1.0000
  C   C89       1.0  0.2188499999999999  0.85383  0.68883  1.0000
  C   C90       1.0  0.22087  0.90752  0.74945  1.0000
  C   C91       1.0  0.29292  0.91554  0.49952  1.0000
  C   C92       1.0  0.54931  0.8941399999999999  0.7452999999999997  1.0000
  C   C93       1.0  0.48959999999999987  0.9327899999999998  0.71272  1.0000
  C   C94       1.0  0.5044099999999998  0.99796  0.7740299999999998  1.0000
  C   C95       1.0  0.5768599999999999  0.029609999999999907  0.8715199999999997  1.0000
  C   C96       1.0  0.38573999999999997  0.010039999999999983  0.6590799999999999  1.0000
  C   C97       1.0  0.33333  0.05591000000000002  0.63429  1.0000
  C   C98       1.0  0.3678399999999999  0.9444399999999997  0.59587  1.0000
  C   C99       1.0  0.42188  0.90602  0.62204  1.0000
  C   C100      1.0  0.41049  0.84041  0.55672  1.0000
  C   C101      1.0  0.47172000000000003  0.86998  0.52543  1.0000
  C   C102      1.0  0.46442000000000005  0.80908  0.46686  1.0000
  C   C103      1.0  0.39635000000000004  0.71861  0.43921  1.0000
  C   C104      1.0  0.33497  0.68876  0.4699  1.0000
  C   C105      1.0  0.34200000000000014  0.74942  0.52856  1.0000
  C   C106      1.0  0.20761  0.20699  0.12305999999999999  1.0000
  C   C107      1.0  0.9508299999999998  0.1956399999999999  0.8449299999999997  1.0000
  C   C108      1.0  0.01044999999999982  0.22287999999999988  0.9433299999999998  1.0000
  C   C109      1.0  0.9956  0.26935  0.99369  1.0000
  C   C110      1.0  0.92322  0.29446  0.95292  1.0000
  C   C111      1.0  0.11452999999999997  0.27337  0.12451  1.0000
  C   C112      1.0  0.1669999999999999  0.30098999999999987  0.22277999999999995  1.0000
  C   C113      1.0  0.13259  0.22825  0.07685  1.0000
  C   C114      1.0  0.07841000000000002  0.2002  0.98436  1.0000
  C   C115      1.0  0.08966000000000003  0.14618  0.9301  1.0000
  C   C116      1.0  0.028410000000000005  0.05361999999999997  0.89835  1.0000
  C   C117      1.0  0.03554999999999996  0.002309999999999979  0.84462  1.0000
  C   C118      1.0  0.10356  0.04280999999999994  0.82217  1.0000
  C   C119      1.0  0.16497999999999996  0.13489999999999994  0.8538  1.0000
  C   C120      1.0  0.15807999999999994  0.18652999999999995  0.90755  1.0000
  N   N1        1.0  0.7903399999999998  0.2540699999999999  0.7084099999999998  1.0000
  N   N2        1.0  0.70962  0.91789  0.96384  1.0000
  N   N3        1.0  0.54591  0.96389  0.25406  1.0000
  N   N4        1.0  0.95397  0.70831  0.91781  1.0000
  N   N5        1.0  0.20965999999999974  0.7459399999999996  0.29159  1.0000
  N   N6        1.0  0.29038  0.08211999999999997  0.036159999999999984  1.0000
  N   N7        1.0  0.4541  0.03612  0.74594  1.0000
  N   N8        1.0  0.04602999999999998  0.2916999999999999  0.08218999999999997  1.0000
  O   O1        1.0  0.0029099999999999504  0.5446899999999999  0.86455  1.0000
  O   O2        1.0  0.88252  0.53444  0.74038  1.0000
  O   O3        1.0  0.67591  0.23688000000000003  0.87411  1.0000
  O   O4        1.0  0.5648099999999999  0.24328999999999984  0.7568999999999998  1.0000
  O   O5        1.0  0.49747  0.86189  0.04219  1.0000
  O   O6        1.0  0.61745  0.8571899999999998  0.15169  1.0000
  O   O7        1.0  0.82411  0.19814999999999994  0.06129  1.0000
  O   O8        1.0  0.9352899999999998  0.19209999999999994  0.17874  1.0000
  O   O9        1.0  0.67936  0.042239999999999986  0.54402  1.0000
  O   O10       1.0  0.79512  0.15226  0.53555  1.0000
  O   O11       1.0  0.3625  0.06156  0.23604  1.0000
  O   O12       1.0  0.48806  0.17850999999999997  0.24397999999999997  1.0000
  O   O13       1.0  0.8201399999999998  0.8642199999999998  0.8622899999999999  1.0000
  O   O14       1.0  0.7043799999999999  0.7401299999999998  0.85675  1.0000
  O   O15       1.0  0.13736999999999996  0.874  0.1993  1.0000
  O   O16       1.0  0.011430000000000018  0.756  0.18994  1.0000
  O   O17       1.0  0.9971  0.45532  0.13545  1.0000
  O   O18       1.0  0.11749000000000005  0.46557  0.25962  1.0000
  O   O19       1.0  0.3240899999999999  0.7631299999999998  0.12589  1.0000
  O   O20       1.0  0.43519  0.75672  0.2431  1.0000
  O   O21       1.0  0.5025299999999998  0.13811999999999988  0.9578099999999998  1.0000
  O   O22       1.0  0.38256  0.14282  0.84831  1.0000
  O   O23       1.0  0.1758999999999997  0.8018499999999996  0.9387099999999998  1.0000
  O   O24       1.0  0.06472  0.80791  0.82126  1.0000
  O   O25       1.0  0.32064000000000004  0.9577699999999999  0.45598  1.0000
  O   O26       1.0  0.20489000000000004  0.8477400000000002  0.46445  1.0000
  O   O27       1.0  0.63751  0.93845  0.76396  1.0000
  O   O28       1.0  0.51194  0.8215  0.75603  1.0000
  O   O29       1.0  0.17986  0.13579  0.13771  1.0000
  O   O30       1.0  0.29563  0.25988  0.14325  1.0000
  O   O31       1.0  0.86263  0.12601000000000007  0.8007  1.0000
  O   O32       1.0  0.9885699999999998  0.24401  0.81006  1.0000
