data_image0
_chemical_formula_structural       Cu12H136C160N24O32
_chemical_formula_sum              "Cu12 H136 C160 N24 O32"
_cell_length_a       8.98609
_cell_length_b       22.61839
_cell_length_c       23.306160000000002
_cell_angle_alpha    90.0
_cell_angle_beta     89.95948
_cell_angle_gamma    89.99955

_space_group_name_H-M_alt    "P 1"
_space_group_IT_number       1

loop_
  _space_group_symop_operation_xyz
  'x, y, z'

loop_
  _atom_site_type_symbol
  _atom_site_label
  _atom_site_symmetry_multiplicity
  _atom_site_fract_x
  _atom_site_fract_y
  _atom_site_fract_z
  _atom_site_occupancy
  Cu  Cu1       1.0  0.39992  0.03403  0.53027  1.0000
  Cu  Cu2       1.0  0.09989  0.9660099999999998  0.03011  1.0000
  Cu  Cu3       1.0  0.60008  0.53403  0.46973  1.0000
  Cu  Cu4       1.0  0.9001  0.4660099999999999  0.96989  1.0000
  Cu  Cu5       1.0  0.60007  0.96596  0.46973  1.0000
  Cu  Cu6       1.0  0.90011  0.03398  0.96989  1.0000
  Cu  Cu7       1.0  0.39992  0.46597  0.53027  1.0000
  Cu  Cu8       1.0  0.09989  0.53398  0.03011  1.0000
  Cu  Cu9       1.0  0.2581  0.25  0.52703  1.0000
  Cu  Cu10      1.0  0.24329  0.7499899999999999  0.02664  1.0000
  Cu  Cu11      1.0  0.7419000000000002  0.75001  0.47297  1.0000
  Cu  Cu12      1.0  0.7567000000000003  0.25  0.9733599999999999  1.0000
  H   H1        1.0  0.56074  0.9657599999999997  0.61595  1.0000
  H   H2        1.0  0.66625  0.9852699999999999  0.71322  1.0000
  H   H3        1.0  0.54196  0.1686  0.6914099999999999  1.0000
  H   H4        1.0  0.44464  0.14227999999999996  0.59585  1.0000
  H   H5        1.0  0.69688  0.13788  0.77648  1.0000
  H   H6        1.0  0.76525  0.06488  0.78146  1.0000
  H   H7        1.0  0.44258  0.10251999999999997  0.8068099999999999  1.0000
  H   H8        1.0  0.50611  0.029209999999999996  0.80702  1.0000
  H   H9        1.0  0.61042  0.1282  0.8883199999999999  1.0000
  H   H10       1.0  0.69676  0.05839  0.88432  1.0000
  H   H11       1.0  0.19909  0.09009  0.011690000000000002  1.0000
  H   H12       1.0  0.38814  0.13855  0.94945  1.0000
  H   H13       1.0  0.53303  0.9645  0.8982  1.0000
  H   H14       1.0  0.33843  0.9228499999999997  0.96282  1.0000
  H   H15       1.0  0.93925  0.03418  0.11586  1.0000
  H   H16       1.0  0.8338300000000001  0.014699999999999996  0.21319  1.0000
  H   H17       1.0  0.95829  0.8313599999999998  0.19139  1.0000
  H   H18       1.0  0.055600000000000004  0.8576799999999999  0.0958  1.0000
  H   H19       1.0  0.8034200000000001  0.86212  0.2766  1.0000
  H   H20       1.0  0.7349  0.93511  0.28152  1.0000
  H   H21       1.0  0.057620000000000005  0.8975799999999998  0.30683  1.0000
  H   H22       1.0  0.99404  0.9708799999999999  0.30695  1.0000
  H   H23       1.0  0.8898600000000001  0.87201  0.38845  1.0000
  H   H24       1.0  0.80345  0.9417999999999999  0.38441999999999993  1.0000
  H   H25       1.0  0.30089  0.9100699999999999  0.51169  1.0000
  H   H26       1.0  0.11179000000000001  0.86165  0.44944999999999996  1.0000
  H   H27       1.0  0.96745  0.03574  0.39818  1.0000
  H   H28       1.0  0.16227  0.07731  0.4626700000000001  1.0000
  H   H29       1.0  0.43925  0.46576  0.38405  1.0000
  H   H30       1.0  0.3337400000000001  0.48528  0.28678  1.0000
  H   H31       1.0  0.45804000000000006  0.6686  0.30859  1.0000
  H   H32       1.0  0.55536  0.64228  0.40414999999999995  1.0000
  H   H33       1.0  0.3031100000000001  0.63788  0.22352  1.0000
  H   H34       1.0  0.23474000000000003  0.56488  0.21854  1.0000
  H   H35       1.0  0.55742  0.60252  0.19319  1.0000
  H   H36       1.0  0.49389000000000005  0.52921  0.19297999999999998  1.0000
  H   H37       1.0  0.38958  0.6281999999999999  0.11168000000000002  1.0000
  H   H38       1.0  0.3032400000000001  0.55839  0.11568  1.0000
  H   H39       1.0  0.80091  0.59009  0.98831  1.0000
  H   H40       1.0  0.61186  0.63855  0.05054999999999999  1.0000
  H   H41       1.0  0.46696  0.4645  0.1018  1.0000
  H   H42       1.0  0.66156  0.4228499999999999  0.03718  1.0000
  H   H43       1.0  0.060750000000000005  0.53418  0.88414  1.0000
  H   H44       1.0  0.16617  0.51469  0.78681  1.0000
  H   H45       1.0  0.0417  0.33136  0.80861  1.0000
  H   H46       1.0  0.94439  0.35768  0.9042  1.0000
  H   H47       1.0  0.19657000000000002  0.36212  0.7234  1.0000
  H   H48       1.0  0.2651  0.43511  0.71848  1.0000
  H   H49       1.0  0.94238  0.39758  0.6931700000000001  1.0000
  H   H50       1.0  0.00596  0.47087999999999997  0.6930499999999999  1.0000
  H   H51       1.0  0.11013000000000002  0.37201  0.61155  1.0000
  H   H52       1.0  0.19654  0.44179999999999997  0.61558  1.0000
  H   H53       1.0  0.6991100000000002  0.41006999999999993  0.48831  1.0000
  H   H54       1.0  0.8882  0.36164999999999997  0.55055  1.0000
  H   H55       1.0  0.03255  0.53574  0.60182  1.0000
  H   H56       1.0  0.8377300000000002  0.5773099999999999  0.53733  1.0000
  H   H57       1.0  0.43926000000000004  0.03423  0.38405999999999996  1.0000
  H   H58       1.0  0.33375  0.01472  0.28678  1.0000
  H   H59       1.0  0.45804000000000006  0.83139  0.30859  1.0000
  H   H60       1.0  0.55535  0.8577199999999998  0.40414999999999995  1.0000
  H   H61       1.0  0.30312  0.8621099999999999  0.22353  1.0000
  H   H62       1.0  0.23474000000000003  0.93512  0.21855  1.0000
  H   H63       1.0  0.55742  0.89748  0.19319  1.0000
  H   H64       1.0  0.49388000000000004  0.97078  0.19297999999999998  1.0000
  H   H65       1.0  0.38958  0.8717999999999999  0.11168000000000002  1.0000
  H   H66       1.0  0.3032400000000001  0.94161  0.11568  1.0000
  H   H67       1.0  0.8009000000000001  0.9099099999999999  0.98831  1.0000
  H   H68       1.0  0.61186  0.8614399999999999  0.05054999999999999  1.0000
  H   H69       1.0  0.46696  0.0355  0.1018  1.0000
  H   H70       1.0  0.66156  0.07714  0.03718  1.0000
  H   H71       1.0  0.060750000000000005  0.96582  0.88414  1.0000
  H   H72       1.0  0.16617  0.9853  0.78681  1.0000
  H   H73       1.0  0.041699999999999994  0.16863  0.80861  1.0000
  H   H74       1.0  0.94439  0.14232  0.9042  1.0000
  H   H75       1.0  0.19657000000000002  0.13787  0.7234  1.0000
  H   H76       1.0  0.2651  0.06489  0.71848  1.0000
  H   H77       1.0  0.94238  0.10242  0.6931700000000001  1.0000
  H   H78       1.0  0.005960000000000001  0.029119999999999997  0.6930499999999999  1.0000
  H   H79       1.0  0.11013000000000002  0.12799  0.61155  1.0000
  H   H80       1.0  0.19654  0.058199999999999995  0.61558  1.0000
  H   H81       1.0  0.6991100000000002  0.08992999999999998  0.48832  1.0000
  H   H82       1.0  0.8882  0.13834  0.55055  1.0000
  H   H83       1.0  0.03254  0.9642599999999998  0.60182  1.0000
  H   H84       1.0  0.8377300000000002  0.92268  0.53733  1.0000
  H   H85       1.0  0.56074  0.5342299999999999  0.61595  1.0000
  H   H86       1.0  0.6662600000000001  0.5147199999999998  0.71322  1.0000
  H   H87       1.0  0.54195  0.33139  0.6914099999999999  1.0000
  H   H88       1.0  0.44464  0.35772  0.59585  1.0000
  H   H89       1.0  0.69688  0.36210999999999993  0.77648  1.0000
  H   H90       1.0  0.76525  0.43512  0.78146  1.0000
  H   H91       1.0  0.44258  0.39747999999999994  0.8068099999999999  1.0000
  H   H92       1.0  0.50611  0.47078  0.80702  1.0000
  H   H93       1.0  0.61042  0.3718  0.8883199999999999  1.0000
  H   H94       1.0  0.69676  0.4416  0.88432  1.0000
  H   H95       1.0  0.19909  0.40991  0.011690000000000002  1.0000
  H   H96       1.0  0.38814  0.36144  0.94945  1.0000
  H   H97       1.0  0.53304  0.5355  0.8982  1.0000
  H   H98       1.0  0.33843  0.57714  0.96282  1.0000
  H   H99       1.0  0.9392400000000001  0.4658199999999999  0.11586  1.0000
  H   H100      1.0  0.8338300000000001  0.4853  0.21319  1.0000
  H   H101      1.0  0.95829  0.66863  0.19139  1.0000
  H   H102      1.0  0.05560000000000001  0.64232  0.0958  1.0000
  H   H103      1.0  0.8034200000000001  0.63787  0.2766  1.0000
  H   H104      1.0  0.7349  0.56489  0.28152  1.0000
  H   H105      1.0  0.057620000000000005  0.60242  0.30683  1.0000
  H   H106      1.0  0.99404  0.52912  0.30695  1.0000
  H   H107      1.0  0.8898600000000002  0.62799  0.38845  1.0000
  H   H108      1.0  0.80346  0.5582  0.38441999999999993  1.0000
  H   H109      1.0  0.30089  0.58993  0.51169  1.0000
  H   H110      1.0  0.11180000000000001  0.6383399999999999  0.44944999999999996  1.0000
  H   H111      1.0  0.96745  0.46425999999999995  0.39818  1.0000
  H   H112      1.0  0.16227  0.42269  0.4626700000000001  1.0000
  H   H113      1.0  0.60488  0.15401  0.38402  1.0000
  H   H114      1.0  0.60489  0.34598  0.38402  1.0000
  H   H115      1.0  0.05578000000000001  0.25  0.72745  1.0000
  H   H116      1.0  0.7926500000000002  0.25  0.69725  1.0000
  H   H117      1.0  0.72932  0.25  0.59042  1.0000
  H   H118      1.0  0.69895  0.24998999999999996  0.34115  1.0000
  H   H119      1.0  0.8958000000000002  0.846  0.8845100000000001  1.0000
  H   H120      1.0  0.8957900000000001  0.654  0.8845100000000001  1.0000
  H   H121      1.0  0.4435500000000001  0.75  0.22761999999999996  1.0000
  H   H122      1.0  0.70622  0.75  0.19741  1.0000
  H   H123      1.0  0.77026  0.75  0.09069  1.0000
  H   H124      1.0  0.80063  0.75  0.84185  1.0000
  H   H125      1.0  0.39512  0.65401  0.61597  1.0000
  H   H126      1.0  0.3951  0.84598  0.61598  1.0000
  H   H127      1.0  0.94422  0.75  0.27255  1.0000
  H   H128      1.0  0.20735  0.75  0.30275  1.0000
  H   H129      1.0  0.27068  0.75  0.40957999999999994  1.0000
  H   H130      1.0  0.30105  0.7499899999999999  0.65885  1.0000
  H   H131      1.0  0.1042  0.346  0.11549000000000001  1.0000
  H   H132      1.0  0.1042  0.154  0.11549000000000001  1.0000
  H   H133      1.0  0.5564100000000001  0.25  0.77238  1.0000
  H   H134      1.0  0.29375  0.25  0.80259  1.0000
  H   H135      1.0  0.22971  0.25  0.90931  1.0000
  H   H136      1.0  0.19936  0.25  0.15815  1.0000
  C   C1        1.0  0.55983  0.00989  0.63465  1.0000
  C   C2        1.0  0.61847  0.02153  0.6885999999999999  1.0000
  C   C3        1.0  0.6145200000000002  0.07899  0.71139  1.0000
  C   C4        1.0  0.5519  0.12301999999999998  0.67672  1.0000
  C   C5        1.0  0.49545000000000006  0.10873  0.62293  1.0000
  C   C6        1.0  0.66543  0.09119999999999998  0.77169  1.0000
  C   C7        1.0  0.54149  0.07506999999999998  0.8146999999999999  1.0000
  C   C8        1.0  0.5903800000000001  0.08164  0.8776799999999999  1.0000
  C   C9        1.0  0.27537000000000006  0.06408  0.98569  1.0000
  C   C10       1.0  0.38085  0.09059  0.9504899999999998  1.0000
  C   C11       1.0  0.47635  0.05566999999999999  0.91737  1.0000
  C   C12       1.0  0.46012000000000003  0.9941399999999998  0.92196  1.0000
  C   C13       1.0  0.35245  0.9703499999999998  0.9577000000000001  1.0000
  C   C14       1.0  0.94017  0.9900499999999999  0.13458  1.0000
  C   C15       1.0  0.88157  0.9784299999999999  0.18856  1.0000
  C   C16       1.0  0.88563  0.92098  0.21138999999999997  1.0000
  C   C17       1.0  0.9482500000000001  0.87694  0.1767  1.0000
  C   C18       1.0  0.0047  0.89124  0.12286999999999998  1.0000
  C   C19       1.0  0.8348  0.9088199999999999  0.27175  1.0000
  C   C20       1.0  0.9586800000000001  0.92503  0.3147  1.0000
  C   C21       1.0  0.9098500000000002  0.91855  0.37773  1.0000
  C   C22       1.0  0.22470000000000004  0.9360699999999998  0.48568  1.0000
  C   C23       1.0  0.11926  0.90961  0.45048  1.0000
  C   C24       1.0  0.02391  0.94455  0.41736  1.0000
  C   C25       1.0  0.04027  0.006069999999999998  0.42193  1.0000
  C   C26       1.0  0.14794000000000002  0.029819999999999996  0.45764  1.0000
  C   C27       1.0  0.44016  0.50989  0.36534999999999995  1.0000
  C   C28       1.0  0.38152  0.5215299999999999  0.3114  1.0000
  C   C29       1.0  0.38547  0.57899  0.28861  1.0000
  C   C30       1.0  0.4481  0.62302  0.32328  1.0000
  C   C31       1.0  0.50455  0.60873  0.37705999999999995  1.0000
  C   C32       1.0  0.33457  0.5912  0.22831  1.0000
  C   C33       1.0  0.45851  0.57507  0.1853  1.0000
  C   C34       1.0  0.40962  0.5816399999999999  0.12232  1.0000
  C   C35       1.0  0.7246300000000001  0.56409  0.01431  1.0000
  C   C36       1.0  0.6191500000000002  0.59059  0.04952  1.0000
  C   C37       1.0  0.52365  0.55567  0.08263  1.0000
  C   C38       1.0  0.53987  0.4941499999999999  0.07804  1.0000
  C   C39       1.0  0.64754  0.47035  0.0423  1.0000
  C   C40       1.0  0.059820000000000005  0.49005  0.86542  1.0000
  C   C41       1.0  0.11842  0.47843  0.81144  1.0000
  C   C42       1.0  0.11436  0.42098  0.7886100000000001  1.0000
  C   C43       1.0  0.051740000000000015  0.37693999999999994  0.8233  1.0000
  C   C44       1.0  0.9953  0.39124  0.8771300000000001  1.0000
  C   C45       1.0  0.1652  0.4088199999999999  0.72825  1.0000
  C   C46       1.0  0.04131  0.42503  0.6853  1.0000
  C   C47       1.0  0.09014000000000001  0.41855  0.62227  1.0000
  C   C48       1.0  0.7753000000000002  0.43607  0.51432  1.0000
  C   C49       1.0  0.8807300000000001  0.40962  0.54952  1.0000
  C   C50       1.0  0.97609  0.4445499999999999  0.58264  1.0000
  C   C51       1.0  0.95973  0.5060699999999999  0.57807  1.0000
  C   C52       1.0  0.8520600000000003  0.52982  0.54236  1.0000
  C   C53       1.0  0.44016  0.9901  0.36534999999999995  1.0000
  C   C54       1.0  0.38153  0.9784699999999998  0.3114  1.0000
  C   C55       1.0  0.38548000000000004  0.92101  0.28862  1.0000
  C   C56       1.0  0.4481  0.87697  0.32328  1.0000
  C   C57       1.0  0.5045400000000002  0.8912699999999998  0.37707  1.0000
  C   C58       1.0  0.33457  0.9087999999999998  0.22832000000000002  1.0000
  C   C59       1.0  0.45851  0.92493  0.1853  1.0000
  C   C60       1.0  0.40962  0.91835  0.12232  1.0000
  C   C61       1.0  0.7246300000000001  0.9359099999999998  0.01431  1.0000
  C   C62       1.0  0.6191500000000002  0.90941  0.04952  1.0000
  C   C63       1.0  0.52365  0.9443199999999998  0.08263  1.0000
  C   C64       1.0  0.53988  0.00585  0.07804  1.0000
  C   C65       1.0  0.64754  0.02965  0.0423  1.0000
  C   C66       1.0  0.059820000000000005  0.00995  0.86542  1.0000
  C   C67       1.0  0.11843  0.02157  0.81144  1.0000
  C   C68       1.0  0.11437  0.07901  0.7886100000000001  1.0000
  C   C69       1.0  0.051740000000000015  0.12306  0.8233  1.0000
  C   C70       1.0  0.9953  0.10876  0.8771300000000001  1.0000
  C   C71       1.0  0.1652  0.09118  0.72825  1.0000
  C   C72       1.0  0.04132  0.07496  0.6853  1.0000
  C   C73       1.0  0.09014000000000001  0.08145  0.62227  1.0000
  C   C74       1.0  0.7753000000000002  0.06391999999999999  0.51432  1.0000
  C   C75       1.0  0.8807300000000001  0.09038  0.54952  1.0000
  C   C76       1.0  0.97609  0.05544999999999999  0.58264  1.0000
  C   C77       1.0  0.95973  0.9939199999999999  0.57807  1.0000
  C   C78       1.0  0.8520600000000003  0.97018  0.54236  1.0000
  C   C79       1.0  0.55983  0.4900999999999999  0.63465  1.0000
  C   C80       1.0  0.61847  0.47846999999999995  0.6885999999999999  1.0000
  C   C81       1.0  0.6145200000000002  0.42101  0.71139  1.0000
  C   C82       1.0  0.55189  0.37697  0.67672  1.0000
  C   C83       1.0  0.49545000000000006  0.39126999999999995  0.62293  1.0000
  C   C84       1.0  0.66542  0.40879999999999994  0.77168  1.0000
  C   C85       1.0  0.5414800000000001  0.4249299999999999  0.8146999999999999  1.0000
  C   C86       1.0  0.5903800000000001  0.41834999999999994  0.8776799999999999  1.0000
  C   C87       1.0  0.27537000000000006  0.43590999999999996  0.98569  1.0000
  C   C88       1.0  0.38084  0.40941  0.9504899999999998  1.0000
  C   C89       1.0  0.47634  0.44431999999999994  0.91737  1.0000
  C   C90       1.0  0.46012000000000003  0.50585  0.92196  1.0000
  C   C91       1.0  0.35246  0.52964  0.9577000000000001  1.0000
  C   C92       1.0  0.94018  0.50995  0.13458  1.0000
  C   C93       1.0  0.88157  0.5215699999999999  0.18856  1.0000
  C   C94       1.0  0.88563  0.57901  0.21138999999999997  1.0000
  C   C95       1.0  0.9482500000000001  0.62306  0.1767  1.0000
  C   C96       1.0  0.0047  0.60876  0.12286999999999998  1.0000
  C   C97       1.0  0.8348  0.59118  0.27175  1.0000
  C   C98       1.0  0.9586800000000001  0.57496  0.3147  1.0000
  C   C99       1.0  0.9098600000000001  0.5814499999999999  0.37773  1.0000
  C   C100      1.0  0.22470000000000004  0.5639199999999999  0.48568  1.0000
  C   C101      1.0  0.11927  0.5903799999999999  0.45048  1.0000
  C   C102      1.0  0.02391  0.55545  0.41736  1.0000
  C   C103      1.0  0.04026  0.49393  0.42193  1.0000
  C   C104      1.0  0.14793  0.47017999999999993  0.45764  1.0000
  C   C105      1.0  0.46451000000000003  0.19851  0.4440799999999999  1.0000
  C   C106      1.0  0.5667100000000002  0.19692999999999997  0.39899  1.0000
  C   C107      1.0  0.40823  0.14327  0.47297  1.0000
  C   C108      1.0  0.46451000000000003  0.30148  0.4440799999999999  1.0000
  C   C109      1.0  0.5667100000000002  0.30307  0.39898  1.0000
  C   C110      1.0  0.40823  0.35673  0.47297  1.0000
  C   C111      1.0  0.13923  0.25  0.64053  1.0000
  C   C112      1.0  0.02771  0.25  0.68211  1.0000
  C   C113      1.0  0.8787500000000001  0.25  0.66437  1.0000
  C   C114      1.0  0.84388  0.25  0.60585  1.0000
  C   C115      1.0  0.96121  0.25  0.56637  1.0000
  C   C116      1.0  0.30554  0.25  0.65135  1.0000
  C   C117      1.0  0.94779  0.25  0.50119  1.0000
  C   C118      1.0  0.61794  0.25  0.37587  1.0000
  C   C119      1.0  0.03715  0.8014599999999998  0.9440399999999999  1.0000
  C   C120      1.0  0.9344100000000001  0.80305  0.8991699999999999  1.0000
  C   C121      1.0  0.09277000000000002  0.8566599999999999  0.97311  1.0000
  C   C122      1.0  0.03715  0.6985399999999999  0.9440399999999999  1.0000
  C   C123      1.0  0.9344100000000001  0.69695  0.8991699999999999  1.0000
  C   C124      1.0  0.09278000000000002  0.64334  0.97311  1.0000
  C   C125      1.0  0.35977  0.75  0.14053  1.0000
  C   C126      1.0  0.47113000000000005  0.75  0.1822  1.0000
  C   C127      1.0  0.62022  0.75  0.16456  1.0000
  C   C128      1.0  0.65569  0.75  0.10612000000000002  1.0000
  C   C129      1.0  0.53904  0.75  0.0665  1.0000
  C   C130      1.0  0.19292000000000006  0.75  0.15131  1.0000
  C   C131      1.0  0.5548500000000001  0.75  0.00133  1.0000
  C   C132      1.0  0.8827300000000002  0.75  0.87617  1.0000
  C   C133      1.0  0.53549  0.69851  0.55591  1.0000
  C   C134      1.0  0.43329  0.69693  0.60101  1.0000
  C   C135      1.0  0.5917600000000001  0.64327  0.52703  1.0000
  C   C136      1.0  0.53549  0.8014799999999997  0.55592  1.0000
  C   C137      1.0  0.43328  0.8030599999999999  0.60102  1.0000
  C   C138      1.0  0.5917600000000001  0.85673  0.52703  1.0000
  C   C139      1.0  0.86076  0.75  0.35947  1.0000
  C   C140      1.0  0.97229  0.75  0.31789  1.0000
  C   C141      1.0  0.12124  0.75  0.33563  1.0000
  C   C142      1.0  0.15612000000000006  0.75  0.39415  1.0000
  C   C143      1.0  0.03879  0.75  0.43362999999999996  1.0000
  C   C144      1.0  0.69446  0.75  0.34864999999999996  1.0000
  C   C145      1.0  0.0522  0.75  0.49881  1.0000
  C   C146      1.0  0.38206  0.7499899999999999  0.62413  1.0000
  C   C147      1.0  0.96284  0.30146  0.05596000000000001  1.0000
  C   C148      1.0  0.06558  0.30305  0.10082999999999999  1.0000
  C   C149      1.0  0.90722  0.35666  0.026890000000000004  1.0000
  C   C150      1.0  0.96284  0.19853999999999997  0.05596000000000001  1.0000
  C   C151      1.0  0.06558  0.19694999999999993  0.10082999999999999  1.0000
  C   C152      1.0  0.90722  0.14333999999999997  0.026890000000000004  1.0000
  C   C153      1.0  0.6402  0.25  0.85947  1.0000
  C   C154      1.0  0.52884  0.25  0.8178  1.0000
  C   C155      1.0  0.37974  0.25  0.83545  1.0000
  C   C156      1.0  0.34428  0.25  0.8938899999999999  1.0000
  C   C157      1.0  0.46093000000000006  0.25  0.9335  1.0000
  C   C158      1.0  0.80707  0.25  0.8486899999999999  1.0000
  C   C159      1.0  0.44513  0.25  0.99867  1.0000
  C   C160      1.0  0.11727000000000001  0.25  0.12383  1.0000
  N   N1        1.0  0.49698000000000003  0.05277  0.6018  1.0000
  N   N2        1.0  0.25919000000000003  0.00469  0.9891199999999999  1.0000
  N   N3        1.0  0.00309  0.9471799999999999  0.10171  1.0000
  N   N4        1.0  0.24095  0.99546  0.4891  1.0000
  N   N5        1.0  0.50302  0.55277  0.39819999999999994  1.0000
  N   N6        1.0  0.7408100000000001  0.50469  0.01088  1.0000
  N   N7        1.0  0.9969000000000001  0.44718  0.8982899999999999  1.0000
  N   N8        1.0  0.75905  0.49546  0.5109  1.0000
  N   N9        1.0  0.50301  0.94723  0.39821  1.0000
  N   N10       1.0  0.7408100000000001  0.9953  0.01088  1.0000
  N   N11       1.0  0.9969000000000001  0.05281  0.8982899999999999  1.0000
  N   N12       1.0  0.75905  0.00454  0.5109  1.0000
  N   N13       1.0  0.49698000000000003  0.4472299999999999  0.6018  1.0000
  N   N14       1.0  0.25918  0.4952999999999999  0.9891199999999999  1.0000
  N   N15       1.0  0.0031  0.55281  0.10171  1.0000
  N   N16       1.0  0.24095  0.50454  0.4891  1.0000
  N   N17       1.0  0.10261  0.25  0.58476  1.0000
  N   N18       1.0  0.41427  0.25  0.46555  1.0000
  N   N19       1.0  0.3972600000000001  0.75  0.08473  1.0000
  N   N20       1.0  0.0878  0.75  0.96535  1.0000
  N   N21       1.0  0.89738  0.75  0.41524  1.0000
  N   N22       1.0  0.58573  0.75  0.53445  1.0000
  N   N23       1.0  0.6027100000000002  0.25  0.9152699999999999  1.0000
  N   N24       1.0  0.91219  0.25  0.03465  1.0000
  O   O1        1.0  0.46691  0.09464999999999998  0.45712  1.0000
  O   O2        1.0  0.31035  0.14886  0.51179  1.0000
  O   O3        1.0  0.46691  0.40535  0.45712  1.0000
  O   O4        1.0  0.31035  0.35114  0.51179  1.0000
  O   O5        1.0  0.34961  0.25  0.7024399999999998  1.0000
  O   O6        1.0  0.38704000000000005  0.25  0.60582  1.0000
  O   O7        1.0  0.07367  0.25  0.47419  1.0000
  O   O8        1.0  0.82097  0.25  0.4798  1.0000
  O   O9        1.0  0.03172  0.9050199999999999  0.95775  1.0000
  O   O10       1.0  0.19205000000000003  0.85121  0.01144  1.0000
  O   O11       1.0  0.03173  0.59497  0.9577600000000001  1.0000
  O   O12       1.0  0.19205000000000003  0.64879  0.01144  1.0000
  O   O13       1.0  0.14804  0.75  0.20234999999999997  1.0000
  O   O14       1.0  0.11161  0.75  0.10576  1.0000
  O   O15       1.0  0.4296200000000001  0.75  0.9740199999999999  1.0000
  O   O16       1.0  0.68224  0.75  0.98032  1.0000
  O   O17       1.0  0.53309  0.59465  0.54288  1.0000
  O   O18       1.0  0.68965  0.64886  0.48821  1.0000
  O   O19       1.0  0.53309  0.9053499999999999  0.54288  1.0000
  O   O20       1.0  0.6896400000000003  0.8511299999999999  0.48821  1.0000
  O   O21       1.0  0.6503900000000001  0.75  0.29756  1.0000
  O   O22       1.0  0.61295  0.75  0.39419  1.0000
  O   O23       1.0  0.9263300000000001  0.7499899999999999  0.52581  1.0000
  O   O24       1.0  0.17903  0.75  0.5202  1.0000
  O   O25       1.0  0.9682700000000001  0.40502  0.04225  1.0000
  O   O26       1.0  0.80794  0.35121  0.98856  1.0000
  O   O27       1.0  0.9682700000000001  0.09497  0.04225  1.0000
  O   O28       1.0  0.80794  0.14878999999999998  0.98856  1.0000
  O   O29       1.0  0.85194  0.25  0.79764  1.0000
  O   O30       1.0  0.88838  0.25  0.89424  1.0000
  O   O31       1.0  0.57036  0.25  0.02598  1.0000
  O   O32       1.0  0.31774  0.25  0.01969  1.0000
