data_image0
_chemical_formula_structural       Cu8H72C136N8O32
_chemical_formula_sum              "Cu8 H72 C136 N8 O32"
_cell_length_a       11.81986
_cell_length_b       14.63447
_cell_length_c       21.72413
_cell_angle_alpha    90.0
_cell_angle_beta     90.0
_cell_angle_gamma    90.03356000000001

_symmetry_space_group_name_H-M    'P 1'
_symmetry_Int_Tables_number       1

loop_
  _symmetry_equiv_pos_as_xyz
  'x,y,z'

loop_
  _atom_site_type_symbol
  _atom_site_label
  _atom_site_symmetry_multiplicity
  _atom_site_fract_x
  _atom_site_fract_y
  _atom_site_fract_z
  _atom_site_occupancy
  Cu  Cu1       1.0  0.9888199999999998  0.04808  0.94813  1.0000
  Cu  Cu2       1.0  0.011179999999999997  0.45193  0.44813  1.0000
  Cu  Cu3       1.0  0.488  0.9519499999999999  0.55182  1.0000
  Cu  Cu4       1.0  0.51202  0.54808  0.05183  1.0000
  Cu  Cu5       1.0  0.011179999999999997  0.95193  0.05186999999999999  1.0000
  Cu  Cu6       1.0  0.9888199999999998  0.54807  0.55187  1.0000
  Cu  Cu7       1.0  0.51202  0.04808  0.44817  1.0000
  Cu  Cu8       1.0  0.488  0.45195  0.94818  1.0000
  H   H1        1.0  0.98412  0.50684  0.32178  1.0000
  H   H2        1.0  0.036919999999999994  0.47053999999999996  0.21321  1.0000
  H   H3        1.0  0.09141999999999999  0.26509  0.44237  1.0000
  H   H4        1.0  0.21152999999999997  0.12623  0.42755000000000004  1.0000
  H   H5        1.0  0.2894  0.09004  0.32501  1.0000
  H   H6        1.0  0.24093  0.18524  0.2344  1.0000
  H   H7        1.0  0.24042  0.44634  0.16195  1.0000
  H   H8        1.0  0.21619  0.28062  0.9989799999999999  1.0000
  H   H9        1.0  0.06337  0.18879  0.16775  1.0000
  H   H10       1.0  0.015869999999999995  0.99315  0.82178  1.0000
  H   H11       1.0  0.9630899999999999  0.02946  0.71322  1.0000
  H   H12       1.0  0.9085899999999998  0.23491  0.9423699999999999  1.0000
  H   H13       1.0  0.78846  0.37376  0.92755  1.0000
  H   H14       1.0  0.7105899999999999  0.40996  0.82501  1.0000
  H   H15       1.0  0.7590699999999998  0.31476  0.7344  1.0000
  H   H16       1.0  0.75957  0.05365  0.66197  1.0000
  H   H17       1.0  0.7837799999999999  0.21934  0.49898  1.0000
  H   H18       1.0  0.9366399999999999  0.3112  0.66774  1.0000
  H   H19       1.0  0.48429999999999995  0.49298999999999993  0.17821  1.0000
  H   H20       1.0  0.53677  0.52936  0.28679  1.0000
  H   H21       1.0  0.59148  0.73476  0.05767  1.0000
  H   H22       1.0  0.7114899999999998  0.87392  0.07247  1.0000
  H   H23       1.0  0.78939  0.9101  0.17496  1.0000
  H   H24       1.0  0.74095  0.81491  0.2656  1.0000
  H   H25       1.0  0.74003  0.55389  0.33823  1.0000
  H   H26       1.0  0.71649  0.71977  0.50111  1.0000
  H   H27       1.0  0.5636899999999999  0.8115  0.33225  1.0000
  H   H28       1.0  0.5156999999999999  0.007009999999999999  0.6782  1.0000
  H   H29       1.0  0.4632299999999999  0.9706399999999997  0.78678  1.0000
  H   H30       1.0  0.40851999999999994  0.76524  0.55766  1.0000
  H   H31       1.0  0.2884999999999999  0.62607  0.57248  1.0000
  H   H32       1.0  0.21059999999999995  0.5898999999999999  0.67497  1.0000
  H   H33       1.0  0.25905  0.68508  0.7655999999999998  1.0000
  H   H34       1.0  0.25997  0.94613  0.8382  1.0000
  H   H35       1.0  0.28349  0.7802699999999998  0.00112  1.0000
  H   H36       1.0  0.4362999999999999  0.6885199999999999  0.8322800000000001  1.0000
  H   H37       1.0  0.015869999999999995  0.49315  0.67822  1.0000
  H   H38       1.0  0.9630899999999999  0.52946  0.78678  1.0000
  H   H39       1.0  0.90858  0.73491  0.55763  1.0000
  H   H40       1.0  0.78846  0.87376  0.57245  1.0000
  H   H41       1.0  0.7105899999999999  0.90996  0.67499  1.0000
  H   H42       1.0  0.7590699999999998  0.81476  0.7655999999999998  1.0000
  H   H43       1.0  0.75957  0.55364  0.83803  1.0000
  H   H44       1.0  0.7837799999999999  0.71934  0.00102  1.0000
  H   H45       1.0  0.9366399999999999  0.8112  0.83226  1.0000
  H   H46       1.0  0.98413  0.00685  0.17822  1.0000
  H   H47       1.0  0.036919999999999994  0.97054  0.28679  1.0000
  H   H48       1.0  0.09141  0.76509  0.05763  1.0000
  H   H49       1.0  0.21152999999999997  0.62623  0.07245  1.0000
  H   H50       1.0  0.2894  0.59004  0.17499  1.0000
  H   H51       1.0  0.24093  0.68524  0.2656  1.0000
  H   H52       1.0  0.24042  0.94633  0.33805  1.0000
  H   H53       1.0  0.21619  0.78062  0.50102  1.0000
  H   H54       1.0  0.06336  0.68878  0.33225  1.0000
  H   H55       1.0  0.5156999999999999  0.50701  0.8218  1.0000
  H   H56       1.0  0.4632299999999999  0.47064  0.71322  1.0000
  H   H57       1.0  0.40851999999999994  0.26524  0.9423400000000001  1.0000
  H   H58       1.0  0.2884999999999999  0.12607  0.9275200000000001  1.0000
  H   H59       1.0  0.21060999999999996  0.0899  0.8250300000000002  1.0000
  H   H60       1.0  0.25905  0.18508  0.7344  1.0000
  H   H61       1.0  0.25997  0.44613  0.6618  1.0000
  H   H62       1.0  0.28349  0.28027  0.49888  1.0000
  H   H63       1.0  0.4362999999999999  0.18852  0.66772  1.0000
  H   H64       1.0  0.48429999999999995  0.99299  0.32179  1.0000
  H   H65       1.0  0.53677  0.02936  0.21321  1.0000
  H   H66       1.0  0.59148  0.23475999999999994  0.44233000000000006  1.0000
  H   H67       1.0  0.7114999999999999  0.3739199999999999  0.4275300000000001  1.0000
  H   H68       1.0  0.78939  0.4101  0.32504  1.0000
  H   H69       1.0  0.74095  0.31492  0.2344  1.0000
  H   H70       1.0  0.74003  0.05389  0.16177  1.0000
  H   H71       1.0  0.71649  0.21978  0.9988899999999998  1.0000
  H   H72       1.0  0.5636899999999999  0.3115  0.16775  1.0000
  C   C1        1.0  0.026539999999999998  0.44283  0.31083  1.0000
  C   C2        1.0  0.05752  0.4227  0.24988  1.0000
  C   C3        1.0  0.11339  0.34167  0.23674  1.0000
  C   C4        1.0  0.14015999999999998  0.28193  0.28664  1.0000
  C   C5        1.0  0.1017  0.30654  0.34728  1.0000
  C   C6        1.0  0.12472999999999998  0.24717  0.39735999999999994  1.0000
  C   C7        1.0  0.19025  0.17014  0.38884  1.0000
  C   C8        1.0  0.23367999999999994  0.14864  0.32993  1.0000
  C   C9        1.0  0.20764  0.20218999999999995  0.27964  1.0000
  C   C10       1.0  0.14547  0.3212  0.17229  1.0000
  C   C11       1.0  0.20986999999999997  0.38493  0.13928  1.0000
  C   C12       1.0  0.23860999999999996  0.36934  0.07763  1.0000
  C   C13       1.0  0.19752  0.29158  0.04744  1.0000
  C   C14       1.0  0.1349  0.22673  0.08032  1.0000
  C   C15       1.0  0.11120999999999998  0.24042  0.14285  1.0000
  C   C16       1.0  0.32194  0.4308  0.046380000000000005  1.0000
  C   C17       1.0  0.09147  0.14286  0.04855  1.0000
  C   C18       1.0  0.97345  0.05716  0.81083  1.0000
  C   C19       1.0  0.9424799999999999  0.0773  0.74988  1.0000
  C   C20       1.0  0.88663  0.15835  0.73673  1.0000
  C   C21       1.0  0.85984  0.21807  0.7866499999999998  1.0000
  C   C22       1.0  0.89829  0.19346  0.8472800000000001  1.0000
  C   C23       1.0  0.87527  0.25283  0.8973600000000002  1.0000
  C   C24       1.0  0.80976  0.32986  0.88884  1.0000
  C   C25       1.0  0.7663199999999999  0.35136  0.82993  1.0000
  C   C26       1.0  0.7923599999999997  0.29781  0.77964  1.0000
  C   C27       1.0  0.8545199999999997  0.17878  0.67229  1.0000
  C   C28       1.0  0.79012  0.11505  0.63928  1.0000
  C   C29       1.0  0.7614  0.13065  0.57763  1.0000
  C   C30       1.0  0.8025099999999998  0.2084  0.54743  1.0000
  C   C31       1.0  0.8651099999999999  0.27325  0.58032  1.0000
  C   C32       1.0  0.8887799999999999  0.25956  0.64285  1.0000
  C   C33       1.0  0.67804  0.06923  0.54635  1.0000
  C   C34       1.0  0.9085099999999999  0.35712  0.54854  1.0000
  C   C35       1.0  0.5266299999999999  0.55707  0.18919  1.0000
  C   C36       1.0  0.5574399999999999  0.57726  0.25016  1.0000
  C   C37       1.0  0.61336  0.65833  0.26335  1.0000
  C   C38       1.0  0.64021  0.71807  0.21343  1.0000
  C   C39       1.0  0.60187  0.69341  0.15279  1.0000
  C   C40       1.0  0.62486  0.75274  0.10266000000000002  1.0000
  C   C41       1.0  0.6903199999999998  0.82986  0.11114  1.0000
  C   C42       1.0  0.7337299999999999  0.85141  0.17007  1.0000
  C   C43       1.0  0.70767  0.79788  0.22038  1.0000
  C   C44       1.0  0.6452  0.67897  0.32782  1.0000
  C   C45       1.0  0.7094499999999998  0.61529  0.36086  1.0000
  C   C46       1.0  0.7382999999999998  0.63108  0.42246000000000006  1.0000
  C   C47       1.0  0.69758  0.70894  0.45266  1.0000
  C   C48       1.0  0.6353199999999999  0.77391  0.41971  1.0000
  C   C49       1.0  0.6114099999999999  0.75991  0.35721  1.0000
  C   C50       1.0  0.8206999999999998  0.56906  0.45385  1.0000
  C   C51       1.0  0.5934399999999999  0.85856  0.45121  1.0000
  C   C52       1.0  0.47334999999999994  0.94294  0.68919  1.0000
  C   C53       1.0  0.44254999999999994  0.92273  0.75016  1.0000
  C   C54       1.0  0.38666  0.84165  0.76336  1.0000
  C   C55       1.0  0.35977999999999993  0.78192  0.71343  1.0000
  C   C56       1.0  0.39811  0.8066  0.65278  1.0000
  C   C57       1.0  0.3751399999999999  0.74725  0.60266  1.0000
  C   C58       1.0  0.30968  0.67013  0.61114  1.0000
  C   C59       1.0  0.26627  0.64858  0.67007  1.0000
  C   C60       1.0  0.29232  0.70211  0.72038  1.0000
  C   C61       1.0  0.35477  0.82104  0.82782  1.0000
  C   C62       1.0  0.29051999999999994  0.88472  0.86086  1.0000
  C   C63       1.0  0.26166  0.86894  0.9224500000000001  1.0000
  C   C64       1.0  0.30242  0.7911  0.9526700000000001  1.0000
  C   C65       1.0  0.3647  0.72614  0.91972  1.0000
  C   C66       1.0  0.38859  0.74012  0.85722  1.0000
  C   C67       1.0  0.17926  0.93094  0.95386  1.0000
  C   C68       1.0  0.4065699999999999  0.6414899999999999  0.95121  1.0000
  C   C69       1.0  0.97344  0.55716  0.68917  1.0000
  C   C70       1.0  0.9424799999999999  0.5773  0.7501199999999999  1.0000
  C   C71       1.0  0.88663  0.65835  0.76327  1.0000
  C   C72       1.0  0.85984  0.71807  0.71335  1.0000
  C   C73       1.0  0.89829  0.69345  0.65272  1.0000
  C   C74       1.0  0.87527  0.75282  0.60264  1.0000
  C   C75       1.0  0.80975  0.82986  0.61116  1.0000
  C   C76       1.0  0.7663099999999999  0.85136  0.67007  1.0000
  C   C77       1.0  0.7923599999999997  0.79781  0.72036  1.0000
  C   C78       1.0  0.8545199999999997  0.67878  0.82771  1.0000
  C   C79       1.0  0.79012  0.61505  0.86072  1.0000
  C   C80       1.0  0.7614  0.6306499999999999  0.92237  1.0000
  C   C81       1.0  0.8025099999999998  0.7084  0.95257  1.0000
  C   C82       1.0  0.8651  0.7732499999999999  0.91968  1.0000
  C   C83       1.0  0.8887799999999999  0.75956  0.8571500000000001  1.0000
  C   C84       1.0  0.67804  0.56923  0.9536500000000001  1.0000
  C   C85       1.0  0.9085099999999999  0.8571199999999999  0.95146  1.0000
  C   C86       1.0  0.026539999999999998  0.9428299999999998  0.18917  1.0000
  C   C87       1.0  0.057509999999999985  0.9227  0.25012  1.0000
  C   C88       1.0  0.11339  0.84166  0.26326  1.0000
  C   C89       1.0  0.14015999999999998  0.78193  0.21336  1.0000
  C   C90       1.0  0.1017  0.80654  0.15272  1.0000
  C   C91       1.0  0.12472999999999998  0.74717  0.10264  1.0000
  C   C92       1.0  0.19025  0.67014  0.11116  1.0000
  C   C93       1.0  0.23367999999999994  0.64864  0.17007  1.0000
  C   C94       1.0  0.20764  0.70219  0.22036  1.0000
  C   C95       1.0  0.14547  0.8212  0.32771  1.0000
  C   C96       1.0  0.20986999999999997  0.88492  0.36072  1.0000
  C   C97       1.0  0.23860999999999996  0.86934  0.42237  1.0000
  C   C98       1.0  0.19752  0.79158  0.45256  1.0000
  C   C99       1.0  0.1349  0.72673  0.41968  1.0000
  C   C100      1.0  0.11120999999999998  0.74042  0.35715  1.0000
  C   C101      1.0  0.32194  0.93079  0.45362  1.0000
  C   C102      1.0  0.09147  0.64286  0.45145  1.0000
  C   C103      1.0  0.47334999999999994  0.4429399999999999  0.81081  1.0000
  C   C104      1.0  0.44254999999999994  0.42274  0.7498399999999998  1.0000
  C   C105      1.0  0.38666  0.34165  0.73665  1.0000
  C   C106      1.0  0.35977999999999993  0.28192  0.78657  1.0000
  C   C107      1.0  0.3981199999999999  0.3066  0.8472200000000001  1.0000
  C   C108      1.0  0.3751399999999999  0.24726  0.89734  1.0000
  C   C109      1.0  0.30968  0.17013  0.8888599999999999  1.0000
  C   C110      1.0  0.26627  0.14859  0.82993  1.0000
  C   C111      1.0  0.29232  0.20211  0.7796199999999999  1.0000
  C   C112      1.0  0.35477  0.32104  0.67218  1.0000
  C   C113      1.0  0.29051999999999994  0.38472  0.63914  1.0000
  C   C114      1.0  0.26166  0.36894  0.57755  1.0000
  C   C115      1.0  0.30242  0.2911  0.54733  1.0000
  C   C116      1.0  0.3647  0.22615  0.58028  1.0000
  C   C117      1.0  0.38859  0.24011999999999997  0.64278  1.0000
  C   C118      1.0  0.17926  0.43094  0.54614  1.0000
  C   C119      1.0  0.4065699999999999  0.14149  0.54879  1.0000
  C   C120      1.0  0.5266299999999999  0.05707  0.31081  1.0000
  C   C121      1.0  0.5574399999999999  0.07726  0.24984  1.0000
  C   C122      1.0  0.61336  0.15833  0.23665  1.0000
  C   C123      1.0  0.64022  0.21807  0.28657  1.0000
  C   C124      1.0  0.60188  0.19341  0.34721  1.0000
  C   C125      1.0  0.62486  0.25275  0.39733999999999997  1.0000
  C   C126      1.0  0.6903199999999998  0.32987  0.38886  1.0000
  C   C127      1.0  0.7337299999999999  0.35141  0.32993  1.0000
  C   C128      1.0  0.70767  0.29788  0.27962  1.0000
  C   C129      1.0  0.6452  0.17897  0.17218  1.0000
  C   C130      1.0  0.7094499999999998  0.11529  0.13914  1.0000
  C   C131      1.0  0.7382999999999998  0.13108  0.07754  1.0000
  C   C132      1.0  0.69759  0.20894999999999994  0.04734  1.0000
  C   C133      1.0  0.63533  0.27391  0.08028  1.0000
  C   C134      1.0  0.6114099999999999  0.25991  0.14279  1.0000
  C   C135      1.0  0.8206999999999998  0.06906  0.04614999999999999  1.0000
  C   C136      1.0  0.5934399999999999  0.35856  0.04879  1.0000
  N   N1        1.0  0.04577  0.38731  0.35821  1.0000
  N   N2        1.0  0.9542299999999998  0.11268  0.85821  1.0000
  N   N3        1.0  0.54608  0.61258  0.14182  1.0000
  N   N4        1.0  0.4539199999999999  0.88743  0.64182  1.0000
  N   N5        1.0  0.9542199999999997  0.61268  0.64179  1.0000
  N   N6        1.0  0.04577  0.88731  0.14179  1.0000
  N   N7        1.0  0.4539199999999999  0.38743  0.8581800000000002  1.0000
  N   N8        1.0  0.54608  0.11258  0.35818  1.0000
  O   O1        1.0  0.36510999999999993  0.49478  0.07894  1.0000
  O   O2        1.0  0.34717999999999993  0.4117  0.9907899999999998  1.0000
  O   O3        1.0  0.07991999999999999  0.07134  0.08151  1.0000
  O   O4        1.0  0.06862999999999998  0.15110999999999997  0.9913799999999999  1.0000
  O   O5        1.0  0.6349299999999999  0.00525  0.57896  1.0000
  O   O6        1.0  0.6527799999999999  0.08825999999999999  0.4908  1.0000
  O   O7        1.0  0.9200799999999999  0.4286499999999999  0.5815  1.0000
  O   O8        1.0  0.93134  0.34884  0.49138  1.0000
  O   O9        1.0  0.86294  0.50465  0.42132  1.0000
  O   O10       1.0  0.84597  0.58803  0.50944  1.0000
  O   O11       1.0  0.58252  0.9297699999999998  0.41796  1.0000
  O   O12       1.0  0.57143  0.85137  0.50852  1.0000
  O   O13       1.0  0.13703  0.99538  0.9213  1.0000
  O   O14       1.0  0.15399999999999997  0.9119999999999998  0.00942  1.0000
  O   O15       1.0  0.4175199999999999  0.57024  0.9180000000000001  1.0000
  O   O16       1.0  0.42853999999999987  0.64869  0.00852  1.0000
  O   O17       1.0  0.6349299999999999  0.50525  0.9210399999999999  1.0000
  O   O18       1.0  0.6527699999999999  0.58826  0.0092  1.0000
  O   O19       1.0  0.9200799999999999  0.92865  0.9185  1.0000
  O   O20       1.0  0.93134  0.8488299999999999  0.00862  1.0000
  O   O21       1.0  0.36510999999999993  0.99477  0.42105999999999993  1.0000
  O   O22       1.0  0.34716999999999987  0.9117  0.50921  1.0000
  O   O23       1.0  0.07991999999999999  0.57134  0.41849000000000003  1.0000
  O   O24       1.0  0.06862999999999998  0.65111  0.50862  1.0000
  O   O25       1.0  0.13703  0.49538  0.5787  1.0000
  O   O26       1.0  0.15399999999999997  0.412  0.49058000000000007  1.0000
  O   O27       1.0  0.4175199999999999  0.07024  0.582  1.0000
  O   O28       1.0  0.4285499999999999  0.1487  0.49148  1.0000
  O   O29       1.0  0.86295  0.00465  0.07868  1.0000
  O   O30       1.0  0.84597  0.08803  0.9905600000000001  1.0000
  O   O31       1.0  0.58252  0.42977  0.08204  1.0000
  O   O32       1.0  0.57143  0.35137  0.99148  1.0000
