data_image0
_chemical_formula_structural       Mn12H96C216O48
_chemical_formula_sum              "Mn12 H96 C216 O48"
_cell_length_a       22.91147
_cell_length_b       22.911879999999996
_cell_length_c       22.91379
_cell_angle_alpha    109.4911
_cell_angle_beta     109.47964999999999
_cell_angle_gamma    109.46611

_space_group_name_H-M_alt    "P 1"
_space_group_IT_number       1

loop_
  _space_group_symop_operation_xyz
  'x, y, z'

loop_
  _atom_site_type_symbol
  _atom_site_label
  _atom_site_symmetry_multiplicity
  _atom_site_fract_x
  _atom_site_fract_y
  _atom_site_fract_z
  _atom_site_occupancy
  Mn  Mn1       1.0  0.60908  0.10914  0.50044  1.0000
  Mn  Mn2       1.0  0.39139000000000007  0.8913600000000003  0.50011  1.0000
  Mn  Mn3       1.0  0.10911999999999998  0.49987  0.60905  1.0000
  Mn  Mn4       1.0  0.89123  0.5001  0.39127  1.0000
  Mn  Mn5       1.0  0.50013  0.39139  0.89086  1.0000
  Mn  Mn6       1.0  0.5000300000000001  0.6088300000000001  0.10884  1.0000
  Mn  Mn7       1.0  0.6087000000000001  0.49994000000000005  0.10871000000000001  1.0000
  Mn  Mn8       1.0  0.39125999999999994  0.50019  0.8908099999999999  1.0000
  Mn  Mn9       1.0  0.10907000000000001  0.609  0.50043  1.0000
  Mn  Mn10      1.0  0.89133  0.39108  0.50009  1.0000
  Mn  Mn11      1.0  0.50037  0.10941000000000005  0.60936  1.0000
  Mn  Mn12      1.0  0.50011  0.89127  0.39106  1.0000
  H   H1        1.0  0.6841600000000002  0.88533  0.43882  1.0000
  H   H2        1.0  0.79982  0.8850500000000001  0.46969  1.0000
  H   H3        1.0  0.31574  0.75455  0.201  1.0000
  H   H4        1.0  0.19989000000000004  0.6698100000000001  0.08511  1.0000
  H   H5        1.0  0.5536200000000001  0.11473000000000008  0.79905  1.0000
  H   H6        1.0  0.5846800000000002  0.11482000000000009  0.9148600000000001  1.0000
  H   H7        1.0  0.44644000000000006  0.24551000000000006  0.56115  1.0000
  H   H8        1.0  0.41545  0.33032  0.53026  1.0000
  H   H9        1.0  0.24490000000000003  0.56121  0.4469000000000001  1.0000
  H   H10       1.0  0.32982  0.53041  0.41532  1.0000
  H   H11       1.0  0.11442  0.79824  0.55323  1.0000
  H   H12       1.0  0.11494000000000001  0.9146  0.58469  1.0000
  H   H13       1.0  0.75512  0.20198  0.31638  1.0000
  H   H14       1.0  0.67019  0.08547999999999999  0.20049  1.0000
  H   H15       1.0  0.8855  0.43867  0.68362  1.0000
  H   H16       1.0  0.8848  0.46948  0.79939  1.0000
  H   H17       1.0  0.79896  0.55346  0.11451000000000001  1.0000
  H   H18       1.0  0.9148900000000001  0.58474  0.11487  1.0000
  H   H19       1.0  0.56112  0.44647  0.24556  1.0000
  H   H20       1.0  0.53006  0.41521000000000013  0.33016  1.0000
  H   H21       1.0  0.43888000000000016  0.6844200000000003  0.88529  1.0000
  H   H22       1.0  0.46975  0.8  0.88501  1.0000
  H   H23       1.0  0.20113999999999999  0.31571000000000005  0.75454  1.0000
  H   H24       1.0  0.08518999999999999  0.2001  0.66986  1.0000
  H   H25       1.0  0.6836500000000001  0.79805  0.2449  1.0000
  H   H26       1.0  0.7995499999999999  0.9145300000000002  0.32981  1.0000
  H   H27       1.0  0.31588  0.56114  0.11466000000000001  1.0000
  H   H28       1.0  0.20032000000000005  0.5302800000000001  0.11501  1.0000
  H   H29       1.0  0.55365  0.43891  0.75457  1.0000
  H   H30       1.0  0.58493  0.46973  0.66978  1.0000
  H   H31       1.0  0.44682999999999995  0.20182999999999995  0.8855399999999999  1.0000
  H   H32       1.0  0.41528000000000004  0.08548000000000006  0.8849800000000001  1.0000
  H   H33       1.0  0.2455600000000001  0.6844100000000002  0.79896  1.0000
  H   H34       1.0  0.33034000000000013  0.80008  0.915  1.0000
  H   H35       1.0  0.11472  0.31553000000000003  0.56117  1.0000
  H   H36       1.0  0.11502000000000001  0.19990000000000005  0.5303  1.0000
  H   H37       1.0  0.7543  0.55348  0.43892  1.0000
  H   H38       1.0  0.66967  0.58455  0.46991999999999995  1.0000
  H   H39       1.0  0.8857100000000001  0.4469300000000001  0.20197  1.0000
  H   H40       1.0  0.88514  0.41555000000000003  0.08564  1.0000
  H   H41       1.0  0.7991199999999999  0.24562000000000003  0.68457  1.0000
  H   H42       1.0  0.9151400000000001  0.33032  0.80027  1.0000
  H   H43       1.0  0.56124  0.11484000000000001  0.31593  1.0000
  H   H44       1.0  0.53034  0.11506  0.20028  1.0000
  H   H45       1.0  0.43871  0.755  0.55316  1.0000
  H   H46       1.0  0.46981  0.67014  0.58464  1.0000
  H   H47       1.0  0.20108999999999996  0.88529  0.44643000000000005  1.0000
  H   H48       1.0  0.08527000000000007  0.8852000000000001  0.41539  1.0000
  H   H49       1.0  0.31642  0.11449999999999996  0.56134  1.0000
  H   H50       1.0  0.20063000000000003  0.11514  0.53055  1.0000
  H   H51       1.0  0.68458  0.24565999999999996  0.79907  1.0000
  H   H52       1.0  0.8002400000000001  0.33041000000000004  0.91511  1.0000
  H   H53       1.0  0.4469100000000001  0.8857100000000001  0.20189  1.0000
  H   H54       1.0  0.41552  0.88511  0.08555  1.0000
  H   H55       1.0  0.55333  0.75469  0.43876  1.0000
  H   H56       1.0  0.58459  0.6699100000000001  0.46958  1.0000
  H   H57       1.0  0.7549800000000001  0.4387400000000001  0.5531  1.0000
  H   H58       1.0  0.67024  0.46970000000000006  0.58472  1.0000
  H   H59       1.0  0.88554  0.20096000000000003  0.4465  1.0000
  H   H60       1.0  0.88519  0.08505000000000001  0.41526  1.0000
  H   H61       1.0  0.24554000000000004  0.7989700000000001  0.68451  1.0000
  H   H62       1.0  0.33025000000000004  0.9150000000000003  0.80017  1.0000
  H   H63       1.0  0.11478  0.56119  0.31595  1.0000
  H   H64       1.0  0.11502000000000001  0.53031  0.20031  1.0000
  H   H65       1.0  0.20182000000000003  0.4468300000000001  0.88557  1.0000
  H   H66       1.0  0.08551000000000002  0.41534  0.88508  1.0000
  H   H67       1.0  0.43898  0.55381  0.75424  1.0000
  H   H68       1.0  0.47012  0.58483  0.66949  1.0000
  H   H69       1.0  0.56118  0.3159199999999999  0.11468  1.0000
  H   H70       1.0  0.5302800000000002  0.20032000000000003  0.11499000000000001  1.0000
  H   H71       1.0  0.79884  0.68412  0.24528999999999998  1.0000
  H   H72       1.0  0.9147700000000001  0.79992  0.33006  1.0000
  H   H73       1.0  0.3157000000000001  0.20114000000000015  0.75455  1.0000
  H   H74       1.0  0.20004999999999998  0.08515999999999999  0.66991  1.0000
  H   H75       1.0  0.68443  0.43891  0.88525  1.0000
  H   H76       1.0  0.80003  0.46979  0.88499  1.0000
  H   H77       1.0  0.44646  0.56111  0.24557999999999996  1.0000
  H   H78       1.0  0.41516  0.53002  0.33015  1.0000
  H   H79       1.0  0.55351  0.79901  0.11451000000000001  1.0000
  H   H80       1.0  0.5847700000000002  0.9149000000000003  0.11488000000000001  1.0000
  H   H81       1.0  0.75462  0.31581999999999993  0.20115  1.0000
  H   H82       1.0  0.66989  0.19999000000000003  0.08521  1.0000
  H   H83       1.0  0.88532  0.6842100000000001  0.43884  1.0000
  H   H84       1.0  0.8850200000000001  0.79984  0.46971  1.0000
  H   H85       1.0  0.24551  0.44637  0.56115  1.0000
  H   H86       1.0  0.33038  0.41545000000000004  0.53024  1.0000
  H   H87       1.0  0.11467  0.55352  0.79893  1.0000
  H   H88       1.0  0.11475000000000003  0.58459  0.91475  1.0000
  H   H89       1.0  0.20199  0.75505  0.31636  1.0000
  H   H90       1.0  0.08546000000000002  0.6701700000000002  0.20051  1.0000
  H   H91       1.0  0.43870000000000003  0.88554  0.68368  1.0000
  H   H92       1.0  0.46952000000000005  0.88486  0.79944  1.0000
  H   H93       1.0  0.56128  0.24497000000000005  0.44688000000000005  1.0000
  H   H94       1.0  0.53043  0.32987  0.41535  1.0000
  H   H95       1.0  0.79822  0.11447000000000002  0.55322  1.0000
  H   H96       1.0  0.91455  0.11498999999999998  0.58459  1.0000
  C   C1        1.0  0.73494  0.9350900000000001  0.47012  1.0000
  C   C2        1.0  0.79927  0.93517  0.4877  1.0000
  C   C3        1.0  0.26498  0.73508  0.20004  1.0000
  C   C4        1.0  0.20054  0.68834  0.13583  1.0000
  C   C5        1.0  0.53508  0.06493999999999998  0.79998  1.0000
  C   C6        1.0  0.55252  0.0647100000000001  0.86414  1.0000
  C   C7        1.0  0.46493000000000007  0.26491  0.52984  1.0000
  C   C8        1.0  0.4475  0.31168  0.51221  1.0000
  C   C9        1.0  0.26457  0.52992  0.46517  1.0000
  C   C10       1.0  0.31125  0.51256  0.44749000000000005  1.0000
  C   C11       1.0  0.06479999999999997  0.79952  0.53486  1.0000
  C   C12       1.0  0.0649600000000001  0.86379  0.55246  1.0000
  C   C13       1.0  0.7354200000000001  0.20062  0.26544  1.0000
  C   C14       1.0  0.6887599999999999  0.13628999999999997  0.20134  1.0000
  C   C15       1.0  0.9351  0.46996  0.73456  1.0000
  C   C16       1.0  0.9348099999999998  0.48733999999999994  0.79862  1.0000
  C   C17       1.0  0.7999899999999999  0.53501  0.06474  1.0000
  C   C18       1.0  0.86422  0.55256  0.06473  1.0000
  C   C19       1.0  0.52977  0.46495  0.26498  1.0000
  C   C20       1.0  0.51216  0.44739000000000007  0.31164  1.0000
  C   C21       1.0  0.47020000000000006  0.7351900000000002  0.9351000000000002  1.0000
  C   C22       1.0  0.4877600000000001  0.7994800000000001  0.93514  1.0000
  C   C23       1.0  0.20010999999999998  0.26491  0.73509  1.0000
  C   C24       1.0  0.13583  0.2006  0.68838  1.0000
  C   C25       1.0  0.73458  0.7994000000000002  0.26461  1.0000
  C   C26       1.0  0.7987000000000002  0.8637100000000001  0.31126  1.0000
  C   C27       1.0  0.2651  0.5299  0.0649  1.0000
  C   C28       1.0  0.20078  0.51231  0.06485  1.0000
  C   C29       1.0  0.53515  0.47018000000000004  0.735  1.0000
  C   C30       1.0  0.55273  0.48763  0.6883  1.0000
  C   C31       1.0  0.46519  0.20057  0.93516  1.0000
  C   C32       1.0  0.44754000000000005  0.13628000000000007  0.93499  1.0000
  C   C33       1.0  0.26501  0.7352199999999999  0.80004  1.0000
  C   C34       1.0  0.31175  0.79952  0.86434  1.0000
  C   C35       1.0  0.06493  0.26475  0.5298  1.0000
  C   C36       1.0  0.06491000000000002  0.20046000000000003  0.51224  1.0000
  C   C37       1.0  0.73497  0.53502  0.4702700000000001  1.0000
  C   C38       1.0  0.68824  0.55249  0.48796  1.0000
  C   C39       1.0  0.9353300000000002  0.46524000000000004  0.20071  1.0000
  C   C40       1.0  0.9351400000000001  0.44765  0.13642  1.0000
  C   C41       1.0  0.8001900000000001  0.26511  0.73537  1.0000
  C   C42       1.0  0.86445  0.3118  0.79966  1.0000
  C   C43       1.0  0.52994  0.06506  0.26516  1.0000
  C   C44       1.0  0.51234  0.06493  0.20081  1.0000
  C   C45       1.0  0.47  0.7354100000000001  0.53482  1.0000
  C   C46       1.0  0.48750000000000004  0.68877  0.55243  1.0000
  C   C47       1.0  0.20018  0.9351100000000002  0.46497000000000005  1.0000
  C   C48       1.0  0.13599000000000003  0.9352900000000001  0.44753  1.0000
  C   C49       1.0  0.26549000000000006  0.06488000000000001  0.53003  1.0000
  C   C50       1.0  0.20141000000000003  0.06514000000000002  0.51265  1.0000
  C   C51       1.0  0.7353899999999998  0.2651300000000001  0.80016  1.0000
  C   C52       1.0  0.79966  0.31183  0.8644399999999999  1.0000
  C   C53       1.0  0.46523000000000003  0.9353400000000001  0.20064  1.0000
  C   C54       1.0  0.44762  0.93512  0.13634  1.0000
  C   C55       1.0  0.5349600000000001  0.7352000000000001  0.47007000000000004  1.0000
  C   C56       1.0  0.55251  0.6885000000000002  0.48762  1.0000
  C   C57       1.0  0.7353600000000001  0.4700400000000001  0.53484  1.0000
  C   C58       1.0  0.68873  0.48749  0.55252  1.0000
  C   C59       1.0  0.9353000000000001  0.19994000000000006  0.46495000000000003  1.0000
  C   C60       1.0  0.9353199999999998  0.13571  0.44742  1.0000
  C   C61       1.0  0.26504999999999995  0.80007  0.73532  1.0000
  C   C62       1.0  0.3117400000000001  0.8643200000000001  0.7996  1.0000
  C   C63       1.0  0.06501  0.52992  0.26519  1.0000
  C   C64       1.0  0.06489999999999997  0.51233  0.20085  1.0000
  C   C65       1.0  0.20058000000000004  0.46519000000000005  0.9352  1.0000
  C   C66       1.0  0.13631  0.44758  0.93507  1.0000
  C   C67       1.0  0.47029  0.5352  0.73481  1.0000
  C   C68       1.0  0.48796  0.55263  0.68809  1.0000
  C   C69       1.0  0.52993  0.26511  0.06491  1.0000
  C   C70       1.0  0.51231  0.20078000000000001  0.06483  1.0000
  C   C71       1.0  0.79985  0.7349100000000002  0.26485  1.0000
  C   C72       1.0  0.8640800000000001  0.79932  0.31159  1.0000
  C   C73       1.0  0.26491  0.20011  0.73509  1.0000
  C   C74       1.0  0.20061  0.13584  0.68841  1.0000
  C   C75       1.0  0.73519  0.4702100000000001  0.93507  1.0000
  C   C76       1.0  0.79949  0.48778  0.93511  1.0000
  C   C77       1.0  0.46493000000000007  0.52978  0.265  1.0000
  C   C78       1.0  0.44736  0.51215  0.31165  1.0000
  C   C79       1.0  0.53503  0.8  0.06474  1.0000
  C   C80       1.0  0.55257  0.86424  0.06473  1.0000
  C   C81       1.0  0.73513  0.26504  0.20015  1.0000
  C   C82       1.0  0.6884  0.20062  0.13591  1.0000
  C   C83       1.0  0.9350899999999999  0.73499  0.47012  1.0000
  C   C84       1.0  0.93517  0.7993400000000002  0.4877  1.0000
  C   C85       1.0  0.26491999999999993  0.4648900000000001  0.52985  1.0000
  C   C86       1.0  0.31170000000000003  0.44749000000000005  0.51221  1.0000
  C   C87       1.0  0.06486000000000001  0.53501  0.79985  1.0000
  C   C88       1.0  0.06465000000000005  0.5524500000000001  0.8640300000000001  1.0000
  C   C89       1.0  0.2006  0.73538  0.2654  1.0000
  C   C90       1.0  0.13625  0.6887300000000001  0.20132  1.0000
  C   C91       1.0  0.47  0.9351600000000002  0.73461  1.0000
  C   C92       1.0  0.4873700000000001  0.9348600000000002  0.79866  1.0000
  C   C93       1.0  0.5299700000000002  0.2645800000000001  0.4651600000000001  1.0000
  C   C94       1.0  0.51258  0.31127000000000005  0.44750000000000006  1.0000
  C   C95       1.0  0.79948  0.06484  0.53487  1.0000
  C   C96       1.0  0.8637500000000001  0.06500000000000006  0.55246  1.0000
  C   C97       1.0  0.73451  0.99987  0.49397  1.0000
  C   C98       1.0  0.6658500000000002  0.9997  0.4781000000000001  1.0000
  C   C99       1.0  0.86438  0.0002600000000000019  0.52977  1.0000
  C   C100      1.0  0.9329  0.002069999999999991  0.55231  1.0000
  C   C101      1.0  0.26551  0.7593200000000001  0.26529  1.0000
  C   C102      1.0  0.3342  0.81221  0.33382  1.0000
  C   C103      1.0  0.13545000000000004  0.66536  0.13583  1.0000
  C   C104      1.0  0.06673  0.61929  0.06917  1.0000
  C   C105      1.0  0.49413  0.00018999999999999977  0.73473  1.0000
  C   C106      1.0  0.4784  0.000400000000000006  0.66624  1.0000
  C   C107      1.0  0.5294600000000003  0.9996200000000001  0.8640900000000001  1.0000
  C   C108      1.0  0.55026  0.9979300000000001  0.93085  1.0000
  C   C109      1.0  0.50586  0.24059  0.50606  1.0000
  C   C110      1.0  0.52155  0.18779  0.522  1.0000
  C   C111      1.0  0.47052999999999995  0.33465  0.47015  1.0000
  C   C112      1.0  0.44980000000000003  0.38063  0.44757  1.0000
  C   C113      1.0  0.24057000000000003  0.5058000000000001  0.50606  1.0000
  C   C114      1.0  0.18774000000000005  0.5215000000000001  0.52193  1.0000
  C   C115      1.0  0.33467  0.47053  0.47015  1.0000
  C   C116      1.0  0.38066000000000005  0.44983  0.44753  1.0000
  C   C117      1.0  0.9998400000000001  0.73454  0.49394  1.0000
  C   C118      1.0  0.9997300000000001  0.66588  0.47809000000000007  1.0000
  C   C119      1.0  0.00024000000000005357  0.8644900000000002  0.5298  1.0000
  C   C120      1.0  0.0022300000000000583  0.9331400000000001  0.55243  1.0000
  C   C121      1.0  0.7593800000000002  0.26555  0.26537  1.0000
  C   C122      1.0  0.8123  0.33422  0.33392  1.0000
  C   C123      1.0  0.66539  0.13552000000000003  0.13588  1.0000
  C   C124      1.0  0.61931  0.06682000000000002  0.0692  1.0000
  C   C125      1.0  0.00010000000000002878  0.49404  0.73462  1.0000
  C   C126      1.0  0.0001299999999999967  0.47831  0.66604  1.0000
  C   C127      1.0  0.9995800000000001  0.5294300000000001  0.8640100000000001  1.0000
  C   C128      1.0  0.9979499999999998  0.55024  0.93081  1.0000
  C   C129      1.0  0.73484  0.4940800000000001  0.99989  1.0000
  C   C130      1.0  0.66622  0.47810000000000014  0.99982  1.0000
  C   C131      1.0  0.8649600000000001  0.52994  0.99996  1.0000
  C   C132      1.0  0.9332700000000002  0.55199  0.00033  1.0000
  C   C133      1.0  0.50595  0.50597  0.24084999999999998  1.0000
  C   C134      1.0  0.52196  0.52205  0.1883  1.0000
  C   C135      1.0  0.47  0.47000000000000003  0.33497  1.0000
  C   C136      1.0  0.44817000000000007  0.44820000000000004  0.38128  1.0000
  C   C137      1.0  0.49408000000000013  0.73483  0.99991  1.0000
  C   C138      1.0  0.47811  0.66621  0.99985  1.0000
  C   C139      1.0  0.52993  0.8649800000000001  0.99997  1.0000
  C   C140      1.0  0.5519300000000003  0.9332600000000002  0.00028  1.0000
  C   C141      1.0  0.26529  0.2653  0.75929  1.0000
  C   C142      1.0  0.33393  0.3339  0.81203  1.0000
  C   C143      1.0  0.13509  0.13508  0.66505  1.0000
  C   C144      1.0  0.06698  0.06683  0.61869  1.0000
  C   C145      1.0  0.7346600000000001  0.73447  0.24067  1.0000
  C   C146      1.0  0.6661  0.6658200000000001  0.18781  1.0000
  C   C147      1.0  0.8641300000000001  0.8644300000000001  0.33462  1.0000
  C   C148      1.0  0.93083  0.9331000000000002  0.38068  1.0000
  C   C149      1.0  0.26555  0.50612  0.00017  1.0000
  C   C150      1.0  0.33429  0.52204  0.00037  1.0000
  C   C151      1.0  0.13564000000000004  0.4702400000000001  0.9998  1.0000
  C   C152      1.0  0.06707000000000002  0.4477  0.99794  1.0000
  C   C153      1.0  0.49420000000000003  0.49426000000000003  0.75905  1.0000
  C   C154      1.0  0.47826  0.47838000000000014  0.81169  1.0000
  C   C155      1.0  0.53011  0.5298  0.66493  1.0000
  C   C156      1.0  0.55244  0.55118  0.61868  1.0000
  C   C157      1.0  0.50616  0.26554  0.00016  1.0000
  C   C158      1.0  0.52205  0.33425000000000005  0.00035  1.0000
  C   C159      1.0  0.47022000000000014  0.13563000000000006  0.9997300000000001  1.0000
  C   C160      1.0  0.4476700000000001  0.06705000000000012  0.99787  1.0000
  C   C161      1.0  0.24080000000000004  0.7348700000000001  0.73489  1.0000
  C   C162      1.0  0.18807  0.66637  0.66619  1.0000
  C   C163      1.0  0.33509000000000005  0.8650400000000001  0.86509  1.0000
  C   C164      1.0  0.38143  0.9332500000000001  0.9332  1.0000
  C   C165      1.0  0.0001100000000000181  0.26511  0.5059  1.0000
  C   C166      1.0  0.00010000000000002878  0.33369  0.52188  1.0000
  C   C167      1.0  8.000000000005985e-05  0.1349700000000001  0.47007000000000004  1.0000
  C   C168      1.0  0.9998000000000001  0.06670000000000001  0.44809000000000004  1.0000
  C   C169      1.0  0.75931  0.49402  0.49388000000000004  1.0000
  C   C170      1.0  0.812  0.47816000000000003  0.47785  1.0000
  C   C171      1.0  0.66526  0.52958  0.53005  1.0000
  C   C172      1.0  0.61919  0.55002  0.55287  1.0000
  C   C173      1.0  0.0003000000000000088  0.50611  0.26569  1.0000
  C   C174      1.0  0.00046999999999998215  0.52209  0.33441  1.0000
  C   C175      1.0  0.9998500000000001  0.4702900000000001  0.13572  1.0000
  C   C176      1.0  0.99802  0.44774  0.06718  1.0000
  C   C177      1.0  0.7350300000000001  0.24089000000000005  0.735  1.0000
  C   C178      1.0  0.66642  0.18825  0.66645  1.0000
  C   C179      1.0  0.8651500000000001  0.33515  0.86515  1.0000
  C   C180      1.0  0.9333200000000001  0.38146000000000013  0.9332800000000001  1.0000
  C   C181      1.0  0.50612  0.0003200000000000007  0.26563  1.0000
  C   C182      1.0  0.52202  0.0004200000000000125  0.33429  1.0000
  C   C183      1.0  0.47029  0.99986  0.13568  1.0000
  C   C184      1.0  0.44773000000000013  0.9980300000000001  0.06713  1.0000
  C   C185      1.0  0.4939600000000001  0.7593700000000001  0.49384  1.0000
  C   C186      1.0  0.47815  0.8121300000000001  0.47794  1.0000
  C   C187      1.0  0.52955  0.66554  0.52969  1.0000
  C   C188      1.0  0.55045  0.61959  0.55189  1.0000
  C   C189      1.0  0.2654099999999999  0.99986  0.50589  1.0000
  C   C190      1.0  0.33396000000000003  0.9997300000000001  0.52169  1.0000
  C   C191      1.0  0.136  0.00037999999999999953  0.47058  1.0000
  C   C192      1.0  0.06921000000000005  0.0020700000000000323  0.44977000000000006  1.0000
  C   C193      1.0  0.0007800000000000045  0.0632  0.5954  1.0000
  C   C194      1.0  0.9992000000000001  0.5949500000000001  0.0634  1.0000
  C   C195      1.0  0.5323000000000002  0.93695  0.93778  1.0000
  C   C196      1.0  0.4679800000000001  0.40531  0.40449  1.0000
  C   C197      1.0  0.40862  0.40863  0.46109  1.0000
  C   C198      1.0  0.94732  0.94734  0.53874  1.0000
  C   C199      1.0  0.59142  0.05257  6.000000000000001e-05  1.0000
  C   C200      1.0  0.05254000000000001  0.59142  3.0000000000000004e-05  1.0000
  C   C201      1.0  0.93708  0.53241  0.9379  1.0000
  C   C202      1.0  0.40526  0.4681  0.40442  1.0000
  C   C203      1.0  0.59489  0.99924  0.06329  1.0000
  C   C204      1.0  0.06382000000000002  0.0007899999999999882  0.59558  1.0000
  C   C205      1.0  0.0  0.94744  0.40863  1.0000
  C   C206      1.0  0.9993500000000001  0.4046  0.93653  1.0000
  C   C207      1.0  0.53355  0.59386  0.59465  1.0000
  C   C208      1.0  0.4613  0.05276000000000001  0.0527  1.0000
  C   C209      1.0  0.40456000000000003  0.99931  0.93644  1.0000
  C   C210      1.0  0.9368299999999998  0.0007199999999999862  0.40515  1.0000
  C   C211      1.0  0.5955  0.53066  0.59613  1.0000
  C   C212      1.0  0.05278000000000002  0.4613300000000001  0.05279  1.0000
  C   C213      1.0  0.9367500000000001  0.4046600000000001  0.9993899999999999  1.0000
  C   C214      1.0  0.40463000000000016  0.9367300000000001  0.99933  1.0000
  C   C215      1.0  0.59152  0.59137  0.53885  1.0000
  C   C216      1.0  0.06236999999999999  0.06310999999999997  0.4677799999999999  1.0000
  O   O1        1.0  0.66888  0.06015000000000002  0.50299  1.0000
  O   O2        1.0  0.33108  0.83403  0.3912  1.0000
  O   O3        1.0  0.44286  0.93984  0.60885  1.0000
  O   O4        1.0  0.55708  0.16589  0.49707999999999997  1.0000
  O   O5        1.0  0.16630999999999996  0.49663  0.55767  1.0000
  O   O6        1.0  0.93907  0.60869  0.44239  1.0000
  O   O7        1.0  0.8338  0.39144  0.33056  1.0000
  O   O8        1.0  0.060620000000000014  0.5032300000000001  0.66925  1.0000
  O   O9        1.0  0.60887  0.44231000000000004  0.93921  1.0000
  O   O10       1.0  0.49734  0.55798  0.16686  1.0000
  O   O11       1.0  0.50291  0.66915  0.0603  1.0000
  O   O12       1.0  0.39133  0.33074000000000003  0.83366  1.0000
  O   O13       1.0  0.6695  0.6086  0.16626  1.0000
  O   O14       1.0  0.3312399999999999  0.49713999999999997  0.9399499999999998  1.0000
  O   O15       1.0  0.44247  0.50315  0.83327  1.0000
  O   O16       1.0  0.55785  0.39136  0.06116  1.0000
  O   O17       1.0  0.16669  0.66976  0.60888  1.0000
  O   O18       1.0  0.93957  0.33065  0.49704999999999994  1.0000
  O   O19       1.0  0.83379  0.44251  0.50262  1.0000
  O   O20       1.0  0.061080000000000065  0.55795  0.39165  1.0000
  O   O21       1.0  0.609  0.16665  0.66954  1.0000
  O   O22       1.0  0.4971  0.93987  0.33104  1.0000
  O   O23       1.0  0.50288  0.83365  0.44219  1.0000
  O   O24       1.0  0.39134  0.06014999999999998  0.55732  1.0000
  O   O25       1.0  0.33049  0.93902  0.49676000000000003  1.0000
  O   O26       1.0  0.66943  0.16641999999999998  0.60896  1.0000
  O   O27       1.0  0.55777  0.060980000000000006  0.39162  1.0000
  O   O28       1.0  0.44256  0.8338400000000002  0.50292  1.0000
  O   O29       1.0  0.8333900000000002  0.5029900000000002  0.44204000000000004  1.0000
  O   O30       1.0  0.06064999999999995  0.39110000000000006  0.55779  1.0000
  O   O31       1.0  0.16600000000000006  0.6087900000000002  0.66893  1.0000
  O   O32       1.0  0.9399600000000001  0.49713000000000007  0.33124  1.0000
  O   O33       1.0  0.39139000000000007  0.5578100000000001  0.06112000000000001  1.0000
  O   O34       1.0  0.50303  0.4426300000000001  0.83332  1.0000
  O   O35       1.0  0.49716000000000005  0.33126  0.9399699999999999  1.0000
  O   O36       1.0  0.6088100000000001  0.66902  0.16611  1.0000
  O   O37       1.0  0.33088000000000006  0.3913600000000001  0.8338400000000001  1.0000
  O   O38       1.0  0.66922  0.50279  0.06033000000000001  1.0000
  O   O39       1.0  0.55775  0.49729  0.16666  1.0000
  O   O40       1.0  0.44217000000000006  0.60887  0.93919  1.0000
  O   O41       1.0  0.83415  0.3310700000000001  0.39125  1.0000
  O   O42       1.0  0.06018000000000002  0.6689600000000001  0.50292  1.0000
  O   O43       1.0  0.16584  0.557  0.497  1.0000
  O   O44       1.0  0.93953  0.44267  0.60876  1.0000
  O   O45       1.0  0.39140000000000014  0.8337200000000001  0.33044  1.0000
  O   O46       1.0  0.50314  0.06095999999999998  0.66958  1.0000
  O   O47       1.0  0.49671  0.16637  0.55775  1.0000
  O   O48       1.0  0.60866  0.93903  0.44238  1.0000
