data_image0
_chemical_formula_structural       Cd6H92C112N20O28
_chemical_formula_sum              "Cd6 H92 C112 N20 O28"
_cell_length_a       10.89446
_cell_length_b       16.86418
_cell_length_c       19.38676
_cell_angle_alpha    64.64212999999998
_cell_angle_beta     73.66378
_cell_angle_gamma    71.42751

_symmetry_space_group_name_H-M    'P 1'
_symmetry_Int_Tables_number       1

loop_
  _symmetry_equiv_pos_as_xyz
  'x,y,z'

loop_
  _atom_site_type_symbol
  _atom_site_label
  _atom_site_symmetry_multiplicity
  _atom_site_fract_x
  _atom_site_fract_y
  _atom_site_fract_z
  _atom_site_occupancy
  Cd  Cd1       1.0  0.0032900000000000177  0.3864800000000001  0.5073699999999998  1.0000
  Cd  Cd2       1.0  0.8961400000000002  0.11343999999999997  0.99362  1.0000
  Cd  Cd3       1.0  0.9967  0.6135200000000001  0.49261999999999995  1.0000
  Cd  Cd4       1.0  0.10386  0.88656  0.00637  1.0000
  Cd  Cd5       1.0  0.87906  0.24986000000000005  0.74997  1.0000
  Cd  Cd6       1.0  0.12094  0.75014  0.25003  1.0000
  H   H1        1.0  0.7622499999999993  0.74842  0.6794  1.0000
  H   H2        1.0  0.57679  0.4430299999999999  0.70392  1.0000
  H   H3        1.0  0.3139299999999999  0.57888  0.78729  1.0000
  H   H4        1.0  0.3675700000000001  0.4876600000000001  0.7545799999999998  1.0000
  H   H5        1.0  0.30627000000000004  0.42758  0.89856  1.0000
  H   H6        1.0  0.47873999999999994  0.3903400000000001  0.8714199999999998  1.0000
  H   H7        1.0  0.41700999999999994  0.4802700000000001  0.9062999999999998  1.0000
  H   H8        1.0  0.49181000000000014  0.87403  0.80292  1.0000
  H   H9        1.0  0.3153300000000001  0.8956  0.82784  1.0000
  H   H10       1.0  0.38926  0.9327499999999999  0.9141599999999999  1.0000
  H   H11       1.0  0.51091  0.8284799999999999  0.93796  1.0000
  H   H12       1.0  0.44761  0.6913  0.0085  1.0000
  H   H13       1.0  0.2774900000000001  0.6906899999999999  0.04894  1.0000
  H   H14       1.0  0.22627  0.7387300000000001  0.92016  1.0000
  H   H15       1.0  0.3587699999999999  0.6400199999999999  0.93318  1.0000
  H   H16       1.0  0.57251  0.94281  0.54902  1.0000
  H   H17       1.0  0.743  0.8496900000000001  0.48046999999999995  1.0000
  H   H18       1.0  0.4816599999999998  0.6822000000000001  0.53158  1.0000
  H   H19       1.0  0.30727999999999983  0.7747600000000002  0.6019499999999998  1.0000
  H   H20       1.0  0.45903000000000044  0.9387899999999997  0.6708699999999997  1.0000
  H   H21       1.0  0.29048  0.05205999999999997  0.72122  1.0000
  H   H22       1.0  0.004459999999999964  0.04081000000000003  0.61531  1.0000
  H   H23       1.0  0.17068000000000003  0.9289200000000001  0.5641299999999999  1.0000
  H   H24       1.0  0.19008000000000008  0.7533400000000001  0.8203299999999998  1.0000
  H   H25       1.0  0.7262799999999999  0.056779999999999976  0.7961  1.0000
  H   H26       1.0  0.6829500000000001  0.91941  0.71284  1.0000
  H   H27       1.0  0.6113800000000001  0.009799999999999953  0.74649  1.0000
  H   H28       1.0  0.63367  0.07238000000000003  0.60243  1.0000
  H   H29       1.0  0.74309  0.10893000000000001  0.62959  1.0000
  H   H30       1.0  0.80408  0.01965  0.59382  1.0000
  H   H31       1.0  0.16758  0.62542  0.69723  1.0000
  H   H32       1.0  0.03745000000000008  0.6042999999999998  0.67182  1.0000
  H   H33       1.0  0.23428000000000007  0.56742  0.58566  1.0000
  H   H34       1.0  0.27689999999999987  0.67172  0.5619  1.0000
  H   H35       1.0  0.14825999999999992  0.80889  0.49187  1.0000
  H   H36       1.0  0.017859999999999966  0.80943  0.45156  1.0000
  H   H37       1.0  0.8862499999999998  0.7602300000000001  0.5803999999999998  1.0000
  H   H38       1.0  0.93304  0.8594  0.56757  1.0000
  H   H39       1.0  0.06264999999999996  0.55732  0.95236  1.0000
  H   H40       1.0  0.07098000000000002  0.65055  0.0214  1.0000
  H   H41       1.0  0.6960400000000001  0.8175  0.9695699999999999  1.0000
  H   H42       1.0  0.6837499999999999  0.7241100000000001  0.89957  1.0000
  H   H43       1.0  0.06778000000000016  0.56207  0.8305099999999999  1.0000
  H   H44       1.0  0.0632  0.44936  0.7791699999999999  1.0000
  H   H45       1.0  0.659  0.46043000000000006  0.88283  1.0000
  H   H46       1.0  0.66192  0.5723000000000001  0.9346299999999998  1.0000
  H   H47       1.0  0.23773999999999984  0.25158  0.32059  1.0000
  H   H48       1.0  0.42321000000000025  0.55698  0.29608  1.0000
  H   H49       1.0  0.6860699999999997  0.42112  0.2127  1.0000
  H   H50       1.0  0.6324299999999998  0.51234  0.24542  1.0000
  H   H51       1.0  0.69373  0.57243  0.10143999999999997  1.0000
  H   H52       1.0  0.5212500000000004  0.60966  0.12857999999999994  1.0000
  H   H53       1.0  0.58299  0.51973  0.0937  1.0000
  H   H54       1.0  0.50819  0.12598000000000004  0.19707  1.0000
  H   H55       1.0  0.68467  0.10441  0.17215  1.0000
  H   H56       1.0  0.61073  0.06724999999999999  0.08584  1.0000
  H   H57       1.0  0.48909  0.17153  0.06203999999999999  1.0000
  H   H58       1.0  0.5523899999999999  0.30870000000000003  0.9914999999999999  1.0000
  H   H59       1.0  0.7224999999999999  0.3093200000000001  0.9510599999999999  1.0000
  H   H60       1.0  0.7737199999999999  0.26127  0.07984  1.0000
  H   H61       1.0  0.64123  0.35999  0.06681  1.0000
  H   H62       1.0  0.4274899999999999  0.057200000000000015  0.45098  1.0000
  H   H63       1.0  0.25700000000000006  0.15031000000000008  0.5195299999999998  1.0000
  H   H64       1.0  0.51834  0.31781  0.46841999999999995  1.0000
  H   H65       1.0  0.6927200000000001  0.22524999999999998  0.39805  1.0000
  H   H66       1.0  0.54097  0.061210000000000014  0.32912  1.0000
  H   H67       1.0  0.7095099999999999  0.94794  0.27877  1.0000
  H   H68       1.0  0.9955399999999999  0.95919  0.38468999999999987  1.0000
  H   H69       1.0  0.8293199999999998  0.07108000000000007  0.43586999999999987  1.0000
  H   H70       1.0  0.8099200000000001  0.24665999999999993  0.17966999999999994  1.0000
  H   H71       1.0  0.27371000000000006  0.9432299999999999  0.20389  1.0000
  H   H72       1.0  0.31705000000000005  0.08059000000000002  0.28714999999999996  1.0000
  H   H73       1.0  0.38862  0.9901999999999999  0.25351  1.0000
  H   H74       1.0  0.36633  0.92763  0.39757  1.0000
  H   H75       1.0  0.2569000000000001  0.89108  0.3703999999999999  1.0000
  H   H76       1.0  0.19591  0.9803499999999999  0.40617  1.0000
  H   H77       1.0  0.83242  0.3745899999999999  0.30277  1.0000
  H   H78       1.0  0.96255  0.39570000000000005  0.32818  1.0000
  H   H79       1.0  0.7657199999999997  0.43259000000000003  0.41433  1.0000
  H   H80       1.0  0.7231  0.32829  0.4381  1.0000
  H   H81       1.0  0.85173  0.19112  0.50813  1.0000
  H   H82       1.0  0.98214  0.19058000000000003  0.54844  1.0000
  H   H83       1.0  0.11374000000000002  0.23976999999999998  0.4195899999999999  1.0000
  H   H84       1.0  0.06696000000000005  0.14060999999999998  0.43242  1.0000
  H   H85       1.0  0.93735  0.44269  0.04763999999999999  1.0000
  H   H86       1.0  0.92901  0.34945  0.9786  1.0000
  H   H87       1.0  0.30396  0.1825  0.03043  1.0000
  H   H88       1.0  0.31625  0.2759  0.10041999999999998  1.0000
  H   H89       1.0  0.93222  0.43794000000000005  0.16948  1.0000
  H   H90       1.0  0.93679  0.55065  0.22082999999999994  1.0000
  H   H91       1.0  0.34099  0.53957  0.11716  1.0000
  H   H92       1.0  0.33807999999999994  0.42771  0.06537  1.0000
  C   C1        1.0  0.80857  0.45910999999999996  0.62052  1.0000
  C   C2        1.0  0.72122  0.52124  0.66021  1.0000
  C   C3        1.0  0.75549  0.59839  0.65863  1.0000
  C   C4        1.0  0.6605100000000002  0.64431  0.7078599999999998  1.0000
  C   C5        1.0  0.6777399999999999  0.72019  0.71393  1.0000
  C   C6        1.0  0.4938100000000002  0.72263  0.80602  1.0000
  C   C7        1.0  0.54515  0.61556  0.75371  1.0000
  C   C8        1.0  0.6035600000000001  0.50025  0.70322  1.0000
  C   C9        1.0  0.3899999999999998  0.5174200000000001  0.7886899999999999  1.0000
  C   C10       1.0  0.3988800000000002  0.4497800000000001  0.8712999999999997  1.0000
  C   C11       1.0  0.40834000000000004  0.85266  0.84688  1.0000
  C   C12       1.0  0.41095  0.8609000000000002  0.9239899999999998  1.0000
  C   C13       1.0  0.3453799999999999  0.7238200000000001  0.99861  1.0000
  C   C14       1.0  0.33019000000000004  0.7111900000000001  0.9257999999999997  1.0000
  C   C15       1.0  0.5524  0.88527  0.54606  1.0000
  C   C16       1.0  0.6473300000000001  0.8341299999999999  0.50723  1.0000
  C   C17       1.0  0.6213099999999998  0.76149  0.50111  1.0000
  C   C18       1.0  0.4981099999999998  0.74054  0.53531  1.0000
  C   C19       1.0  0.40188000000000007  0.7922799999999999  0.57362  1.0000
  C   C20       1.0  0.4274899999999999  0.86615  0.57875  1.0000
  C   C21       1.0  0.32625999999999994  0.92632  0.61396  1.0000
  C   C22       1.0  0.35944000000000004  0.96147  0.65855  1.0000
  C   C23       1.0  0.26696000000000003  0.02386000000000001  0.6867699999999999  1.0000
  C   C24       1.0  0.13883000000000004  0.0535600000000001  0.6705499999999998  1.0000
  C   C25       1.0  0.10427999999999998  0.018110000000000005  0.62708  1.0000
  C   C26       1.0  0.19668000000000002  0.9548100000000002  0.59947  1.0000
  C   C27       1.0  0.7293300000000001  0.7018  0.46495  1.0000
  C   C28       1.0  0.04410000000000004  0.12315000000000002  0.6993199999999999  1.0000
  C   C29       1.0  0.88731  0.040060000000000075  0.8809399999999997  1.0000
  C   C30       1.0  0.90282  0.97824  0.84064  1.0000
  C   C31       1.0  0.012709999999999933  0.90199  0.8416  1.0000
  C   C32       1.0  0.013160000000000152  0.8560900000000001  0.7922099999999997  1.0000
  C   C33       1.0  0.11204999999999993  0.7804900000000001  0.7861099999999998  1.0000
  C   C34       1.0  0.022790000000000095  0.7768999999999999  0.69456  1.0000
  C   C35       1.0  0.9151499999999997  0.88405  0.74669  1.0000
  C   C36       1.0  0.8083900000000002  0.9992799999999998  0.79709  1.0000
  C   C37       1.0  0.69782  0.9813  0.7117899999999998  1.0000
  C   C38       1.0  0.7213800000000001  0.04976000000000012  0.6293699999999998  1.0000
  C   C39       1.0  0.10714999999999997  0.6471600000000001  0.65316  1.0000
  C   C40       1.0  0.1949700000000001  0.6392300000000002  0.5758999999999997  1.0000
  C   C41       1.0  0.06840000000000004  0.7762200000000001  0.5017199999999999  1.0000
  C   C42       1.0  0.9680200000000001  0.78833  0.57476  1.0000
  C   C43       1.0  0.9824600000000007  0.61474  0.9551599999999999  1.0000
  C   C44       1.0  0.9873699999999997  0.6659000000000002  0.99416  1.0000
  C   C45       1.0  0.88335  0.73849  0.9998799999999999  1.0000
  C   C46       1.0  0.77379  0.75922  0.96575  1.0000
  C   C47       1.0  0.76741  0.70729  0.9275599999999999  1.0000
  C   C48       1.0  0.8716399999999992  0.63389  0.92222  1.0000
  C   C49       1.0  0.8654099999999997  0.5743099999999999  0.88637  1.0000
  C   C50       1.0  0.97847  0.53947  0.84204  1.0000
  C   C51       1.0  0.9766  0.47748999999999997  0.81317  1.0000
  C   C52       1.0  0.8618299999999998  0.44784000000000007  0.8285099999999997  1.0000
  C   C53       1.0  0.7480100000000002  0.48316  0.87165  1.0000
  C   C54       1.0  0.7494799999999999  0.54623  0.89977  1.0000
  C   C55       1.0  0.8948199999999998  0.79835  0.03619  1.0000
  C   C56       1.0  0.86594  0.37833  0.79927  1.0000
  C   C57       1.0  0.19143000000000002  0.5409  0.37947999999999993  1.0000
  C   C58       1.0  0.27878  0.47877000000000003  0.33979  1.0000
  C   C59       1.0  0.24451  0.40161  0.34136  1.0000
  C   C60       1.0  0.3394899999999999  0.3557  0.29214  1.0000
  C   C61       1.0  0.32225  0.27981  0.28607  1.0000
  C   C62       1.0  0.5061899999999998  0.27738  0.19398  1.0000
  C   C63       1.0  0.4548499999999999  0.38445000000000007  0.24628  1.0000
  C   C64       1.0  0.39643000000000006  0.4997500000000001  0.29677  1.0000
  C   C65       1.0  0.6099999999999999  0.48259  0.2113  1.0000
  C   C66       1.0  0.60112  0.55022  0.1287  1.0000
  C   C67       1.0  0.59165  0.14734  0.15312  1.0000
  C   C68       1.0  0.58905  0.13911  0.07601  1.0000
  C   C69       1.0  0.65462  0.27618  0.00139  1.0000
  C   C70       1.0  0.66981  0.28881  0.07419999999999999  1.0000
  C   C71       1.0  0.4476  0.11474000000000001  0.45394  1.0000
  C   C72       1.0  0.35267  0.16587000000000002  0.49277  1.0000
  C   C73       1.0  0.37868000000000007  0.23851000000000003  0.49887999999999993  1.0000
  C   C74       1.0  0.50188  0.25947  0.46468  1.0000
  C   C75       1.0  0.5981099999999998  0.20773000000000003  0.42637  1.0000
  C   C76       1.0  0.57251  0.13386  0.42125  1.0000
  C   C77       1.0  0.6737400000000001  0.07369000000000005  0.3860399999999999  1.0000
  C   C78       1.0  0.64056  0.03854000000000004  0.34144999999999986  1.0000
  C   C79       1.0  0.73304  0.9761499999999999  0.31323  1.0000
  C   C80       1.0  0.8611699999999999  0.9464399999999998  0.32944  1.0000
  C   C81       1.0  0.8957200000000002  0.9819  0.37292  1.0000
  C   C82       1.0  0.8033200000000001  0.045190000000000057  0.4005199999999999  1.0000
  C   C83       1.0  0.2706700000000002  0.29820999999999986  0.5350499999999999  1.0000
  C   C84       1.0  0.9558899999999999  0.87686  0.30068  1.0000
  C   C85       1.0  0.11268000000000006  0.95994  0.11905999999999999  1.0000
  C   C86       1.0  0.09718  0.021759999999999995  0.15935  1.0000
  C   C87       1.0  0.98729  0.09801  0.1584  1.0000
  C   C88       1.0  0.98684  0.14392000000000002  0.20778  1.0000
  C   C89       1.0  0.88795  0.21951000000000004  0.21387999999999993  1.0000
  C   C90       1.0  0.9772  0.2231  0.30543  1.0000
  C   C91       1.0  0.08485000000000002  0.11595000000000001  0.25331  1.0000
  C   C92       1.0  0.1916  0.0007299999999999955  0.20291  1.0000
  C   C93       1.0  0.30218000000000006  0.018710000000000025  0.28820999999999997  1.0000
  C   C94       1.0  0.27862  0.95025  0.37062  1.0000
  C   C95       1.0  0.89285  0.35285  0.34683  1.0000
  C   C96       1.0  0.80503  0.3607699999999998  0.42409  1.0000
  C   C97       1.0  0.93159  0.22379  0.49827999999999995  1.0000
  C   C98       1.0  0.03198  0.21168  0.42524  1.0000
  C   C99       1.0  0.017539999999999986  0.38527  0.04483  1.0000
  C   C100      1.0  0.01262000000000004  0.3341099999999999  0.00584  1.0000
  C   C101      1.0  0.11664999999999998  0.26151  0.00011999999999999999  1.0000
  C   C102      1.0  0.22621  0.24078999999999992  0.03425  1.0000
  C   C103      1.0  0.23259000000000005  0.29272  0.07242999999999998  1.0000
  C   C104      1.0  0.12836  0.36612  0.07778  1.0000
  C   C105      1.0  0.13458999999999993  0.42569000000000007  0.11362  1.0000
  C   C106      1.0  0.021529999999999962  0.46054  0.15795  1.0000
  C   C107      1.0  0.02338999999999994  0.52251  0.18682  1.0000
  C   C108      1.0  0.13816999999999988  0.5521700000000002  0.17147999999999994  1.0000
  C   C109      1.0  0.2519899999999999  0.51684  0.12835  1.0000
  C   C110      1.0  0.25050999999999995  0.45377  0.10023  1.0000
  C   C111      1.0  0.10517999999999994  0.2016500000000001  0.9637999999999999  1.0000
  C   C112      1.0  0.13406000000000004  0.62168  0.20073  1.0000
  N   N1        1.0  0.3156300000000001  0.8178100000000001  0.9836799999999999  1.0000
  N   N2        1.0  0.41422999999999993  0.76037  0.8585699999999999  1.0000
  N   N3        1.0  0.5961200000000002  0.7609799999999999  0.76027  1.0000
  N   N4        1.0  0.4630799999999999  0.65249  0.80377  1.0000
  N   N5        1.0  0.51479  0.54565  0.7468499999999998  1.0000
  N   N6        1.0  0.11676999999999992  0.6823500000000001  0.51631  1.0000
  N   N7        1.0  0.03352000000000018  0.73927  0.6418399999999997  1.0000
  N   N8        1.0  0.11745999999999987  0.7392200000000001  0.74006  1.0000
  N   N9        1.0  0.9198699999999999  0.8465700000000002  0.69701  1.0000
  N   N10       1.0  0.80866  0.95385  0.75339  1.0000
  N   N11       1.0  0.68437  0.18218999999999994  0.016319999999999994  1.0000
  N   N12       1.0  0.58577  0.23963  0.14142  1.0000
  N   N13       1.0  0.40386999999999995  0.23901999999999998  0.23972999999999997  1.0000
  N   N14       1.0  0.5369200000000001  0.34750999999999993  0.19623  1.0000
  N   N15       1.0  0.48521000000000003  0.45436  0.25315  1.0000
  N   N16       1.0  0.88323  0.31766  0.48369  1.0000
  N   N17       1.0  0.9664800000000001  0.2607300000000001  0.3581499999999999  1.0000
  N   N18       1.0  0.8825399999999999  0.26078  0.25992999999999994  1.0000
  N   N19       1.0  0.08013000000000002  0.15343  0.30299  1.0000
  N   N20       1.0  0.19133  0.046160000000000014  0.24660999999999997  1.0000
  O   O1        1.0  0.7863000000000001  0.3825500000000001  0.6400499999999998  1.0000
  O   O2        1.0  0.9046799999999998  0.48579  0.5666  1.0000
  O   O3        1.0  0.8588900000000003  0.62523  0.6208099999999998  1.0000
  O   O4        1.0  0.84153  0.7260000000000001  0.4407999999999999  1.0000
  O   O5        1.0  0.7087300000000001  0.63368  0.46420999999999996  1.0000
  O   O6        1.0  0.93171  0.15948  0.6768  1.0000
  O   O7        1.0  0.07775999999999998  0.14361000000000002  0.74614  1.0000
  O   O8        1.0  0.80991  0.11687  0.86064  1.0000
  O   O9        1.0  0.9528899999999999  0.012620000000000027  0.93626  1.0000
  O   O10       1.0  0.10521000000000023  0.8760099999999995  0.87892  1.0000
  O   O11       1.0  0.005879999999999993  0.77458  0.06113  1.0000
  O   O12       1.0  0.80557  0.86633  0.03635  1.0000
  O   O13       1.0  0.7688  0.33989  0.82305  1.0000
  O   O14       1.0  0.9655299999999999  0.35983  0.75109  1.0000
  O   O15       1.0  0.21370000000000014  0.61746  0.3599499999999999  1.0000
  O   O16       1.0  0.09532000000000018  0.5142199999999998  0.4333999999999999  1.0000
  O   O17       1.0  0.1411  0.37478000000000006  0.3791899999999999  1.0000
  O   O18       1.0  0.15846999999999994  0.27401000000000003  0.5592  1.0000
  O   O19       1.0  0.29126  0.36633000000000004  0.53579  1.0000
  O   O20       1.0  0.06827999999999997  0.84052  0.3232  1.0000
  O   O21       1.0  0.9222399999999998  0.85639  0.25386  1.0000
  O   O22       1.0  0.1900900000000001  0.88313  0.13935999999999998  1.0000
  O   O23       1.0  0.047109999999999944  0.98739  0.06373  1.0000
  O   O24       1.0  0.89478  0.12400000000000001  0.12108  1.0000
  O   O25       1.0  0.99412  0.22543  0.9388599999999999  1.0000
  O   O26       1.0  0.19443000000000005  0.13367999999999997  0.96365  1.0000
  O   O27       1.0  0.23120000000000013  0.6601099999999998  0.17694  1.0000
  O   O28       1.0  0.034469999999999966  0.64018  0.24890999999999996  1.0000
