data_image0
_chemical_formula_structural       Zn24H48C144O96
_chemical_formula_sum              "Zn24 H48 C144 O96"
_cell_length_a       13.88868
_cell_length_b       13.88868
_cell_length_c       51.30944
_cell_angle_alpha    90.0
_cell_angle_beta     90.0
_cell_angle_gamma    90.0

_space_group_name_H-M_alt    "P 1"
_space_group_IT_number       1

loop_
  _space_group_symop_operation_xyz
  'x, y, z'

loop_
  _atom_site_type_symbol
  _atom_site_label
  _atom_site_symmetry_multiplicity
  _atom_site_fract_x
  _atom_site_fract_y
  _atom_site_fract_z
  _atom_site_occupancy
  Zn  Zn1       1.0  0.00586  0.58296  0.8869600000000002  1.0000
  Zn  Zn2       1.0  0.37077  0.49998  0.7547000000000001  1.0000
  Zn  Zn3       1.0  0.94099  0.6914300000000002  0.8434500000000001  1.0000
  Zn  Zn4       1.0  0.9941400000000002  0.41704000000000013  0.38696  1.0000
  Zn  Zn5       1.0  0.62923  0.50001  0.2547  1.0000
  Zn  Zn6       1.0  0.059010000000000014  0.30856  0.34345  1.0000
  Zn  Zn7       1.0  0.9170400000000002  0.50586  0.63696  1.0000
  Zn  Zn8       1.0  2e-05  0.87076  0.5047000000000001  1.0000
  Zn  Zn9       1.0  0.8085600000000002  0.44099  0.5934500000000001  1.0000
  Zn  Zn10      1.0  0.08296  0.49414000000000013  0.13696000000000003  1.0000
  Zn  Zn11      1.0  0.99998  0.12923000000000004  0.0047  1.0000
  Zn  Zn12      1.0  0.19143  0.5590100000000001  0.09345  1.0000
  Zn  Zn13      1.0  0.4941300000000001  0.08296  0.86304  1.0000
  Zn  Zn14      1.0  0.12923000000000004  0.99998  0.9953  1.0000
  Zn  Zn15      1.0  0.5590100000000001  0.19143  0.90655  1.0000
  Zn  Zn16      1.0  0.50586  0.9170400000000002  0.36304  1.0000
  Zn  Zn17      1.0  0.87076  2e-05  0.4953  1.0000
  Zn  Zn18      1.0  0.44099  0.8085600000000002  0.40655  1.0000
  Zn  Zn19      1.0  0.58296  0.00586  0.11304  1.0000
  Zn  Zn20      1.0  0.49998  0.37077  0.24530000000000005  1.0000
  Zn  Zn21      1.0  0.6914300000000002  0.9409800000000003  0.15655000000000002  1.0000
  Zn  Zn22      1.0  0.41704000000000013  0.9941400000000002  0.6130400000000001  1.0000
  Zn  Zn23      1.0  0.50001  0.62923  0.7453  1.0000
  Zn  Zn24      1.0  0.30856  0.059010000000000014  0.65655  1.0000
  H   H1        1.0  0.25773000000000007  0.84143  0.8762000000000002  1.0000
  H   H2        1.0  0.4427000000000001  0.8344600000000002  0.8087400000000002  1.0000
  H   H3        1.0  0.21403000000000005  0.62805  0.81606  1.0000
  H   H4        1.0  0.9766200000000003  0.8372300000000003  0.9345000000000002  1.0000
  H   H5        1.0  0.77552  0.06587000000000001  0.9499000000000002  1.0000
  H   H6        1.0  0.7344200000000002  0.8820100000000001  0.88312  1.0000
  H   H7        1.0  0.74227  0.15856  0.37621  1.0000
  H   H8        1.0  0.5573  0.16553000000000007  0.30874  1.0000
  H   H9        1.0  0.78597  0.3719500000000001  0.3160600000000001  1.0000
  H   H10       1.0  0.02337  0.16276000000000004  0.4345  1.0000
  H   H11       1.0  0.22448000000000007  0.93413  0.4499000000000001  1.0000
  H   H12       1.0  0.26558000000000004  0.11799000000000003  0.3831200000000001  1.0000
  H   H13       1.0  0.65856  0.75772  0.6262000000000001  1.0000
  H   H14       1.0  0.6655300000000002  0.9427000000000002  0.55874  1.0000
  H   H15       1.0  0.8719500000000002  0.7140300000000003  0.56606  1.0000
  H   H16       1.0  0.6627600000000002  0.4766300000000001  0.6845  1.0000
  H   H17       1.0  0.4341300000000001  0.27552  0.6999000000000001  1.0000
  H   H18       1.0  0.61798  0.23442  0.63312  1.0000
  H   H19       1.0  0.34144  0.24227  0.1262  1.0000
  H   H20       1.0  0.3344600000000001  0.05730000000000001  0.05874  1.0000
  H   H21       1.0  0.12805  0.28597  0.06606  1.0000
  H   H22       1.0  0.33723  0.52337  0.18450000000000005  1.0000
  H   H23       1.0  0.56587  0.72448  0.1999  1.0000
  H   H24       1.0  0.38201  0.76558  0.13312  1.0000
  H   H25       1.0  0.24227  0.34144  0.87379  1.0000
  H   H26       1.0  0.05730000000000001  0.3344600000000001  0.94126  1.0000
  H   H27       1.0  0.28597  0.12805  0.93394  1.0000
  H   H28       1.0  0.52337  0.33724  0.8155  1.0000
  H   H29       1.0  0.72448  0.56587  0.8001000000000003  1.0000
  H   H30       1.0  0.76558  0.38201  0.86688  1.0000
  H   H31       1.0  0.75772  0.65856  0.3738  1.0000
  H   H32       1.0  0.9427000000000002  0.6655300000000002  0.44126  1.0000
  H   H33       1.0  0.7140300000000003  0.8719500000000002  0.4339400000000001  1.0000
  H   H34       1.0  0.4766300000000001  0.6627600000000002  0.3155  1.0000
  H   H35       1.0  0.27552  0.4341300000000001  0.3001  1.0000
  H   H36       1.0  0.23442  0.61798  0.36688000000000004  1.0000
  H   H37       1.0  0.84143  0.25773000000000007  0.12379000000000003  1.0000
  H   H38       1.0  0.8344600000000002  0.4427000000000001  0.19126  1.0000
  H   H39       1.0  0.62805  0.21403000000000005  0.18394000000000002  1.0000
  H   H40       1.0  0.8372300000000003  0.9766200000000003  0.06550000000000002  1.0000
  H   H41       1.0  0.06587000000000001  0.77552  0.0501  1.0000
  H   H42       1.0  0.8820100000000001  0.7344200000000002  0.11688000000000001  1.0000
  H   H43       1.0  0.15856  0.74227  0.62379  1.0000
  H   H44       1.0  0.16553000000000007  0.5573  0.6912600000000002  1.0000
  H   H45       1.0  0.3719500000000001  0.78597  0.68394  1.0000
  H   H46       1.0  0.16276000000000004  0.02337  0.5655000000000001  1.0000
  H   H47       1.0  0.93413  0.22448000000000007  0.5501  1.0000
  H   H48       1.0  0.11799000000000003  0.26558000000000004  0.61688  1.0000
  C   C1        1.0  0.13709  0.69203  0.8596500000000001  1.0000
  C   C2        1.0  0.22617  0.7309400000000001  0.8475200000000002  1.0000
  C   C3        1.0  0.27807  0.80874  0.85773  1.0000
  C   C4        1.0  0.3550500000000001  0.84757  0.84333  1.0000
  C   C5        1.0  0.38252  0.8050800000000002  0.8197  1.0000
  C   C6        1.0  0.33335  0.7241400000000001  0.81032  1.0000
  C   C7        1.0  0.25383  0.68888  0.82387  1.0000
  C   C8        1.0  0.4069600000000001  0.9344900000000003  0.8531300000000003  1.0000
  C   C9        1.0  0.36629  0.6716700000000002  0.78662  1.0000
  C   C10       1.0  0.8910200000000001  0.76828  0.89092  1.0000
  C   C11       1.0  0.8567  0.8486700000000003  0.90778  1.0000
  C   C12       1.0  0.91072  0.87556  0.9296700000000002  1.0000
  C   C13       1.0  0.8825  0.9554900000000002  0.9445100000000001  1.0000
  C   C14       1.0  0.7980500000000003  0.0048400000000000006  0.9381300000000001  1.0000
  C   C15       1.0  0.74386  0.9775300000000002  0.91624  1.0000
  C   C16       1.0  0.77447  0.90087  0.9006300000000003  1.0000
  C   C17       1.0  0.94593  0.9943800000000003  0.96563  1.0000
  C   C18       1.0  0.6589900000000002  0.03727  0.90899  1.0000
  C   C19       1.0  0.8629100000000001  0.30797  0.35964000000000007  1.0000
  C   C20       1.0  0.7738200000000002  0.26906  0.34752  1.0000
  C   C21       1.0  0.72192  0.19126  0.35773  1.0000
  C   C22       1.0  0.6449500000000002  0.15243000000000007  0.34334  1.0000
  C   C23       1.0  0.6174800000000003  0.19492000000000007  0.3197  1.0000
  C   C24       1.0  0.6666400000000002  0.27585  0.31032  1.0000
  C   C25       1.0  0.7461600000000003  0.31112  0.32387  1.0000
  C   C26       1.0  0.5930400000000002  0.06551000000000001  0.35313  1.0000
  C   C27       1.0  0.6337  0.32833000000000007  0.28662  1.0000
  C   C28       1.0  0.10898  0.23171000000000003  0.39092  1.0000
  C   C29       1.0  0.14329  0.15133000000000005  0.4077800000000001  1.0000
  C   C30       1.0  0.08928000000000003  0.12443  0.42967000000000005  1.0000
  C   C31       1.0  0.1175  0.0445  0.44451  1.0000
  C   C32       1.0  0.20195  0.99516  0.43813  1.0000
  C   C33       1.0  0.25614  0.02246  0.41624  1.0000
  C   C34       1.0  0.22553  0.09913000000000002  0.4006300000000001  1.0000
  C   C35       1.0  0.05407  0.005610000000000002  0.46563  1.0000
  C   C36       1.0  0.3410100000000001  0.96273  0.40899  1.0000
  C   C37       1.0  0.8079700000000002  0.63709  0.60965  1.0000
  C   C38       1.0  0.76906  0.7261700000000002  0.59752  1.0000
  C   C39       1.0  0.69125  0.77807  0.6077300000000001  1.0000
  C   C40       1.0  0.6524300000000002  0.85505  0.59333  1.0000
  C   C41       1.0  0.69492  0.88252  0.5697  1.0000
  C   C42       1.0  0.7758500000000003  0.8333500000000003  0.56032  1.0000
  C   C43       1.0  0.81111  0.7538300000000002  0.57387  1.0000
  C   C44       1.0  0.5655100000000001  0.90696  0.60313  1.0000
  C   C45       1.0  0.8283200000000002  0.86629  0.53662  1.0000
  C   C46       1.0  0.73171  0.39102  0.64092  1.0000
  C   C47       1.0  0.6513200000000001  0.35671000000000014  0.65778  1.0000
  C   C48       1.0  0.62443  0.41072  0.6796700000000001  1.0000
  C   C49       1.0  0.5445  0.3825000000000001  0.69451  1.0000
  C   C50       1.0  0.49516  0.2980500000000001  0.68813  1.0000
  C   C51       1.0  0.52246  0.24386000000000005  0.66624  1.0000
  C   C52       1.0  0.5991300000000002  0.27447000000000005  0.6506300000000002  1.0000
  C   C53       1.0  0.50561  0.44593  0.71563  1.0000
  C   C54       1.0  0.4627300000000001  0.15899000000000002  0.6589900000000002  1.0000
  C   C55       1.0  0.19203  0.3629100000000001  0.10965  1.0000
  C   C56       1.0  0.23094000000000003  0.2738300000000001  0.09752  1.0000
  C   C57       1.0  0.3087400000000001  0.22193  0.10773  1.0000
  C   C58       1.0  0.34757000000000005  0.14495000000000005  0.09333000000000002  1.0000
  C   C59       1.0  0.3050800000000001  0.11748  0.06970000000000001  1.0000
  C   C60       1.0  0.22415000000000004  0.16664  0.06032  1.0000
  C   C61       1.0  0.18888000000000005  0.24616000000000005  0.07387  1.0000
  C   C62       1.0  0.43449000000000004  0.09304000000000001  0.10313000000000001  1.0000
  C   C63       1.0  0.17167000000000004  0.1337  0.03662  1.0000
  C   C64       1.0  0.2682800000000001  0.60897  0.14092  1.0000
  C   C65       1.0  0.34867  0.64329  0.15778  1.0000
  C   C66       1.0  0.37556000000000006  0.58927  0.17967  1.0000
  C   C67       1.0  0.45549  0.61749  0.19451  1.0000
  C   C68       1.0  0.50483  0.70195  0.18813  1.0000
  C   C69       1.0  0.47754  0.75614  0.16624  1.0000
  C   C70       1.0  0.4008700000000001  0.72552  0.15063  1.0000
  C   C71       1.0  0.49438  0.55407  0.21563000000000004  1.0000
  C   C72       1.0  0.53727  0.8410000000000002  0.15899  1.0000
  C   C73       1.0  0.3629100000000001  0.19203  0.89035  1.0000
  C   C74       1.0  0.2738300000000001  0.23094000000000003  0.90248  1.0000
  C   C75       1.0  0.22192000000000003  0.3087400000000001  0.8922700000000002  1.0000
  C   C76       1.0  0.14495000000000005  0.34757000000000005  0.9066600000000001  1.0000
  C   C77       1.0  0.11748  0.3050800000000001  0.9303000000000001  1.0000
  C   C78       1.0  0.16664  0.22415000000000004  0.9396800000000002  1.0000
  C   C79       1.0  0.24616000000000005  0.18888000000000005  0.9261300000000002  1.0000
  C   C80       1.0  0.09304000000000001  0.43449000000000004  0.8968700000000002  1.0000
  C   C81       1.0  0.13371000000000002  0.17167000000000004  0.96338  1.0000
  C   C82       1.0  0.60897  0.26829000000000003  0.8590800000000001  1.0000
  C   C83       1.0  0.64329  0.34867  0.84222  1.0000
  C   C84       1.0  0.58927  0.37556000000000006  0.82033  1.0000
  C   C85       1.0  0.61749  0.45549  0.80549  1.0000
  C   C86       1.0  0.70195  0.5048400000000001  0.81187  1.0000
  C   C87       1.0  0.75614  0.47754  0.8337600000000001  1.0000
  C   C88       1.0  0.7255300000000001  0.4008700000000001  0.84937  1.0000
  C   C89       1.0  0.55407  0.4943900000000001  0.78437  1.0000
  C   C90       1.0  0.8410000000000002  0.53727  0.8410100000000001  1.0000
  C   C91       1.0  0.63709  0.8079700000000002  0.39035  1.0000
  C   C92       1.0  0.7261700000000002  0.76906  0.40248  1.0000
  C   C93       1.0  0.77807  0.69125  0.39227  1.0000
  C   C94       1.0  0.85505  0.6524300000000002  0.40667  1.0000
  C   C95       1.0  0.88252  0.69492  0.4303  1.0000
  C   C96       1.0  0.8333500000000003  0.7758500000000003  0.43968  1.0000
  C   C97       1.0  0.7538300000000002  0.81111  0.42613000000000006  1.0000
  C   C98       1.0  0.90696  0.5655100000000001  0.39687000000000006  1.0000
  C   C99       1.0  0.86629  0.8283200000000002  0.46338000000000007  1.0000
  C   C100      1.0  0.39103  0.7317200000000003  0.35908  1.0000
  C   C101      1.0  0.35670000000000013  0.6513200000000001  0.34222000000000014  1.0000
  C   C102      1.0  0.41072  0.62443  0.3203300000000001  1.0000
  C   C103      1.0  0.3825000000000001  0.5445  0.30549  1.0000
  C   C104      1.0  0.2980500000000001  0.49516  0.31187  1.0000
  C   C105      1.0  0.24386000000000005  0.52246  0.33376  1.0000
  C   C106      1.0  0.27447000000000005  0.59912  0.3493700000000001  1.0000
  C   C107      1.0  0.44593  0.50561  0.28437  1.0000
  C   C108      1.0  0.15899000000000002  0.4627300000000001  0.34101000000000004  1.0000
  C   C109      1.0  0.69203  0.13709  0.14035  1.0000
  C   C110      1.0  0.7309400000000001  0.22617  0.15248000000000003  1.0000
  C   C111      1.0  0.80874  0.27807  0.14227  1.0000
  C   C112      1.0  0.84757  0.3550500000000001  0.15667000000000003  1.0000
  C   C113      1.0  0.8050800000000002  0.38252  0.1803  1.0000
  C   C114      1.0  0.7241400000000001  0.33335  0.18968000000000004  1.0000
  C   C115      1.0  0.68888  0.25383  0.17613  1.0000
  C   C116      1.0  0.93448  0.4069600000000001  0.14687  1.0000
  C   C117      1.0  0.6716700000000002  0.36629  0.21338  1.0000
  C   C118      1.0  0.76828  0.8910200000000001  0.10908  1.0000
  C   C119      1.0  0.8486700000000003  0.8567  0.09222  1.0000
  C   C120      1.0  0.87556  0.91072  0.07033  1.0000
  C   C121      1.0  0.9554900000000002  0.8825  0.05549000000000001  1.0000
  C   C122      1.0  0.0048400000000000006  0.7980500000000003  0.06187000000000001  1.0000
  C   C123      1.0  0.97754  0.74386  0.08376  1.0000
  C   C124      1.0  0.90087  0.77447  0.09937  1.0000
  C   C125      1.0  0.9943800000000003  0.94593  0.03437  1.0000
  C   C126      1.0  0.03727  0.6589900000000002  0.09101  1.0000
  C   C127      1.0  0.30797  0.8629100000000001  0.64035  1.0000
  C   C128      1.0  0.26906  0.7738200000000002  0.65248  1.0000
  C   C129      1.0  0.19126  0.72192  0.64227  1.0000
  C   C130      1.0  0.15243000000000007  0.6449500000000002  0.65667  1.0000
  C   C131      1.0  0.19492000000000007  0.6174800000000003  0.6803  1.0000
  C   C132      1.0  0.27585  0.6666400000000002  0.6896800000000001  1.0000
  C   C133      1.0  0.31112  0.7461600000000003  0.6761300000000001  1.0000
  C   C134      1.0  0.06551000000000001  0.5930400000000002  0.6468700000000001  1.0000
  C   C135      1.0  0.32833000000000007  0.6337  0.71338  1.0000
  C   C136      1.0  0.23171000000000003  0.10898  0.60908  1.0000
  C   C137      1.0  0.15133000000000005  0.14329  0.59222  1.0000
  C   C138      1.0  0.12443  0.08928000000000003  0.57033  1.0000
  C   C139      1.0  0.04451  0.1175  0.55549  1.0000
  C   C140      1.0  0.99516  0.20195  0.56187  1.0000
  C   C141      1.0  0.02246  0.25614  0.58376  1.0000
  C   C142      1.0  0.09913000000000002  0.22553  0.59937  1.0000
  C   C143      1.0  0.005610000000000002  0.05407  0.53437  1.0000
  C   C144      1.0  0.9627200000000002  0.3410100000000001  0.59101  1.0000
  O   O1        1.0  0.07387  0.66189  0.84253  1.0000
  O   O2        1.0  0.12260000000000003  0.6853800000000001  0.88374  1.0000
  O   O3        1.0  0.3194  0.5953000000000003  0.78043  1.0000
  O   O4        1.0  0.44005  0.7049500000000002  0.77482  1.0000
  O   O5        1.0  0.39053000000000004  0.9676  0.87566  1.0000
  O   O6        1.0  0.4686700000000001  0.9758800000000001  0.83772  1.0000
  O   O7        1.0  0.92307  0.6919900000000002  0.9013000000000002  1.0000
  O   O8        1.0  0.88574  0.7854  0.86613  1.0000
  O   O9        1.0  0.029030000000000007  0.95645  0.96829  1.0000
  O   O10       1.0  0.9126400000000002  0.06559  0.9787700000000001  1.0000
  O   O11       1.0  0.6149800000000001  0.02491  0.88757  1.0000
  O   O12       1.0  0.63795  0.10463000000000001  0.9257300000000003  1.0000
  O   O13       1.0  0.92613  0.3381  0.3425300000000001  1.0000
  O   O14       1.0  0.8774000000000001  0.3146200000000001  0.38374000000000014  1.0000
  O   O15       1.0  0.6806  0.4047  0.28043  1.0000
  O   O16       1.0  0.55994  0.2950500000000001  0.27482  1.0000
  O   O17       1.0  0.6094600000000002  0.032400000000000005  0.37566  1.0000
  O   O18       1.0  0.53133  0.024120000000000003  0.33772  1.0000
  O   O19       1.0  0.07692000000000002  0.30802000000000007  0.4013  1.0000
  O   O20       1.0  0.11426000000000003  0.21459000000000006  0.36613  1.0000
  O   O21       1.0  0.9709700000000002  0.04355  0.4682900000000001  1.0000
  O   O22       1.0  0.08735  0.9344000000000002  0.47877  1.0000
  O   O23       1.0  0.38502  0.9750900000000002  0.38757000000000014  1.0000
  O   O24       1.0  0.3620500000000001  0.8953700000000001  0.42573000000000005  1.0000
  O   O25       1.0  0.8381000000000002  0.57387  0.59253  1.0000
  O   O26       1.0  0.81462  0.62259  0.63374  1.0000
  O   O27       1.0  0.9047  0.81939  0.53043  1.0000
  O   O28       1.0  0.7950400000000002  0.94005  0.52482  1.0000
  O   O29       1.0  0.5324  0.8905300000000003  0.6256600000000002  1.0000
  O   O30       1.0  0.52412  0.9686600000000001  0.5877200000000001  1.0000
  O   O31       1.0  0.80801  0.42308  0.6513  1.0000
  O   O32       1.0  0.7145900000000001  0.38574  0.61613  1.0000
  O   O33       1.0  0.54355  0.52903  0.71829  1.0000
  O   O34       1.0  0.43441000000000013  0.41264000000000006  0.72877  1.0000
  O   O35       1.0  0.4750900000000001  0.11498000000000003  0.6375700000000002  1.0000
  O   O36       1.0  0.39537  0.13795  0.67573  1.0000
  O   O37       1.0  0.16189000000000003  0.4261300000000001  0.09253  1.0000
  O   O38       1.0  0.18538000000000002  0.3774  0.13374  1.0000
  O   O39       1.0  0.0953  0.18060000000000004  0.030430000000000006  1.0000
  O   O40       1.0  0.20495000000000005  0.05995  0.02482  1.0000
  O   O41       1.0  0.4676000000000001  0.10947000000000003  0.12566  1.0000
  O   O42       1.0  0.47588000000000014  0.03133  0.08772  1.0000
  O   O43       1.0  0.19199000000000002  0.57692  0.1513  1.0000
  O   O44       1.0  0.28541  0.6142600000000003  0.11613  1.0000
  O   O45       1.0  0.45645000000000013  0.47097000000000006  0.21829  1.0000
  O   O46       1.0  0.56559  0.5873500000000003  0.22877  1.0000
  O   O47       1.0  0.52491  0.88502  0.13757  1.0000
  O   O48       1.0  0.60463  0.86204  0.17573  1.0000
  O   O49       1.0  0.4261300000000001  0.1619  0.90747  1.0000
  O   O50       1.0  0.3774  0.18538000000000002  0.86626  1.0000
  O   O51       1.0  0.18060000000000004  0.0953  0.96957  1.0000
  O   O52       1.0  0.05995  0.20495000000000005  0.9751800000000002  1.0000
  O   O53       1.0  0.10947000000000003  0.4676000000000001  0.8743400000000002  1.0000
  O   O54       1.0  0.03133  0.47588000000000014  0.9122800000000002  1.0000
  O   O55       1.0  0.57692  0.19198000000000007  0.8487  1.0000
  O   O56       1.0  0.6142600000000003  0.28541  0.88387  1.0000
  O   O57       1.0  0.47097000000000006  0.45645000000000013  0.78171  1.0000
  O   O58       1.0  0.5873500000000003  0.56559  0.77123  1.0000
  O   O59       1.0  0.88502  0.52491  0.8624300000000003  1.0000
  O   O60       1.0  0.86204  0.60463  0.82427  1.0000
  O   O61       1.0  0.57387  0.8381000000000002  0.40747000000000005  1.0000
  O   O62       1.0  0.62259  0.81462  0.3662600000000001  1.0000
  O   O63       1.0  0.81939  0.9047  0.4695700000000001  1.0000
  O   O64       1.0  0.94005  0.79505  0.47518  1.0000
  O   O65       1.0  0.8905300000000003  0.5324  0.37434000000000006  1.0000
  O   O66       1.0  0.9686600000000001  0.52412  0.41228  1.0000
  O   O67       1.0  0.42307  0.80801  0.3487100000000001  1.0000
  O   O68       1.0  0.38574  0.7145900000000001  0.38387  1.0000
  O   O69       1.0  0.52903  0.54355  0.28171  1.0000
  O   O70       1.0  0.41264000000000006  0.4344000000000001  0.27123  1.0000
  O   O71       1.0  0.11498000000000003  0.4750900000000001  0.3624300000000001  1.0000
  O   O72       1.0  0.13795  0.39537  0.3242700000000001  1.0000
  O   O73       1.0  0.66189  0.07387  0.15747  1.0000
  O   O74       1.0  0.6853800000000001  0.12260000000000003  0.11626000000000002  1.0000
  O   O75       1.0  0.5953000000000003  0.31939  0.21957000000000004  1.0000
  O   O76       1.0  0.7049500000000002  0.44005  0.22518000000000005  1.0000
  O   O77       1.0  0.9676  0.39053000000000004  0.12434  1.0000
  O   O78       1.0  0.9758800000000001  0.4686700000000001  0.16228000000000004  1.0000
  O   O79       1.0  0.69198  0.9230800000000002  0.0987  1.0000
  O   O80       1.0  0.7854  0.88574  0.13387  1.0000
  O   O81       1.0  0.95645  0.029030000000000007  0.03171  1.0000
  O   O82       1.0  0.06559  0.9126400000000002  0.021230000000000002  1.0000
  O   O83       1.0  0.02491  0.6149800000000001  0.11243000000000003  1.0000
  O   O84       1.0  0.10463000000000001  0.63795  0.07427000000000002  1.0000
  O   O85       1.0  0.3381  0.9261200000000003  0.65747  1.0000
  O   O86       1.0  0.3146200000000001  0.8774000000000001  0.61626  1.0000
  O   O87       1.0  0.4047  0.6806  0.71957  1.0000
  O   O88       1.0  0.2950500000000001  0.55995  0.72518  1.0000
  O   O89       1.0  0.032400000000000005  0.6094600000000002  0.6243400000000001  1.0000
  O   O90       1.0  0.024120000000000003  0.53133  0.66228  1.0000
  O   O91       1.0  0.30802000000000007  0.07692000000000002  0.5987000000000001  1.0000
  O   O92       1.0  0.21459000000000006  0.11426000000000003  0.63387  1.0000
  O   O93       1.0  0.04355  0.9709700000000002  0.53171  1.0000
  O   O94       1.0  0.9344000000000002  0.08735  0.52123  1.0000
  O   O95       1.0  0.9750900000000002  0.38502  0.61243  1.0000
  O   O96       1.0  0.8953700000000001  0.3620500000000001  0.5742700000000001  1.0000
