data_image0
_chemical_formula_structural       Ni6H96C144N60
_chemical_formula_sum              "Ni6 H96 C144 N60"
_cell_length_a       15.78146
_cell_length_b       18.55174
_cell_length_c       18.55183
_cell_angle_alpha    112.37874
_cell_angle_beta     106.58009
_cell_angle_gamma    106.58017

_symmetry_space_group_name_H-M    'P 1'
_symmetry_Int_Tables_number       1

loop_
  _symmetry_equiv_pos_as_xyz
  'x,y,z'

loop_
  _atom_site_type_symbol
  _atom_site_label
  _atom_site_symmetry_multiplicity
  _atom_site_fract_x
  _atom_site_fract_y
  _atom_site_fract_z
  _atom_site_occupancy
  Ni  Ni1       1.0  0.0001399999999999897  0.50001  3.0000000000000008e-05  1.0000
  Ni  Ni2       1.0  0.00011999999999999218  9.999999999979696e-06  0.5  1.0000
  Ni  Ni3       1.0  0.50001  0.5  0.5  1.0000
  Ni  Ni4       1.0  0.49986  0.5  0.99999  1.0000
  Ni  Ni5       1.0  0.99999  0.5  0.5  1.0000
  Ni  Ni6       1.0  0.4998800000000002  0.9999700000000001  0.4999900000000001  1.0000
  H   H1        1.0  0.20481000000000005  0.80132  0.06025000000000001  1.0000
  H   H2        1.0  0.24795000000000014  0.7556000000000002  0.9340000000000003  1.0000
  H   H3        1.0  0.18965000000000018  0.5958900000000001  0.8352600000000002  1.0000
  H   H4        1.0  0.08868000000000015  0.48847000000000007  0.8653100000000002  1.0000
  H   H5        1.0  0.9240100000000002  0.80391  0.39381  1.0000
  H   H6        1.0  0.93779  0.69768  0.27153  1.0000
  H   H7        1.0  0.17083000000000012  0.91414  0.3024700000000001  1.0000
  H   H8        1.0  0.14957000000000006  0.011940000000000058  0.4252900000000001  1.0000
  H   H9        1.0  0.1456000000000002  0.9406700000000002  0.7410400000000003  1.0000
  H   H10       1.0  0.31594  0.06739000000000003  0.82215  1.0000
  H   H11       1.0  0.3562500000000002  0.16615000000000013  0.7616500000000003  1.0000
  H   H12       1.0  0.22448  0.13573000000000005  0.62413  1.0000
  H   H13       1.0  0.5291  0.60535  0.40983  1.0000
  H   H14       1.0  0.6652900000000002  0.7279800000000001  0.4257900000000001  1.0000
  H   H15       1.0  0.8693200000000002  0.6986700000000002  0.6110200000000002  1.0000
  H   H16       1.0  0.72503  0.57546  0.58626  1.0000
  H   H17       1.0  0.40352  0.25867000000000007  0.19851  1.0000
  H   H18       1.0  0.4927100000000001  0.17830000000000004  0.24426  1.0000
  H   H19       1.0  0.5939300000000001  0.23933000000000004  0.4041100000000001  1.0000
  H   H20       1.0  0.6001000000000002  0.37671  0.51146  1.0000
  H   H21       1.0  0.12024000000000001  0.58991  0.19586000000000006  1.0000
  H   H22       1.0  0.23992000000000008  0.5735100000000001  0.3022300000000001  1.0000
  H   H23       1.0  0.25712  0.38859  0.08632000000000001  1.0000
  H   H24       1.0  0.13820000000000007  0.41387000000000024  0.9883900000000002  1.0000
  H   H25       1.0  0.7951800000000002  0.1986800000000001  0.93974  1.0000
  H   H26       1.0  0.75205  0.24439999999999998  0.066  1.0000
  H   H27       1.0  0.8103500000000002  0.40412000000000003  0.16474000000000005  1.0000
  H   H28       1.0  0.9113300000000002  0.51154  0.13469000000000006  1.0000
  H   H29       1.0  0.07599000000000015  0.1961000000000001  0.6061900000000002  1.0000
  H   H30       1.0  0.062200000000000095  0.3023200000000001  0.7284700000000002  1.0000
  H   H31       1.0  0.8291600000000001  0.0858600000000001  0.6975200000000003  1.0000
  H   H32       1.0  0.8504300000000001  0.9880700000000003  0.5747100000000003  1.0000
  H   H33       1.0  0.8543900000000001  0.05934000000000006  0.25896000000000013  1.0000
  H   H34       1.0  0.68406  0.93262  0.17786000000000005  1.0000
  H   H35       1.0  0.6437600000000001  0.83386  0.23835000000000006  1.0000
  H   H36       1.0  0.77552  0.86428  0.37588  1.0000
  H   H37       1.0  0.4709  0.39465  0.59017  1.0000
  H   H38       1.0  0.3347  0.27203  0.57421  1.0000
  H   H39       1.0  0.13068  0.30134  0.38898  1.0000
  H   H40       1.0  0.2749700000000001  0.42454  0.41374  1.0000
  H   H41       1.0  0.5964800000000001  0.7413300000000002  0.8014900000000003  1.0000
  H   H42       1.0  0.50729  0.8217  0.75574  1.0000
  H   H43       1.0  0.40607000000000026  0.7606700000000003  0.5958900000000003  1.0000
  H   H44       1.0  0.3999  0.62329  0.4885400000000001  1.0000
  H   H45       1.0  0.87976  0.4100900000000002  0.8041400000000002  1.0000
  H   H46       1.0  0.7600700000000001  0.4264900000000002  0.6977700000000002  1.0000
  H   H47       1.0  0.7428800000000004  0.6114100000000002  0.9136900000000002  1.0000
  H   H48       1.0  0.8618100000000002  0.58613  0.011610000000000004  1.0000
  H   H49       1.0  0.35439000000000004  0.25896  0.05934000000000001  1.0000
  H   H50       1.0  0.18405  0.17785  0.93261  1.0000
  H   H51       1.0  0.14374000000000003  0.2383500000000001  0.83385  1.0000
  H   H52       1.0  0.2755100000000001  0.3758700000000001  0.8642700000000002  1.0000
  H   H53       1.0  0.9709000000000001  0.59017  0.39465  1.0000
  H   H54       1.0  0.8347000000000002  0.57421  0.27202  1.0000
  H   H55       1.0  0.6306800000000004  0.38898000000000005  0.3013300000000001  1.0000
  H   H56       1.0  0.7749700000000003  0.4137400000000001  0.42454  1.0000
  H   H57       1.0  0.09648000000000005  0.80149  0.7413300000000003  1.0000
  H   H58       1.0  0.0072899999999999476  0.75574  0.8217  1.0000
  H   H59       1.0  0.9060700000000003  0.5959  0.76067  1.0000
  H   H60       1.0  0.8999000000000001  0.4885500000000002  0.6232900000000002  1.0000
  H   H61       1.0  0.37976000000000004  0.8041400000000001  0.41009000000000007  1.0000
  H   H62       1.0  0.26007000000000013  0.6977700000000002  0.4264900000000001  1.0000
  H   H63       1.0  0.24286999999999997  0.91369  0.61141  1.0000
  H   H64       1.0  0.3618000000000003  0.011610000000000105  0.5861300000000003  1.0000
  H   H65       1.0  0.29518000000000005  0.9397500000000001  0.19868000000000005  1.0000
  H   H66       1.0  0.25205000000000005  0.06600000000000004  0.24440000000000006  1.0000
  H   H67       1.0  0.31035000000000007  0.16474000000000003  0.4041100000000001  1.0000
  H   H68       1.0  0.41132  0.13469000000000006  0.51153  1.0000
  H   H69       1.0  0.57599  0.60619  0.19609000000000004  1.0000
  H   H70       1.0  0.5622100000000003  0.7284700000000001  0.30232  1.0000
  H   H71       1.0  0.3291600000000001  0.69753  0.08586000000000003  1.0000
  H   H72       1.0  0.3504200000000002  0.5747200000000001  0.9880700000000002  1.0000
  H   H73       1.0  0.6456  0.74104  0.94066  1.0000
  H   H74       1.0  0.81594  0.82215  0.06738  1.0000
  H   H75       1.0  0.85624  0.76165  0.16615000000000005  1.0000
  H   H76       1.0  0.7244700000000001  0.62413  0.13572000000000006  1.0000
  H   H77       1.0  0.02910000000000001  0.40983  0.60535  1.0000
  H   H78       1.0  0.16529000000000013  0.42579000000000017  0.7279700000000002  1.0000
  H   H79       1.0  0.36931000000000014  0.61103  0.6986700000000002  1.0000
  H   H80       1.0  0.22502  0.58626  0.57546  1.0000
  H   H81       1.0  0.9035200000000003  0.19851000000000005  0.2586700000000001  1.0000
  H   H82       1.0  0.9927100000000002  0.2442600000000001  0.17830000000000004  1.0000
  H   H83       1.0  0.09393000000000004  0.40411  0.23933000000000004  1.0000
  H   H84       1.0  0.10009000000000007  0.51146  0.37671  1.0000
  H   H85       1.0  0.6202400000000002  0.19586999999999996  0.58991  1.0000
  H   H86       1.0  0.7399200000000001  0.3022300000000001  0.5735100000000002  1.0000
  H   H87       1.0  0.7571200000000001  0.08631000000000005  0.3885900000000001  1.0000
  H   H88       1.0  0.63819  0.98839  0.41387  1.0000
  H   H89       1.0  0.7048100000000003  0.06026000000000013  0.8013200000000003  1.0000
  H   H90       1.0  0.74794  0.9340000000000002  0.7556  1.0000
  H   H91       1.0  0.68965  0.8352700000000001  0.59588  1.0000
  H   H92       1.0  0.5886700000000001  0.8653100000000001  0.4884700000000001  1.0000
  H   H93       1.0  0.4240000000000001  0.39381000000000016  0.8039000000000002  1.0000
  H   H94       1.0  0.43779000000000023  0.2715400000000002  0.6976800000000002  1.0000
  H   H95       1.0  0.6708300000000005  0.30248000000000014  0.9141400000000002  1.0000
  H   H96       1.0  0.64956  0.42529  0.011930000000000003  1.0000
  C   C1        1.0  0.12352000000000006  0.66945  0.026330000000000006  1.0000
  C   C2        1.0  0.18045000000000003  0.73334  0.014510000000000004  1.0000
  C   C3        1.0  0.20437000000000013  0.7073800000000001  0.9450800000000003  1.0000
  C   C4        1.0  0.1720900000000002  0.6186600000000002  0.8898700000000003  1.0000
  C   C5        1.0  0.11624000000000015  0.5586100000000002  0.9058500000000003  1.0000
  C   C6        1.0  0.05926000000000016  0.7384100000000002  0.19987000000000005  1.0000
  C   C7        1.0  0.09138  0.68747  0.09453  1.0000
  C   C8        1.0  0.9783600000000003  0.8258300000000001  0.37227  1.0000
  C   C9        1.0  0.98603  0.7669000000000001  0.30404  1.0000
  C   C10       1.0  0.054379999999999915  0.79751  0.27537  1.0000
  C   C11       1.0  0.11572000000000005  0.88744  0.3212000000000001  1.0000
  C   C12       1.0  0.10405  0.9419500000000001  0.3895200000000001  1.0000
  C   C13       1.0  0.09793000000000014  0.9745000000000003  0.6433700000000002  1.0000
  C   C14       1.0  0.16712  0.9864900000000001  0.7191  1.0000
  C   C15       1.0  0.2608800000000002  0.05610000000000009  0.7628100000000002  1.0000
  C   C16       1.0  0.2838100000000002  0.11135000000000014  0.7295900000000001  1.0000
  C   C17       1.0  0.21152  0.09516  0.6535  1.0000
  C   C18       1.0  0.85922  0.80038  0.53814  1.0000
  C   C19       1.0  0.9971300000000002  0.9060600000000002  0.5929100000000003  1.0000
  C   C20       1.0  0.60543  0.62735  0.4532100000000001  1.0000
  C   C21       1.0  0.68125  0.69567  0.46242  1.0000
  C   C22       1.0  0.77877  0.7247600000000002  0.5216200000000002  1.0000
  C   C23       1.0  0.79492  0.67935  0.56571  1.0000
  C   C24       1.0  0.7149500000000002  0.61093  0.55201  1.0000
  C   C25       1.0  0.4537400000000001  0.35650000000000004  0.33041  1.0000
  C   C26       1.0  0.4470799999999999  0.28087  0.26649  1.0000
  C   C27       1.0  0.4971600000000002  0.23756  0.2925100000000001  1.0000
  C   C28       1.0  0.5535100000000002  0.27107  0.3812500000000001  1.0000
  C   C29       1.0  0.5574800000000001  0.34709000000000007  0.44132  1.0000
  C   C30       1.0  0.32038  0.46099  0.2615200000000001  1.0000
  C   C31       1.0  0.4033100000000001  0.40650000000000003  0.3123800000000001  1.0000
  C   C32       1.0  0.15272000000000008  0.5464700000000001  0.17417000000000005  1.0000
  C   C33       1.0  0.21901  0.53696  0.23308000000000006  1.0000
  C   C34       1.0  0.25674  0.47768  0.20255000000000006  1.0000
  C   C35       1.0  0.22852  0.4339  0.11278000000000003  1.0000
  C   C36       1.0  0.16259  0.44789  0.0583  1.0000
  C   C37       1.0  0.8764900000000003  0.3305600000000002  0.9736800000000002  1.0000
  C   C38       1.0  0.8195500000000001  0.2666700000000002  0.9854900000000002  1.0000
  C   C39       1.0  0.79563  0.29263  0.054910000000000014  1.0000
  C   C40       1.0  0.82791  0.38135000000000013  0.11013000000000003  1.0000
  C   C41       1.0  0.8837699999999998  0.4414  0.09415000000000003  1.0000
  C   C42       1.0  0.94074  0.26159000000000016  0.8001300000000002  1.0000
  C   C43       1.0  0.9086300000000003  0.31253999999999993  0.90547  1.0000
  C   C44       1.0  0.021649999999999985  0.17417  0.62773  1.0000
  C   C45       1.0  0.013970000000000106  0.2331000000000001  0.6959500000000002  1.0000
  C   C46       1.0  0.9456100000000002  0.20249999999999999  0.72462  1.0000
  C   C47       1.0  0.8842800000000002  0.11256  0.67879  1.0000
  C   C48       1.0  0.89596  0.05804999999999997  0.61047  1.0000
  C   C49       1.0  0.9020700000000005  0.025510000000000053  0.3566300000000001  1.0000
  C   C50       1.0  0.83288  0.013519999999999997  0.28091  1.0000
  C   C51       1.0  0.7391200000000003  0.94391  0.23720000000000005  1.0000
  C   C52       1.0  0.71619  0.88867  0.27042  1.0000
  C   C53       1.0  0.78849  0.90485  0.3465  1.0000
  C   C54       1.0  0.14078000000000007  0.19963000000000003  0.4618600000000001  1.0000
  C   C55       1.0  0.0028700000000000557  0.09394000000000005  0.4070800000000001  1.0000
  C   C56       1.0  0.3945700000000002  0.3726500000000001  0.5467900000000002  1.0000
  C   C57       1.0  0.31874000000000013  0.30433000000000016  0.5375800000000002  1.0000
  C   C58       1.0  0.2212300000000001  0.27526000000000006  0.47838000000000014  1.0000
  C   C59       1.0  0.20507000000000003  0.32066  0.4342900000000001  1.0000
  C   C60       1.0  0.28505  0.38908000000000004  0.4479900000000001  1.0000
  C   C61       1.0  0.5462600000000004  0.6435100000000001  0.6695900000000002  1.0000
  C   C62       1.0  0.55291  0.71914  0.7335100000000002  1.0000
  C   C63       1.0  0.5028400000000002  0.76244  0.7074900000000002  1.0000
  C   C64       1.0  0.44648000000000004  0.72893  0.6187500000000001  1.0000
  C   C65       1.0  0.44251000000000024  0.6529200000000003  0.5586800000000002  1.0000
  C   C66       1.0  0.67962  0.53901  0.73848  1.0000
  C   C67       1.0  0.59669  0.5935000000000001  0.6876200000000002  1.0000
  C   C68       1.0  0.8472900000000001  0.45353000000000004  0.8258300000000002  1.0000
  C   C69       1.0  0.78099  0.46305  0.76692  1.0000
  C   C70       1.0  0.7432600000000001  0.52232  0.7974600000000002  1.0000
  C   C71       1.0  0.7714900000000002  0.5661  0.8872200000000002  1.0000
  C   C72       1.0  0.8374300000000001  0.5521100000000001  0.9417100000000003  1.0000
  C   C73       1.0  0.40206000000000003  0.35663  0.025510000000000005  1.0000
  C   C74       1.0  0.3328800000000001  0.2809  0.01352  1.0000
  C   C75       1.0  0.23911000000000013  0.2371900000000002  0.9439000000000002  1.0000
  C   C76       1.0  0.21618000000000012  0.2704100000000001  0.8886600000000002  1.0000
  C   C77       1.0  0.2884700000000002  0.3465000000000001  0.9048400000000002  1.0000
  C   C78       1.0  0.6407800000000002  0.46186000000000005  0.19962000000000005  1.0000
  C   C79       1.0  0.50286  0.4070900000000001  0.09394000000000002  1.0000
  C   C80       1.0  0.8945700000000002  0.54679  0.37265  1.0000
  C   C81       1.0  0.8187400000000002  0.53758  0.3043300000000001  1.0000
  C   C82       1.0  0.7212300000000003  0.4783800000000001  0.27525  1.0000
  C   C83       1.0  0.70507  0.43429000000000006  0.3206600000000001  1.0000
  C   C84       1.0  0.78505  0.44799  0.38907000000000014  1.0000
  C   C85       1.0  0.04626000000000003  0.6695900000000001  0.6435000000000001  1.0000
  C   C86       1.0  0.05291000000000006  0.73351  0.7191400000000002  1.0000
  C   C87       1.0  0.00284000000000004  0.7074900000000002  0.76244  1.0000
  C   C88       1.0  0.9464800000000002  0.61875  0.72893  1.0000
  C   C89       1.0  0.9425100000000002  0.55869  0.65291  1.0000
  C   C90       1.0  0.17961000000000008  0.7384800000000001  0.53901  1.0000
  C   C91       1.0  0.09669000000000011  0.6876300000000001  0.5935000000000002  1.0000
  C   C92       1.0  0.34727000000000013  0.8258300000000001  0.4535300000000001  1.0000
  C   C93       1.0  0.28098000000000023  0.7669200000000002  0.4630400000000001  1.0000
  C   C94       1.0  0.24325000000000008  0.7974600000000001  0.52232  1.0000
  C   C95       1.0  0.27148000000000005  0.8872200000000001  0.5661000000000003  1.0000
  C   C96       1.0  0.33740999999999993  0.9417100000000002  0.55211  1.0000
  C   C97       1.0  0.3764799999999999  0.9736799999999999  0.33055  1.0000
  C   C98       1.0  0.31955  0.98549  0.2666600000000001  1.0000
  C   C99       1.0  0.2956300000000001  0.05492000000000006  0.2926300000000001  1.0000
  C   C100      1.0  0.3279  0.11013000000000002  0.38134  1.0000
  C   C101      1.0  0.38376  0.09415  0.44139  1.0000
  C   C102      1.0  0.44074000000000024  0.8001400000000001  0.2616000000000001  1.0000
  C   C103      1.0  0.40862  0.90547  0.31253  1.0000
  C   C104      1.0  0.52164  0.62774  0.17417000000000005  1.0000
  C   C105      1.0  0.51397  0.69596  0.23310000000000006  1.0000
  C   C106      1.0  0.4456200000000001  0.72463  0.2025  1.0000
  C   C107      1.0  0.3842800000000001  0.6788000000000002  0.11256000000000002  1.0000
  C   C108      1.0  0.39594000000000007  0.6104800000000001  0.05806000000000001  1.0000
  C   C109      1.0  0.5979200000000005  0.6433700000000001  0.9744900000000002  1.0000
  C   C110      1.0  0.6671100000000002  0.7191000000000002  0.9864800000000002  1.0000
  C   C111      1.0  0.76088  0.7628  0.05609  1.0000
  C   C112      1.0  0.7838100000000002  0.7295800000000001  0.11134000000000002  1.0000
  C   C113      1.0  0.7115  0.6535  0.09515000000000003  1.0000
  C   C114      1.0  0.3592100000000001  0.5381400000000001  0.8003700000000002  1.0000
  C   C115      1.0  0.4971200000000001  0.5929200000000003  0.90606  1.0000
  C   C116      1.0  0.10542000000000003  0.45321  0.62735  1.0000
  C   C117      1.0  0.18125000000000022  0.4624300000000003  0.6956700000000002  1.0000
  C   C118      1.0  0.27876000000000023  0.5216200000000001  0.7247500000000002  1.0000
  C   C119      1.0  0.29492  0.56571  0.67934  1.0000
  C   C120      1.0  0.21494  0.55201  0.61092  1.0000
  C   C121      1.0  0.9537400000000001  0.33042000000000005  0.3565000000000001  1.0000
  C   C122      1.0  0.94708  0.26649  0.28086  1.0000
  C   C123      1.0  0.9971600000000005  0.29251  0.23756000000000005  1.0000
  C   C124      1.0  0.05351000000000006  0.3812500000000001  0.27107  1.0000
  C   C125      1.0  0.057480000000000094  0.44132000000000016  0.3470900000000001  1.0000
  C   C126      1.0  0.82038  0.26152000000000003  0.4609900000000001  1.0000
  C   C127      1.0  0.9033000000000003  0.31238000000000016  0.4065000000000001  1.0000
  C   C128      1.0  0.6527100000000002  0.17417000000000005  0.54647  1.0000
  C   C129      1.0  0.7190100000000004  0.2330800000000001  0.5369600000000002  1.0000
  C   C130      1.0  0.7567400000000002  0.20255000000000004  0.4776800000000001  1.0000
  C   C131      1.0  0.7285100000000001  0.11278000000000009  0.4339000000000001  1.0000
  C   C132      1.0  0.6625700000000002  0.05829000000000006  0.44789  1.0000
  C   C133      1.0  0.6235  0.026330000000000037  0.66944  1.0000
  C   C134      1.0  0.6804500000000002  0.01451000000000011  0.7333300000000003  1.0000
  C   C135      1.0  0.7043700000000005  0.94509  0.7073700000000003  1.0000
  C   C136      1.0  0.6720900000000004  0.8898800000000002  0.6186500000000003  1.0000
  C   C137      1.0  0.6162300000000003  0.90586  0.5586  1.0000
  C   C138      1.0  0.5592600000000003  0.19987000000000013  0.7384100000000002  1.0000
  C   C139      1.0  0.59137  0.09453000000000003  0.68746  1.0000
  C   C140      1.0  0.4783500000000001  0.37227000000000016  0.8258300000000002  1.0000
  C   C141      1.0  0.48603  0.30405  0.7669  1.0000
  C   C142      1.0  0.5543800000000003  0.2753800000000001  0.7975100000000003  1.0000
  C   C143      1.0  0.61572  0.3212100000000001  0.8874400000000002  1.0000
  C   C144      1.0  0.6040400000000001  0.3895300000000002  0.9419500000000002  1.0000
  N   N1        1.0  0.09207000000000014  0.5831700000000001  0.9722400000000002  1.0000
  N   N2        1.0  0.02997000000000002  0.61855  0.09394000000000002  1.0000
  N   N3        1.0  0.008460000000000004  0.65042  0.16130000000000005  1.0000
  N   N4        1.0  0.11178000000000013  0.7644300000000003  0.16014000000000006  1.0000
  N   N5        1.0  0.035040000000000085  0.9126900000000001  0.4141800000000001  1.0000
  N   N6        1.0  0.12059000000000013  0.028580000000000116  0.6114200000000002  1.0000
  N   N7        1.0  0.93591  0.90634  0.52457  1.0000
  N   N8        1.0  0.84671  0.83872  0.4888200000000001  1.0000
  N   N9        1.0  0.9519000000000002  0.8404500000000003  0.60405  1.0000
  N   N10       1.0  0.6207700000000005  0.58583  0.49817000000000006  1.0000
  N   N11       1.0  0.5085700000000002  0.38876  0.4167300000000001  1.0000
  N   N12       1.0  0.41032000000000013  0.47452  0.3813000000000001  1.0000
  N   N13       1.0  0.35703  0.51007  0.34946000000000005  1.0000
  N   N14       1.0  0.3471100000000001  0.3953800000000001  0.23545  1.0000
  N   N15       1.0  0.12278000000000004  0.50175  0.08742000000000003  1.0000
  N   N16       1.0  0.9079700000000002  0.41684  0.02778  1.0000
  N   N17       1.0  0.9700600000000006  0.3814500000000001  0.9060700000000003  1.0000
  N   N18       1.0  0.9915600000000002  0.3495800000000001  0.8387000000000002  1.0000
  N   N19       1.0  0.8882100000000002  0.23558000000000012  0.8398600000000003  1.0000
  N   N20       1.0  0.9649800000000003  0.08731000000000011  0.5858200000000002  1.0000
  N   N21       1.0  0.8794400000000002  0.97142  0.3885800000000001  1.0000
  N   N22       1.0  0.0641200000000001  0.09367000000000007  0.47543000000000013  1.0000
  N   N23       1.0  0.15331000000000017  0.1612900000000001  0.5111700000000002  1.0000
  N   N24       1.0  0.04809000000000006  0.15957000000000005  0.3959600000000001  1.0000
  N   N25       1.0  0.37923  0.41418  0.50183  1.0000
  N   N26       1.0  0.4914300000000003  0.6112500000000002  0.5832700000000002  1.0000
  N   N27       1.0  0.5896800000000001  0.5254800000000001  0.6187000000000002  1.0000
  N   N28       1.0  0.64297  0.48994  0.65054  1.0000
  N   N29       1.0  0.65288  0.60462  0.76455  1.0000
  N   N30       1.0  0.8772500000000001  0.49826000000000015  0.9125900000000002  1.0000
  N   N31       1.0  0.37941000000000014  0.38858000000000015  0.9714200000000002  1.0000
  N   N32       1.0  0.5640900000000002  0.47544000000000003  0.09366  1.0000
  N   N33       1.0  0.6532900000000003  0.51118  0.16128  1.0000
  N   N34       1.0  0.54809  0.39595000000000014  0.15956000000000006  1.0000
  N   N35       1.0  0.8792200000000001  0.50183  0.4141800000000001  1.0000
  N   N36       1.0  0.9914200000000001  0.5832800000000001  0.6112400000000002  1.0000
  N   N37       1.0  0.08968000000000005  0.61871  0.5254800000000002  1.0000
  N   N38       1.0  0.1429700000000001  0.6505400000000001  0.48994000000000004  1.0000
  N   N39       1.0  0.15288  0.76455  0.60462  1.0000
  N   N40       1.0  0.3772200000000001  0.91258  0.49825000000000014  1.0000
  N   N41       1.0  0.4079300000000002  0.027769999999999986  0.41683  1.0000
  N   N42       1.0  0.47003000000000006  0.9060700000000002  0.3814500000000001  1.0000
  N   N43       1.0  0.49154  0.83871  0.34958  1.0000
  N   N44       1.0  0.38822000000000007  0.8398700000000002  0.23558  1.0000
  N   N45       1.0  0.46496  0.58582  0.08731000000000003  1.0000
  N   N46       1.0  0.62056  0.61142  0.028580000000000005  1.0000
  N   N47       1.0  0.43587000000000004  0.5245700000000002  0.9063300000000002  1.0000
  N   N48       1.0  0.34668000000000027  0.4888300000000002  0.8387200000000002  1.0000
  N   N49       1.0  0.4519000000000001  0.60405  0.8404300000000001  1.0000
  N   N50       1.0  0.1207700000000001  0.4981700000000001  0.5858200000000002  1.0000
  N   N51       1.0  0.008570000000000062  0.41673000000000004  0.3887600000000001  1.0000
  N   N52       1.0  0.91031  0.3813000000000001  0.4745200000000001  1.0000
  N   N53       1.0  0.8570200000000002  0.34946000000000005  0.5100600000000001  1.0000
  N   N54       1.0  0.8471100000000003  0.23545000000000002  0.3953800000000001  1.0000
  N   N55       1.0  0.6227500000000002  0.08742000000000003  0.50175  1.0000
  N   N56       1.0  0.5920300000000002  0.97223  0.58316  1.0000
  N   N57       1.0  0.5299400000000001  0.0939300000000001  0.6185500000000003  1.0000
  N   N58       1.0  0.5084400000000001  0.16130000000000008  0.6504300000000002  1.0000
  N   N59       1.0  0.6117900000000004  0.16014000000000017  0.7644200000000002  1.0000
  N   N60       1.0  0.5350100000000001  0.41419  0.91269  1.0000
