data_image0
_chemical_formula_structural       Zn6H112C176N12O24
_chemical_formula_sum              "Zn6 H112 C176 N12 O24"
_cell_length_a       19.58724
_cell_length_b       20.872539999999997
_cell_length_c       21.83223
_cell_angle_alpha    116.40793
_cell_angle_beta     98.58004000000001
_cell_angle_gamma    100.73915000000001

_space_group_name_H-M_alt    "P 1"
_space_group_IT_number       1

loop_
  _space_group_symop_operation_xyz
  'x, y, z'

loop_
  _atom_site_type_symbol
  _atom_site_label
  _atom_site_symmetry_multiplicity
  _atom_site_fract_x
  _atom_site_fract_y
  _atom_site_fract_z
  _atom_site_occupancy
  Zn  Zn1       1.0  0.7667199999999998  0.1978  0.10116  1.0000
  Zn  Zn2       1.0  0.59148  0.12932999999999997  0.0941  1.0000
  Zn  Zn3       1.0  0.9256400000000001  0.16221  0.04863  1.0000
  Zn  Zn4       1.0  0.23328  0.8021999999999999  0.89884  1.0000
  Zn  Zn5       1.0  0.40853  0.87067  0.9059  1.0000
  Zn  Zn6       1.0  0.07435999999999998  0.83779  0.95137  1.0000
  H   H1        1.0  0.5557  0.32486  0.19416  1.0000
  H   H2        1.0  0.54322  0.4500899999999999  0.27317  1.0000
  H   H3        1.0  0.77409  0.5409699999999998  0.33755  1.0000
  H   H4        1.0  0.78574  0.41513  0.26015  1.0000
  H   H5        1.0  0.5664499999999999  0.5479999999999999  0.3945599999999999  1.0000
  H   H6        1.0  0.73139  0.6310099999999997  0.31639  1.0000
  H   H7        1.0  0.60419  0.9485999999999999  0.14285  1.0000
  H   H8        1.0  0.60718  0.87482  0.20514999999999994  1.0000
  H   H9        1.0  0.63452  0.0727  0.40271  1.0000
  H   H10       1.0  0.6319  0.14580999999999997  0.33892999999999995  1.0000
  H   H11       1.0  0.55662  0.8186399999999999  0.25558  1.0000
  H   H12       1.0  0.55784  0.7451199999999998  0.31767  1.0000
  H   H13       1.0  0.68711  0.01547999999999998  0.44769999999999993  1.0000
  H   H14       1.0  0.52668  0.008959999999999937  0.8635599999999999  1.0000
  H   H15       1.0  0.51457  0.9313  0.73547  1.0000
  H   H16       1.0  0.74368  0.9598899999999998  0.78067  1.0000
  H   H17       1.0  0.7553  0.03735999999999999  0.90828  1.0000
  H   H18       1.0  0.54121  0.9435699999999999  0.64123  1.0000
  H   H19       1.0  0.5384799999999998  0.8818499999999998  0.51396  1.0000
  H   H20       1.0  0.6989799999999999  0.7805899999999998  0.55515  1.0000
  H   H21       1.0  0.70264  0.84312  0.68276  1.0000
  H   H22       1.0  0.68657  0.9420499999999998  0.51005  1.0000
  H   H23       1.0  0.71452  0.7566599999999999  0.37675  1.0000
  H   H24       1.0  0.55021  0.6746099999999999  0.45585999999999993  1.0000
  H   H25       1.0  0.45860999999999996  0.04566000000000006  0.97148  1.0000
  H   H26       1.0  0.4994999999999999  0.19003999999999993  0.18668999999999997  1.0000
  H   H27       1.0  0.36818999999999996  0.18748999999999996  0.17489  1.0000
  H   H28       1.0  0.32678  0.03425999999999997  0.95102  1.0000
  H   H29       1.0  0.005890000000000005  0.05563000000000007  0.96735  1.0000
  H   H30       1.0  0.13013999999999998  0.037769999999999984  0.98286  1.0000
  H   H31       1.0  0.06062  0.23659999999999998  0.16896  1.0000
  H   H32       1.0  0.18737  0.22614999999999996  0.1941  1.0000
  H   H33       1.0  0.9464999999999999  0.03889  0.15014  1.0000
  H   H34       1.0  0.9495000000000001  0.9621299999999999  0.2087  1.0000
  H   H35       1.0  0.9620299999999997  0.92109  0.27302  1.0000
  H   H36       1.0  0.7546699999999996  0.9429899999999996  0.30933  1.0000
  H   H37       1.0  0.99588  0.40311  0.24543  1.0000
  H   H38       1.0  0.98786  0.5317099999999999  0.31565  1.0000
  H   H39       1.0  0.79724  0.48209  0.15631  1.0000
  H   H40       1.0  0.80615  0.35421  0.08706  1.0000
  H   H41       1.0  0.9378700000000001  0.6117799999999999  0.38555999999999996  1.0000
  H   H42       1.0  0.8849499999999999  0.96148  0.83922  1.0000
  H   H43       1.0  0.8777800000000001  0.8879599999999999  0.7116  1.0000
  H   H44       1.0  0.8935699999999999  0.08676  0.69252  1.0000
  H   H45       1.0  0.9099  0.16076999999999994  0.82225  1.0000
  H   H46       1.0  0.8243700000000002  0.83166  0.6036999999999999  1.0000
  H   H47       1.0  0.8155099999999998  0.7586499999999999  0.47712  1.0000
  H   H48       1.0  0.9258300000000002  0.9584999999999999  0.47873  1.0000
  H   H49       1.0  0.9346799999999998  0.031159999999999955  0.60505  1.0000
  H   H50       1.0  0.9635200000000002  0.84533  0.3329  1.0000
  H   H51       1.0  0.75911  0.8714799999999998  0.37251  1.0000
  H   H52       1.0  0.92751  0.7383899999999999  0.45170999999999994  1.0000
  H   H53       1.0  0.83258  0.59752  0.19026  1.0000
  H   H54       1.0  0.8187700000000001  0.7223799999999999  0.25649  1.0000
  H   H55       1.0  0.76207  0.09479999999999995  0.22024999999999997  1.0000
  H   H56       1.0  0.764  0.019779999999999992  0.28073  1.0000
  H   H57       1.0  0.4443  0.67514  0.80584  1.0000
  H   H58       1.0  0.45678  0.54991  0.72683  1.0000
  H   H59       1.0  0.22591  0.4590299999999999  0.6624499999999999  1.0000
  H   H60       1.0  0.21425999999999998  0.5848699999999999  0.73985  1.0000
  H   H61       1.0  0.43356000000000017  0.452  0.60544  1.0000
  H   H62       1.0  0.26861  0.36899  0.68361  1.0000
  H   H63       1.0  0.39581000000000005  0.05139999999999997  0.8571500000000001  1.0000
  H   H64       1.0  0.39282  0.1251800000000001  0.79485  1.0000
  H   H65       1.0  0.36548  0.9272999999999998  0.59729  1.0000
  H   H66       1.0  0.3681  0.85419  0.66107  1.0000
  H   H67       1.0  0.44339  0.18136  0.74442  1.0000
  H   H68       1.0  0.44216  0.25488  0.68233  1.0000
  H   H69       1.0  0.31289  0.9845199999999997  0.5523  1.0000
  H   H70       1.0  0.47332  0.99104  0.13644  1.0000
  H   H71       1.0  0.48543  0.0687  0.26452  1.0000
  H   H72       1.0  0.25631999999999994  0.04010999999999999  0.21932999999999997  1.0000
  H   H73       1.0  0.2447  0.9626399999999999  0.09171  1.0000
  H   H74       1.0  0.4587899999999999  0.05643000000000001  0.35877  1.0000
  H   H75       1.0  0.46152000000000004  0.11814999999999998  0.48604  1.0000
  H   H76       1.0  0.30102  0.21941  0.44485  1.0000
  H   H77       1.0  0.29736  0.15687999999999994  0.31723999999999997  1.0000
  H   H78       1.0  0.31343  0.057949999999999946  0.48994999999999994  1.0000
  H   H79       1.0  0.28548  0.24334  0.62325  1.0000
  H   H80       1.0  0.4497999999999999  0.32539  0.54414  1.0000
  H   H81       1.0  0.54139  0.9543399999999999  0.02852  1.0000
  H   H82       1.0  0.50051  0.80996  0.81331  1.0000
  H   H83       1.0  0.63181  0.8125099999999998  0.82511  1.0000
  H   H84       1.0  0.67322  0.9657399999999998  0.04897999999999999  1.0000
  H   H85       1.0  0.99412  0.94437  0.03265  1.0000
  H   H86       1.0  0.86986  0.96223  0.01714  1.0000
  H   H87       1.0  0.93938  0.7633999999999999  0.83104  1.0000
  H   H88       1.0  0.8126299999999999  0.7738499999999998  0.8059  1.0000
  H   H89       1.0  0.05349999999999996  0.9611099999999998  0.84985  1.0000
  H   H90       1.0  0.05050999999999996  0.03785999999999989  0.7912999999999999  1.0000
  H   H91       1.0  0.03796999999999996  0.07890999999999991  0.72698  1.0000
  H   H92       1.0  0.24534  0.05700999999999998  0.69066  1.0000
  H   H93       1.0  0.004130000000000022  0.59689  0.75457  1.0000
  H   H94       1.0  0.01214000000000001  0.46829  0.68435  1.0000
  H   H95       1.0  0.20276  0.5179099999999999  0.84369  1.0000
  H   H96       1.0  0.19384999999999997  0.64579  0.91294  1.0000
  H   H97       1.0  0.062139999999999966  0.3882199999999999  0.6144399999999999  1.0000
  H   H98       1.0  0.11505  0.038520000000000006  0.16078  1.0000
  H   H99       1.0  0.12221999999999998  0.11203999999999997  0.2884  1.0000
  H   H100      1.0  0.10642999999999998  0.9132299999999998  0.3074799999999999  1.0000
  H   H101      1.0  0.09010999999999997  0.83923  0.17775  1.0000
  H   H102      1.0  0.17563  0.16834  0.39629  1.0000
  H   H103      1.0  0.18449  0.24135  0.52288  1.0000
  H   H104      1.0  0.07416999999999999  0.041499999999999974  0.52127  1.0000
  H   H105      1.0  0.06531999999999995  0.9688399999999998  0.39495  1.0000
  H   H106      1.0  0.036479999999999985  0.15466999999999997  0.6671  1.0000
  H   H107      1.0  0.24088999999999997  0.12852  0.62748  1.0000
  H   H108      1.0  0.07249  0.26161  0.54829  1.0000
  H   H109      1.0  0.16742  0.40248  0.80974  1.0000
  H   H110      1.0  0.18124  0.2776199999999999  0.74351  1.0000
  H   H111      1.0  0.23792999999999997  0.9052  0.7797499999999998  1.0000
  H   H112      1.0  0.236  0.9802199999999999  0.71927  1.0000
  C   C1        1.0  0.67764  0.28895  0.17099  1.0000
  C   C2        1.0  0.67135  0.36274  0.22152  1.0000
  C   C3        1.0  0.60299  0.37249  0.22658  1.0000
  C   C4        1.0  0.59638  0.44237999999999994  0.27090999999999993  1.0000
  C   C5        1.0  0.65773  0.50457  0.31012  1.0000
  C   C6        1.0  0.72614  0.4937499999999999  0.30639  1.0000
  C   C7        1.0  0.73299  0.42355999999999994  0.26311  1.0000
  C   C8        1.0  0.64983  0.5799999999999998  0.35058  1.0000
  C   C9        1.0  0.59889  0.5936200000000001  0.39048  1.0000
  C   C10       1.0  0.6917099999999999  0.64019  0.34699  1.0000
  C   C11       1.0  0.61211  0.09719  0.19961  1.0000
  C   C12       1.0  0.6176900000000002  0.05216000000000002  0.23681  1.0000
  C   C13       1.0  0.61062  0.9754599999999999  0.19978  1.0000
  C   C14       1.0  0.61175  0.93397  0.23512999999999998  1.0000
  C   C15       1.0  0.62046  0.96755  0.30902  1.0000
  C   C16       1.0  0.6286  0.04500999999999999  0.34584  1.0000
  C   C17       1.0  0.62699  0.08641  0.31048  1.0000
  C   C18       1.0  0.6212  0.92352  0.3465  1.0000
  C   C19       1.0  0.58623  0.84623  0.31112  1.0000
  C   C20       1.0  0.58604  0.80445  0.34606  1.0000
  C   C21       1.0  0.65694  0.95665  0.41898  1.0000
  C   C22       1.0  0.6496899999999999  0.07753999999999985  0.9705799999999999  1.0000
  C   C23       1.0  0.64167  0.028789999999999948  0.89406  1.0000
  C   C24       1.0  0.5739  0.9980699999999998  0.84491  1.0000
  C   C25       1.0  0.56742  0.9547799999999997  0.77297  1.0000
  C   C26       1.0  0.6283399999999999  0.9403699999999998  0.7484  1.0000
  C   C27       1.0  0.6956999999999998  0.9693099999999996  0.7984899999999998  1.0000
  C   C28       1.0  0.70263  0.013620000000000056  0.87034  1.0000
  C   C29       1.0  0.62283  0.8987899999999999  0.67188  1.0000
  C   C30       1.0  0.5758  0.9077099999999998  0.62265  1.0000
  C   C31       1.0  0.57415  0.8732399999999999  0.55104  1.0000
  C   C32       1.0  0.61971  0.82827  0.52629  1.0000
  C   C33       1.0  0.66476  0.81655  0.57438  1.0000
  C   C34       1.0  0.6665  0.8516999999999999  0.64594  1.0000
  C   C35       1.0  0.62132  0.8385599999999998  0.41861  1.0000
  C   C36       1.0  0.6573299999999999  0.9153999999999998  0.45451  1.0000
  C   C37       1.0  0.68216  0.71094  0.38063  1.0000
  C   C38       1.0  0.5895799999999999  0.66453  0.4249899999999999  1.0000
  C   C39       1.0  0.43635000000000007  0.07572  0.01503  1.0000
  C   C40       1.0  0.45883999999999997  0.15758  0.13602  1.0000
  C   C41       1.0  0.38695  0.15548  0.12938  1.0000
  C   C42       1.0  0.33797  0.11046  0.06213  1.0000
  C   C43       1.0  0.36314  0.07014  0.00382  1.0000
  C   C44       1.0  0.16852  0.13333999999999996  0.08896999999999998  1.0000
  C   C45       1.0  0.63077  0.7237999999999999  0.4198  1.0000
  C   C46       1.0  0.04831  0.09229999999999997  0.01619  1.0000
  C   C47       1.0  0.11679000000000002  0.08285  0.02462  1.0000
  C   C48       1.0  0.07865  0.19361  0.12988  1.0000
  C   C49       1.0  0.1483  0.18779999999999997  0.14335999999999996  1.0000
  C   C50       1.0  0.85144  0.11612999999999998  0.14381  1.0000
  C   C51       1.0  0.8540000000000001  0.07153999999999999  0.18124  1.0000
  C   C52       1.0  0.90664  0.03380999999999999  0.17868  1.0000
  C   C53       1.0  0.9080899999999997  0.9908799999999999  0.21231999999999998  1.0000
  C   C54       1.0  0.85686  0.98423  0.24988999999999997  1.0000
  C   C55       1.0  0.8582  0.9387599999999999  0.28598  1.0000
  C   C56       1.0  0.9164299999999999  0.90956  0.29317999999999994  1.0000
  C   C57       1.0  0.80154  0.9232099999999999  0.31478  1.0000
  C   C58       1.0  0.9049999999999999  0.29296  0.12029999999999999  1.0000
  C   C59       1.0  0.90147  0.37031  0.16175  1.0000
  C   C60       1.0  0.9525800000000001  0.42109  0.22648999999999997  1.0000
  C   C61       1.0  0.9476  0.49316999999999994  0.26574999999999993  1.0000
  C   C62       1.0  0.84184  0.4659399999999999  0.17565999999999998  1.0000
  C   C63       1.0  0.84595  0.39365  0.13691999999999996  1.0000
  C   C64       1.0  0.88592  0.59346  0.28208  1.0000
  C   C65       1.0  0.9121499999999999  0.6356199999999997  0.35644  1.0000
  C   C66       1.0  0.9068700000000001  0.10938999999999999  0.91667  1.0000
  C   C67       1.0  0.89846  0.06576999999999987  0.8389199999999998  1.0000
  C   C68       1.0  0.8880299999999999  0.98838  0.80658  1.0000
  C   C69       1.0  0.88268  0.94725  0.7346  1.0000
  C   C70       1.0  0.88525  0.9814299999999998  0.6916199999999999  1.0000
  C   C71       1.0  0.89393  0.05901000000000002  0.72452  1.0000
  C   C72       1.0  0.90195  0.10077999999999991  0.79708  1.0000
  C   C73       1.0  0.87998  0.9377199999999999  0.6154  1.0000
  C   C74       1.0  0.84789  0.8599399999999999  0.57711  1.0000
  C   C75       1.0  0.84291  0.8180899999999999  0.50531  1.0000
  C   C76       1.0  0.8708900000000002  0.85291  0.46847  1.0000
  C   C77       1.0  0.9034699999999999  0.9305599999999999  0.50607  1.0000
  C   C78       1.0  0.9075399999999999  0.97165  0.57765  1.0000
  C   C79       1.0  0.86181  0.8537  0.35681  1.0000
  C   C80       1.0  0.9181500000000001  0.8673999999999998  0.32763  1.0000
  C   C81       1.0  0.80323  0.88174  0.35001999999999994  1.0000
  C   C82       1.0  0.87172  0.74015  0.35938  1.0000
  C   C83       1.0  0.9056599999999999  0.70733  0.39452  1.0000
  C   C84       1.0  0.8523800000000001  0.6272  0.24772999999999998  1.0000
  C   C85       1.0  0.8448  0.6982499999999999  0.2849999999999999  1.0000
  C   C86       1.0  0.80296  0.06571  0.21859  1.0000
  C   C87       1.0  0.89219  0.5173599999999999  0.2412  1.0000
  C   C88       1.0  0.80444  0.022800000000000004  0.25225  1.0000
  C   C89       1.0  0.32236  0.71105  0.82901  1.0000
  C   C90       1.0  0.32865999999999995  0.6372599999999999  0.7784799999999997  1.0000
  C   C91       1.0  0.39701  0.62751  0.77342  1.0000
  C   C92       1.0  0.40362  0.55762  0.72909  1.0000
  C   C93       1.0  0.34228  0.4954199999999999  0.68988  1.0000
  C   C94       1.0  0.27386  0.50625  0.69361  1.0000
  C   C95       1.0  0.26701  0.57644  0.73688  1.0000
  C   C96       1.0  0.35018  0.4199999999999999  0.64942  1.0000
  C   C97       1.0  0.40110999999999997  0.4063799999999999  0.6095199999999998  1.0000
  C   C98       1.0  0.30829  0.3598099999999999  0.6530099999999999  1.0000
  C   C99       1.0  0.38789  0.90281  0.80038  1.0000
  C   C100      1.0  0.38231  0.9478399999999998  0.76319  1.0000
  C   C101      1.0  0.38938  0.024540000000000086  0.80022  1.0000
  C   C102      1.0  0.38824999999999993  0.06602999999999988  0.7648699999999999  1.0000
  C   C103      1.0  0.37954  0.032449999999999916  0.69098  1.0000
  C   C104      1.0  0.37141  0.95499  0.65416  1.0000
  C   C105      1.0  0.37301  0.9135899999999999  0.68952  1.0000
  C   C106      1.0  0.37879999999999997  0.07647999999999995  0.6534999999999999  1.0000
  C   C107      1.0  0.41377  0.15376999999999993  0.68887  1.0000
  C   C108      1.0  0.41396  0.19555  0.65393  1.0000
  C   C109      1.0  0.34306  0.043350000000000014  0.58101  1.0000
  C   C110      1.0  0.35031  0.9224599999999998  0.029419999999999998  1.0000
  C   C111      1.0  0.35833  0.97121  0.10593  1.0000
  C   C112      1.0  0.42610000000000003  0.0019299999999999931  0.15509  1.0000
  C   C113      1.0  0.43257999999999996  0.04522  0.22703  1.0000
  C   C114      1.0  0.37165999999999993  0.059629999999999975  0.2516  1.0000
  C   C115      1.0  0.3043  0.03068999999999998  0.20150999999999997  1.0000
  C   C116      1.0  0.29737  0.98638  0.12966  1.0000
  C   C117      1.0  0.37717  0.10120999999999998  0.32811999999999997  1.0000
  C   C118      1.0  0.4242  0.09228999999999998  0.37735  1.0000
  C   C119      1.0  0.42585999999999996  0.12676  0.44895  1.0000
  C   C120      1.0  0.38029  0.17172999999999997  0.47371  1.0000
  C   C121      1.0  0.33524  0.18344999999999992  0.42561999999999994  1.0000
  C   C122      1.0  0.3335  0.1483  0.35406  1.0000
  C   C123      1.0  0.37869  0.16143999999999997  0.58139  1.0000
  C   C124      1.0  0.34267  0.08459999999999995  0.54549  1.0000
  C   C125      1.0  0.31784  0.28906  0.61937  1.0000
  C   C126      1.0  0.41042000000000006  0.33547  0.57501  1.0000
  C   C127      1.0  0.56365  0.92428  0.98497  1.0000
  C   C128      1.0  0.54116  0.8424199999999997  0.86398  1.0000
  C   C129      1.0  0.61305  0.84451  0.87062  1.0000
  C   C130      1.0  0.66203  0.88954  0.93786  1.0000
  C   C131      1.0  0.6368600000000001  0.92986  0.99618  1.0000
  C   C132      1.0  0.8314799999999999  0.8666599999999999  0.9110299999999999  1.0000
  C   C133      1.0  0.36923  0.2762  0.5802  1.0000
  C   C134      1.0  0.9516899999999999  0.9076999999999998  0.9838099999999999  1.0000
  C   C135      1.0  0.8832199999999998  0.9171499999999998  0.9753799999999999  1.0000
  C   C136      1.0  0.92135  0.80639  0.8701199999999999  1.0000
  C   C137      1.0  0.8517  0.8122  0.85664  1.0000
  C   C138      1.0  0.14855999999999994  0.8838699999999999  0.85619  1.0000
  C   C139      1.0  0.14599999999999994  0.9284599999999997  0.81876  1.0000
  C   C140      1.0  0.09335999999999994  0.9661899999999998  0.82132  1.0000
  C   C141      1.0  0.09191999999999992  0.00911999999999981  0.7876799999999998  1.0000
  C   C142      1.0  0.14314  0.015770000000000006  0.75011  1.0000
  C   C143      1.0  0.14179999999999998  0.061239999999999996  0.71402  1.0000
  C   C144      1.0  0.08357  0.09044000000000002  0.70682  1.0000
  C   C145      1.0  0.19846  0.07678999999999998  0.68522  1.0000
  C   C146      1.0  0.09499999999999993  0.7070399999999998  0.8796999999999999  1.0000
  C   C147      1.0  0.09853  0.62969  0.83825  1.0000
  C   C148      1.0  0.04741999999999998  0.5788999999999999  0.77351  1.0000
  C   C149      1.0  0.05241000000000001  0.50683  0.73425  1.0000
  C   C150      1.0  0.15816000000000005  0.53406  0.82433  1.0000
  C   C151      1.0  0.15405000000000002  0.6063500000000001  0.86308  1.0000
  C   C152      1.0  0.11408  0.40653999999999996  0.71792  1.0000
  C   C153      1.0  0.08785999999999997  0.36437999999999987  0.64356  1.0000
  C   C154      1.0  0.09312999999999998  0.8906099999999999  0.08333  1.0000
  C   C155      1.0  0.10154  0.93423  0.16108  1.0000
  C   C156      1.0  0.11196999999999999  0.01161999999999997  0.19341999999999998  1.0000
  C   C157      1.0  0.11731999999999998  0.05274999999999998  0.2654  1.0000
  C   C158      1.0  0.11475  0.01857000000000001  0.30838  1.0000
  C   C159      1.0  0.10607  0.94099  0.27548  1.0000
  C   C160      1.0  0.09805000000000004  0.89922  0.20292  1.0000
  C   C161      1.0  0.12002  0.06228  0.3846  1.0000
  C   C162      1.0  0.15211  0.14006000000000002  0.42289  1.0000
  C   C163      1.0  0.1571  0.18190999999999996  0.49469  1.0000
  C   C164      1.0  0.12911  0.14708999999999997  0.53153  1.0000
  C   C165      1.0  0.09653  0.06944  0.49393  1.0000
  C   C166      1.0  0.09246999999999998  0.028349999999999966  0.42235  1.0000
  C   C167      1.0  0.13819  0.1463  0.64319  1.0000
  C   C168      1.0  0.08185  0.1326  0.67237  1.0000
  C   C169      1.0  0.19678  0.11826000000000002  0.64998  1.0000
  C   C170      1.0  0.12827999999999995  0.2598499999999999  0.6406199999999999  1.0000
  C   C171      1.0  0.09433999999999997  0.2926699999999999  0.60548  1.0000
  C   C172      1.0  0.14761999999999995  0.3727999999999999  0.7522699999999999  1.0000
  C   C173      1.0  0.15519999999999998  0.30174999999999996  0.715  1.0000
  C   C174      1.0  0.19703999999999997  0.9342899999999998  0.78141  1.0000
  C   C175      1.0  0.10781999999999994  0.4826399999999998  0.7587999999999999  1.0000
  C   C176      1.0  0.19556  0.9772  0.74775  1.0000
  N   N1        1.0  0.48317  0.11853  0.07958  1.0000
  N   N2        1.0  0.26336999999999994  0.10517999999999997  0.04795  1.0000
  N   N3        1.0  0.24194000000000002  0.13468  0.10366  1.0000
  N   N4        1.0  0.029670000000000002  0.14723  0.06716  1.0000
  N   N5        1.0  0.62089  0.79599  0.45406  1.0000
  N   N6        1.0  0.86515  0.8130499999999999  0.39501  1.0000
  N   N7        1.0  0.51684  0.88147  0.92041  1.0000
  N   N8        1.0  0.73664  0.89482  0.95205  1.0000
  N   N9        1.0  0.75806  0.86532  0.8963399999999999  1.0000
  N   N10       1.0  0.97033  0.8527699999999997  0.9328399999999999  1.0000
  N   N11       1.0  0.37911  0.20401  0.54594  1.0000
  N   N12       1.0  0.13486  0.18695  0.60499  1.0000
  O   O1        1.0  0.61938  0.23781999999999998  0.13064  1.0000
  O   O2        1.0  0.7411699999999999  0.28209  0.16988  1.0000
  O   O3        1.0  0.6167  0.06586999999999998  0.13376  1.0000
  O   O4        1.0  0.71426  0.11197999999999997  0.0098  1.0000
  O   O5        1.0  0.59268  0.08143  0.9922699999999999  1.0000
  O   O6        1.0  0.60183  0.15985999999999997  0.23025999999999996  1.0000
  O   O7        1.0  0.81119  0.15988  0.15956  1.0000
  O   O8        1.0  0.84788  0.24191999999999997  0.07227  1.0000
  O   O9        1.0  0.9629499999999998  0.27581999999999995  0.13017  1.0000
  O   O10       1.0  0.8852099999999999  0.07250000000000001  0.94828  1.0000
  O   O11       1.0  0.8888700000000002  0.10699  0.09923  1.0000
  O   O12       1.0  0.9363400000000001  0.17897999999999997  0.9507  1.0000
  O   O13       1.0  0.38062  0.76218  0.86936  1.0000
  O   O14       1.0  0.25882999999999995  0.7178999999999998  0.83011  1.0000
  O   O15       1.0  0.3832999999999999  0.9341299999999999  0.86624  1.0000
  O   O16       1.0  0.28574  0.88802  0.9902  1.0000
  O   O17       1.0  0.40733  0.91856  0.00773  1.0000
  O   O18       1.0  0.39818  0.84014  0.76974  1.0000
  O   O19       1.0  0.18880999999999998  0.8401199999999999  0.84044  1.0000
  O   O20       1.0  0.15211999999999998  0.7580799999999999  0.9277299999999999  1.0000
  O   O21       1.0  0.03706000000000002  0.72418  0.86983  1.0000
  O   O22       1.0  0.1147899999999999  0.9274999999999998  0.051719999999999995  1.0000
  O   O23       1.0  0.11113  0.8929999999999999  0.90077  1.0000
  O   O24       1.0  0.06365999999999998  0.8210199999999999  0.04929999999999999  1.0000
