data_image0
_chemical_formula_structural       Gd4H44C108N28O76
_chemical_formula_sum              "Gd4 H44 C108 N28 O76"
_cell_length_a       14.7128
_cell_length_b       19.33057
_cell_length_c       19.33158
_cell_angle_alpha    100.07066
_cell_angle_beta     92.00279
_cell_angle_gamma    92.00244

_space_group_name_H-M_alt    "P 1"
_space_group_IT_number       1

loop_
  _space_group_symop_operation_xyz
  'x, y, z'

loop_
  _atom_site_type_symbol
  _atom_site_label
  _atom_site_symmetry_multiplicity
  _atom_site_fract_x
  _atom_site_fract_y
  _atom_site_fract_z
  _atom_site_occupancy
  Gd  Gd1       1.0  0.37550000000000006  0.4566400000000001  0.9876200000000002  1.0000
  Gd  Gd2       1.0  0.12450000000000003  0.012389999999999993  0.54337  1.0000
  Gd  Gd3       1.0  0.6244900000000002  0.54336  0.01239  1.0000
  Gd  Gd4       1.0  0.8755  0.9876199999999999  0.45664  1.0000
  H   H1        1.0  0.44294  0.30947  0.12922000000000003  1.0000
  H   H2        1.0  0.7069000000000002  0.41532  0.16689  1.0000
  H   H3        1.0  0.76148  0.04862999999999999  0.23636  1.0000
  H   H4        1.0  0.67011  0.17306  0.42645000000000005  1.0000
  H   H5        1.0  0.6881900000000001  0.43593999999999994  0.86201  1.0000
  H   H6        1.0  0.5055500000000003  0.25259000000000004  0.8421400000000001  1.0000
  H   H7        1.0  0.14509000000000005  0.47373999999999994  0.9916400000000001  1.0000
  H   H8        1.0  0.017160000000000005  0.55623  0.9851700000000001  1.0000
  H   H9        1.0  0.21928000000000006  0.72133  0.9789  1.0000
  H   H10       1.0  0.33827  0.63328  0.9848800000000001  1.0000
  H   H11       1.0  0.05699  0.74913  0.97432  1.0000
  H   H12       1.0  0.05705999999999999  0.8707799999999999  0.69053  1.0000
  H   H13       1.0  0.7931000000000001  0.8331099999999999  0.5846900000000002  1.0000
  H   H14       1.0  0.73852  0.76365  0.95137  1.0000
  H   H15       1.0  0.82989  0.57354  0.8269400000000001  1.0000
  H   H16       1.0  0.8118  0.138  0.56406  1.0000
  H   H17       1.0  0.9944500000000002  0.15785000000000002  0.7473900000000001  1.0000
  H   H18       1.0  0.3549100000000001  0.00836  0.52626  1.0000
  H   H19       1.0  0.4828300000000001  0.014839999999999994  0.44376  1.0000
  H   H20       1.0  0.28071  0.0211  0.27868  1.0000
  H   H21       1.0  0.16172000000000003  0.015120000000000001  0.36673  1.0000
  H   H22       1.0  0.4429900000000001  0.02568  0.25087  1.0000
  H   H23       1.0  0.5570600000000002  0.69053  0.8707800000000002  1.0000
  H   H24       1.0  0.2931  0.5846800000000001  0.83311  1.0000
  H   H25       1.0  0.23851999999999998  0.9513699999999999  0.76365  1.0000
  H   H26       1.0  0.32989  0.82694  0.57355  1.0000
  H   H27       1.0  0.31180000000000013  0.5640599999999998  0.13799  1.0000
  H   H28       1.0  0.49445  0.74741  0.15786  1.0000
  H   H29       1.0  0.8549000000000002  0.52626  0.00836  1.0000
  H   H30       1.0  0.9828300000000002  0.44376999999999994  0.014840000000000002  1.0000
  H   H31       1.0  0.78072  0.27867  0.0211  1.0000
  H   H32       1.0  0.66173  0.36671999999999993  0.015130000000000001  1.0000
  H   H33       1.0  0.943  0.2508699999999999  0.02568  1.0000
  H   H34       1.0  0.9429400000000002  0.12922  0.30947  1.0000
  H   H35       1.0  0.20690000000000006  0.16689  0.41531  1.0000
  H   H36       1.0  0.26148000000000005  0.23635  0.04864  1.0000
  H   H37       1.0  0.17010000000000006  0.42645999999999995  0.17306000000000002  1.0000
  H   H38       1.0  0.1882  0.862  0.43594000000000005  1.0000
  H   H39       1.0  0.005540000000000003  0.84215  0.25261  1.0000
  H   H40       1.0  0.64509  0.9916499999999999  0.47374  1.0000
  H   H41       1.0  0.51716  0.9851699999999999  0.55624  1.0000
  H   H42       1.0  0.71928  0.9789  0.7213200000000001  1.0000
  H   H43       1.0  0.83827  0.9848799999999999  0.6332800000000001  1.0000
  H   H44       1.0  0.557  0.97432  0.74913  1.0000
  C   C1        1.0  0.54043  0.42354  0.10281  1.0000
  C   C2        1.0  0.57008  0.37021  0.14549  1.0000
  C   C3        1.0  0.51159  0.31383  0.15252  1.0000
  C   C4        1.0  0.54121  0.2625799999999999  0.18951  1.0000
  C   C5        1.0  0.6302500000000002  0.26377  0.21929000000000004  1.0000
  C   C6        1.0  0.68829  0.32018  0.20801  1.0000
  C   C7        1.0  0.6592900000000002  0.37294  0.17339  1.0000
  C   C8        1.0  0.66169  0.20844999999999997  0.25862000000000007  1.0000
  C   C9        1.0  0.70154  0.14646  0.22623  1.0000
  C   C10       1.0  0.7312700000000002  0.09558  0.26393  1.0000
  C   C11       1.0  0.7234100000000002  0.10635999999999998  0.33666000000000007  1.0000
  C   C12       1.0  0.68013  0.16544  0.3702  1.0000
  C   C13       1.0  0.64916  0.21423000000000003  0.3313  1.0000
  C   C14       1.0  0.7605300000000003  0.05646  0.3801  1.0000
  C   C15       1.0  0.52123  0.3895  0.90232  1.0000
  C   C16       1.0  0.58846  0.34907  0.85703  1.0000
  C   C17       1.0  0.6709000000000003  0.38058  0.84221  1.0000
  C   C18       1.0  0.7315900000000002  0.34071000000000007  0.7999200000000001  1.0000
  C   C19       1.0  0.7166100000000001  0.26822999999999997  0.77476  1.0000
  C   C20       1.0  0.63448  0.23837  0.79343  1.0000
  C   C21       1.0  0.56946  0.2777  0.83116  1.0000
  C   C22       1.0  0.15856000000000006  0.52861  0.9876500000000001  1.0000
  C   C23       1.0  0.08802  0.57414  0.98483  1.0000
  C   C24       1.0  0.10871999999999998  0.6445999999999998  0.98129  1.0000
  C   C25       1.0  0.20017000000000004  0.66682  0.9812400000000002  1.0000
  C   C26       1.0  0.26657000000000003  0.61769  0.9842100000000001  1.0000
  C   C27       1.0  0.03453  0.69472  0.9780800000000001  1.0000
  C   C28       1.0  0.95957  0.8971900000000002  0.5764700000000001  1.0000
  C   C29       1.0  0.92992  0.8545099999999999  0.6298000000000001  1.0000
  C   C30       1.0  0.9884100000000002  0.84748  0.6861800000000002  1.0000
  C   C31       1.0  0.95878  0.81049  0.73742  1.0000
  C   C32       1.0  0.86974  0.7807099999999999  0.73624  1.0000
  C   C33       1.0  0.8117000000000002  0.792  0.6798300000000002  1.0000
  C   C34       1.0  0.8407100000000002  0.82661  0.62707  1.0000
  C   C35       1.0  0.8383000000000003  0.7413800000000001  0.7915600000000003  1.0000
  C   C36       1.0  0.79846  0.77378  0.8535400000000001  1.0000
  C   C37       1.0  0.7687300000000002  0.73607  0.9044200000000001  1.0000
  C   C38       1.0  0.7765900000000002  0.6633399999999998  0.89364  1.0000
  C   C39       1.0  0.81986  0.6298  0.8345600000000001  1.0000
  C   C40       1.0  0.8508300000000001  0.6687  0.78577  1.0000
  C   C41       1.0  0.7394700000000002  0.6198999999999999  0.9435400000000002  1.0000
  C   C42       1.0  0.9787600000000002  0.09768000000000002  0.61049  1.0000
  C   C43       1.0  0.9115300000000002  0.14297  0.65092  1.0000
  C   C44       1.0  0.82909  0.15778999999999999  0.61942  1.0000
  C   C45       1.0  0.7684  0.20008  0.65929  1.0000
  C   C46       1.0  0.78338  0.22524  0.7317700000000003  1.0000
  C   C47       1.0  0.86552  0.20657  0.76162  1.0000
  C   C48       1.0  0.93054  0.16884000000000002  0.7222800000000001  1.0000
  C   C49       1.0  0.34144000000000013  0.012360000000000001  0.47139  1.0000
  C   C50       1.0  0.41197  0.015170000000000008  0.42586000000000007  1.0000
  C   C51       1.0  0.39127  0.01872000000000001  0.3554100000000001  1.0000
  C   C52       1.0  0.29982  0.018770000000000023  0.3331900000000001  1.0000
  C   C53       1.0  0.23342  0.015790000000000002  0.38232  1.0000
  C   C54       1.0  0.46546000000000004  0.021930000000000012  0.30529  1.0000
  C   C55       1.0  0.45956000000000014  0.57646  0.8971900000000002  1.0000
  C   C56       1.0  0.4299100000000001  0.62979  0.85451  1.0000
  C   C57       1.0  0.4884100000000001  0.68617  0.84748  1.0000
  C   C58       1.0  0.45878  0.73742  0.81049  1.0000
  C   C59       1.0  0.36974  0.73623  0.78071  1.0000
  C   C60       1.0  0.3117100000000002  0.67982  0.792  1.0000
  C   C61       1.0  0.3407100000000001  0.62706  0.82661  1.0000
  C   C62       1.0  0.3383  0.7915499999999999  0.74138  1.0000
  C   C63       1.0  0.29846000000000006  0.8535400000000001  0.7737800000000001  1.0000
  C   C64       1.0  0.26873  0.90442  0.73607  1.0000
  C   C65       1.0  0.27659  0.8936400000000001  0.66334  1.0000
  C   C66       1.0  0.31987  0.8345600000000001  0.62981  1.0000
  C   C67       1.0  0.35083  0.78577  0.6687  1.0000
  C   C68       1.0  0.23947000000000004  0.94354  0.6199  1.0000
  C   C69       1.0  0.4787700000000001  0.6105  0.09768000000000003  1.0000
  C   C70       1.0  0.4115300000000001  0.65093  0.14297  1.0000
  C   C71       1.0  0.32909  0.61942  0.15779  1.0000
  C   C72       1.0  0.2684  0.65929  0.20008000000000004  1.0000
  C   C73       1.0  0.28338000000000013  0.73177  0.22524  1.0000
  C   C74       1.0  0.3655100000000001  0.7616300000000001  0.20658000000000007  1.0000
  C   C75       1.0  0.43053  0.7223  0.16885  1.0000
  C   C76       1.0  0.8414400000000002  0.4713899999999999  0.012360000000000003  1.0000
  C   C77       1.0  0.9119700000000002  0.42585999999999996  0.015170000000000003  1.0000
  C   C78       1.0  0.8912700000000002  0.3554  0.01872  1.0000
  C   C79       1.0  0.7998200000000001  0.33318  0.01877  1.0000
  C   C80       1.0  0.73342  0.38232  0.01579  1.0000
  C   C81       1.0  0.9654800000000002  0.30528999999999995  0.02193  1.0000
  C   C82       1.0  0.04043000000000001  0.10281  0.42354  1.0000
  C   C83       1.0  0.07008000000000003  0.14549  0.37021  1.0000
  C   C84       1.0  0.011590000000000001  0.15252  0.31383  1.0000
  C   C85       1.0  0.041210000000000004  0.18950999999999998  0.26258  1.0000
  C   C86       1.0  0.13025000000000006  0.21928999999999998  0.26377  1.0000
  C   C87       1.0  0.18829  0.20799999999999996  0.32017  1.0000
  C   C88       1.0  0.15929  0.17338999999999996  0.37293  1.0000
  C   C89       1.0  0.1616900000000001  0.25862  0.20845  1.0000
  C   C90       1.0  0.20154  0.22622999999999996  0.14646000000000006  1.0000
  C   C91       1.0  0.23126000000000002  0.26393  0.09559  1.0000
  C   C92       1.0  0.22341000000000005  0.33667  0.10636000000000001  1.0000
  C   C93       1.0  0.18013000000000007  0.3702  0.16545  1.0000
  C   C94       1.0  0.14917  0.33131  0.21424  1.0000
  C   C95       1.0  0.2605300000000001  0.38011  0.05646  1.0000
  C   C96       1.0  0.021230000000000002  0.90232  0.3895100000000001  1.0000
  C   C97       1.0  0.08846000000000002  0.85703  0.3490800000000001  1.0000
  C   C98       1.0  0.17091  0.84221  0.38058000000000003  1.0000
  C   C99       1.0  0.23159000000000005  0.7999199999999999  0.3407100000000001  1.0000
  C   C100      1.0  0.21661  0.77476  0.26824  1.0000
  C   C101      1.0  0.13447  0.79343  0.23839  1.0000
  C   C102      1.0  0.06946  0.8311599999999999  0.27772  1.0000
  C   C103      1.0  0.65855  0.9876499999999999  0.52861  1.0000
  C   C104      1.0  0.58802  0.9848299999999999  0.57415  1.0000
  C   C105      1.0  0.60872  0.98129  0.6446  1.0000
  C   C106      1.0  0.70018  0.98123  0.66682  1.0000
  C   C107      1.0  0.7665700000000002  0.98421  0.61768  1.0000
  C   C108      1.0  0.53453  0.9780700000000002  0.6947100000000002  1.0000
  N   N1        1.0  0.47359  0.20562  0.19484  1.0000
  N   N2        1.0  0.78527  0.32451  0.23111000000000004  1.0000
  N   N3        1.0  0.71495  0.13318  0.1496  1.0000
  N   N4        1.0  0.6004000000000003  0.2736  0.36941  1.0000
  N   N5        1.0  0.8154400000000002  0.37766999999999995  0.7824300000000002  1.0000
  N   N6        1.0  0.6146100000000002  0.16194  0.77416  1.0000
  N   N7        1.0  0.24718  0.5493599999999998  0.98663  1.0000
  N   N8        1.0  0.0264  0.80516  0.79438  1.0000
  N   N9        1.0  0.71473  0.7689000000000001  0.6755000000000001  1.0000
  N   N10       1.0  0.7850400000000001  0.8504  0.8668200000000001  1.0000
  N   N11       1.0  0.89959  0.63059  0.7264100000000002  1.0000
  N   N12       1.0  0.68456  0.21757999999999997  0.62233  1.0000
  N   N13       1.0  0.88538  0.22584  0.83804  1.0000
  N   N14       1.0  0.25282  0.01337000000000001  0.45064000000000004  1.0000
  N   N15       1.0  0.5264100000000002  0.79438  0.8051600000000001  1.0000
  N   N16       1.0  0.21473000000000003  0.6755  0.7689000000000001  1.0000
  N   N17       1.0  0.28504  0.86682  0.8504  1.0000
  N   N18       1.0  0.3995900000000001  0.72641  0.6306  1.0000
  N   N19       1.0  0.18456000000000006  0.62233  0.21757  1.0000
  N   N20       1.0  0.3853800000000001  0.83807  0.22584  1.0000
  N   N21       1.0  0.7528100000000002  0.45064  0.013370000000000002  1.0000
  N   N22       1.0  0.9735900000000002  0.19484  0.20562  1.0000
  N   N23       1.0  0.28527000000000013  0.2311  0.32450000000000007  1.0000
  N   N24       1.0  0.21495000000000006  0.1496  0.13318  1.0000
  N   N25       1.0  0.10041000000000001  0.36941  0.2736  1.0000
  N   N26       1.0  0.31544  0.78243  0.37767  1.0000
  N   N27       1.0  0.11462000000000001  0.77416  0.16196  1.0000
  N   N28       1.0  0.74718  0.9866300000000001  0.54937  1.0000
  O   O1        1.0  0.46372  0.41057  0.06957000000000002  1.0000
  O   O2        1.0  0.59535  0.47545999999999994  0.10051  1.0000
  O   O3        1.0  0.7690700000000003  0.07702  0.4470100000000001  1.0000
  O   O4        1.0  0.7862700000000002  0.99623  0.35119  1.0000
  O   O5        1.0  0.41106  0.19433999999999998  0.14908  1.0000
  O   O6        1.0  0.48227  0.17332  0.24461000000000002  1.0000
  O   O7        1.0  0.8365000000000002  0.3643600000000001  0.20512000000000005  1.0000
  O   O8        1.0  0.8095800000000002  0.28776999999999997  0.27458  1.0000
  O   O9        1.0  0.70903  0.18397  0.11806000000000001  1.0000
  O   O10       1.0  0.73165  0.07281  0.12158000000000001  1.0000
  O   O11       1.0  0.59966  0.32866  0.3443000000000001  1.0000
  O   O12       1.0  0.56375  0.26432  0.42381  1.0000
  O   O13       1.0  0.55042  0.44497999999999993  0.94534  1.0000
  O   O14       1.0  0.43902000000000013  0.3678999999999999  0.8992400000000002  1.0000
  O   O15       1.0  0.84487  0.42926  0.8258300000000001  1.0000
  O   O16       1.0  0.8498500000000001  0.35436999999999996  0.72584  1.0000
  O   O17       1.0  0.6804200000000002  0.12292999999999998  0.77068  1.0000
  O   O18       1.0  0.5336  0.14194  0.76395  1.0000
  O   O19       1.0  0.9540000000000002  0.67695  0.97912  1.0000
  O   O20       1.0  0.03628  0.9304299999999999  0.58943  1.0000
  O   O21       1.0  0.90465  0.89949  0.52455  1.0000
  O   O22       1.0  0.7309300000000002  0.55298  0.92298  1.0000
  O   O23       1.0  0.71372  0.6488099999999999  0.0037700000000000003  1.0000
  O   O24       1.0  0.08893000000000001  0.8509299999999999  0.80566  1.0000
  O   O25       1.0  0.017720000000000003  0.7553900000000001  0.82668  1.0000
  O   O26       1.0  0.66349  0.7948900000000001  0.63564  1.0000
  O   O27       1.0  0.6904200000000003  0.72542  0.7122400000000001  1.0000
  O   O28       1.0  0.79097  0.88195  0.8160300000000001  1.0000
  O   O29       1.0  0.76835  0.87842  0.92719  1.0000
  O   O30       1.0  0.90032  0.6557  0.6713400000000002  1.0000
  O   O31       1.0  0.93625  0.57619  0.73568  1.0000
  O   O32       1.0  0.9495700000000001  0.05466000000000001  0.5550100000000001  1.0000
  O   O33       1.0  0.06097000000000003  0.10076000000000003  0.6321000000000002  1.0000
  O   O34       1.0  0.6551200000000003  0.17417999999999997  0.57075  1.0000
  O   O35       1.0  0.65014  0.27417  0.64564  1.0000
  O   O36       1.0  0.81955  0.22932  0.87703  1.0000
  O   O37       1.0  0.9663900000000002  0.23605  0.8580600000000002  1.0000
  O   O38       1.0  0.54599  0.020880000000000024  0.32305000000000006  1.0000
  O   O39       1.0  0.53628  0.5894299999999999  0.9304300000000001  1.0000
  O   O40       1.0  0.40465  0.52454  0.8995  1.0000
  O   O41       1.0  0.23093000000000008  0.92298  0.55299  1.0000
  O   O42       1.0  0.21372000000000005  0.0037700000000000025  0.64881  1.0000
  O   O43       1.0  0.58893  0.8056599999999999  0.85093  1.0000
  O   O44       1.0  0.51772  0.82668  0.75539  1.0000
  O   O45       1.0  0.16349000000000005  0.63564  0.7948900000000002  1.0000
  O   O46       1.0  0.19042  0.71223  0.72542  1.0000
  O   O47       1.0  0.29097  0.81603  0.8819400000000001  1.0000
  O   O48       1.0  0.26835  0.9271899999999998  0.87842  1.0000
  O   O49       1.0  0.40033000000000013  0.6713399999999999  0.6557000000000001  1.0000
  O   O50       1.0  0.4362400000000001  0.73568  0.5761900000000001  1.0000
  O   O51       1.0  0.44957000000000014  0.55502  0.05466000000000001  1.0000
  O   O52       1.0  0.5609800000000003  0.6321  0.10076000000000003  1.0000
  O   O53       1.0  0.15513  0.57075  0.17418  1.0000
  O   O54       1.0  0.15014000000000005  0.64564  0.27417  1.0000
  O   O55       1.0  0.31957  0.87708  0.22932000000000005  1.0000
  O   O56       1.0  0.4663999999999999  0.85807  0.23606000000000002  1.0000
  O   O57       1.0  0.04598  0.32305000000000006  0.020890000000000006  1.0000
  O   O58       1.0  0.96372  0.06956999999999999  0.41057  1.0000
  O   O59       1.0  0.09534000000000002  0.10051  0.47546  1.0000
  O   O60       1.0  0.26907  0.44702  0.07702  1.0000
  O   O61       1.0  0.28627  0.35119  0.99624  1.0000
  O   O62       1.0  0.91107  0.14907  0.19434000000000007  1.0000
  O   O63       1.0  0.98228  0.24461  0.17332000000000006  1.0000
  O   O64       1.0  0.3365000000000001  0.20511999999999997  0.36436  1.0000
  O   O65       1.0  0.30958000000000013  0.27458  0.28777  1.0000
  O   O66       1.0  0.20903  0.11805  0.18397  1.0000
  O   O67       1.0  0.23165  0.12158  0.07282  1.0000
  O   O68       1.0  0.09967000000000001  0.3443  0.32866  1.0000
  O   O69       1.0  0.06375  0.42381  0.26432  1.0000
  O   O70       1.0  0.050420000000000006  0.9453399999999998  0.44499  1.0000
  O   O71       1.0  0.93903  0.89924  0.36791  1.0000
  O   O72       1.0  0.34487  0.82583  0.42925  1.0000
  O   O73       1.0  0.34985  0.72583  0.35436  1.0000
  O   O74       1.0  0.18045000000000005  0.77068  0.12298000000000002  1.0000
  O   O75       1.0  0.033610000000000015  0.76395  0.14194  1.0000
  O   O76       1.0  0.45401  0.97912  0.67695  1.0000
