data_image0
_chemical_formula_structural       Ca8Cd8H64C128O64
_chemical_formula_sum              "Ca8 Cd8 H64 C128 O64"
_cell_length_a       14.10404
_cell_length_b       20.30044
_cell_length_c       20.54853
_cell_angle_alpha    108.71749
_cell_angle_beta     90.04863
_cell_angle_gamma    90.11426

_symmetry_space_group_name_H-M    'P 1'
_symmetry_Int_Tables_number       1

loop_
  _symmetry_equiv_pos_as_xyz
  'x,y,z'

loop_
  _atom_site_type_symbol
  _atom_site_label
  _atom_site_symmetry_multiplicity
  _atom_site_fract_x
  _atom_site_fract_y
  _atom_site_fract_z
  _atom_site_occupancy
  Ca  Ca1       1.0  0.45584  0.78196  0.54402  1.0000
  Ca  Ca2       1.0  0.8055000000000001  0.70397  0.95282  1.0000
  Ca  Ca3       1.0  0.1945  0.29601999999999995  0.04718  1.0000
  Ca  Ca4       1.0  0.30525  0.79466  0.04655  1.0000
  Ca  Ca5       1.0  0.69474  0.20533000000000007  0.95345  1.0000
  Ca  Ca6       1.0  0.95615  0.71824  0.45645  1.0000
  Ca  Ca7       1.0  0.54415  0.21803000000000003  0.45598  1.0000
  Ca  Ca8       1.0  0.04384999999999999  0.28176  0.54355  1.0000
  Cd  Cd1       1.0  0.94166  0.2413  0.021159999999999998  1.0000
  Cd  Cd2       1.0  0.69668  0.74294  0.47295  1.0000
  Cd  Cd3       1.0  0.05834  0.7587  0.97884  1.0000
  Cd  Cd4       1.0  0.80363  0.24163  0.47248  1.0000
  Cd  Cd5       1.0  0.55907  0.74108  0.02163  1.0000
  Cd  Cd6       1.0  0.30332  0.25706  0.52705  1.0000
  Cd  Cd7       1.0  0.44093  0.25891999999999993  0.97838  1.0000
  Cd  Cd8       1.0  0.19637  0.75837  0.52752  1.0000
  H   H1        1.0  0.92789  0.61765  0.53233  1.0000
  H   H2        1.0  0.4732  0.29486  0.22281999999999996  1.0000
  H   H3        1.0  0.64463  0.36908  0.96956  1.0000
  H   H4        1.0  0.66486  0.50201  0.45735  1.0000
  H   H5        1.0  0.35537  0.63091  0.03044  1.0000
  H   H6        1.0  0.1938  0.7865500000000001  0.77948  1.0000
  H   H7        1.0  0.30648999999999993  0.2860800000000001  0.77876  1.0000
  H   H8        1.0  0.21756  0.72408  0.28264  1.0000
  H   H9        1.0  0.70912  0.27173  0.82661  1.0000
  H   H10       1.0  0.1735  0.48537  0.47785000000000005  1.0000
  H   H11       1.0  0.009200000000000002  0.26592  0.38181  1.0000
  H   H12       1.0  0.68149  0.09378  0.04163  1.0000
  H   H13       1.0  0.43618  0.23273  0.72637  1.0000
  H   H14       1.0  0.76716  0.71942  0.11401999999999998  1.0000
  H   H15       1.0  0.26772  0.78004  0.88628  1.0000
  H   H16       1.0  0.93779  0.97736  0.9699299999999998  1.0000
  H   H17       1.0  0.49037  0.7654199999999999  0.3817499999999999  1.0000
  H   H18       1.0  0.81911  0.59402  0.04194  1.0000
  H   H19       1.0  0.9544100000000001  0.78638  0.33069  1.0000
  H   H20       1.0  0.50963  0.23457999999999998  0.61825  1.0000
  H   H21       1.0  0.31851  0.90621  0.9583699999999999  1.0000
  H   H22       1.0  0.60112  0.98492  0.04472  1.0000
  H   H23       1.0  0.8351  0.0010300000000000133  0.45693  1.0000
  H   H24       1.0  0.42741999999999997  0.88235  0.4678  1.0000
  H   H25       1.0  0.33513  0.49798  0.54265  1.0000
  H   H26       1.0  0.5464  0.28594  0.33052  1.0000
  H   H27       1.0  0.20885  0.22842000000000004  0.17374  1.0000
  H   H28       1.0  0.06441  0.73338  0.72688  1.0000
  H   H29       1.0  0.29086999999999996  0.72826  0.1734  1.0000
  H   H30       1.0  0.43717  0.52358  0.029619999999999997  1.0000
  H   H31       1.0  0.56382  0.76727  0.27363  1.0000
  H   H32       1.0  0.71822  0.77557  0.71656  1.0000
  H   H33       1.0  0.59638  0.39197  0.46493  1.0000
  H   H34       1.0  0.56283  0.47640999999999994  0.97038  1.0000
  H   H35       1.0  0.79115  0.7715799999999999  0.8262599999999999  1.0000
  H   H36       1.0  0.32638  0.9850799999999998  0.47803  1.0000
  H   H37       1.0  0.9908  0.73408  0.61819  1.0000
  H   H38       1.0  0.69351  0.71392  0.22124  1.0000
  H   H39       1.0  0.52679  0.70513  0.77718  1.0000
  H   H40       1.0  0.06221  0.022640000000000004  0.030070000000000003  1.0000
  H   H41       1.0  0.4536  0.7140599999999998  0.66948  1.0000
  H   H42       1.0  0.28177  0.22442000000000004  0.28343999999999997  1.0000
  H   H43       1.0  0.73228  0.21996  0.11371999999999999  1.0000
  H   H44       1.0  0.89997  0.48568  0.0448  1.0000
  H   H45       1.0  0.09617  0.10859000000000003  0.53511  1.0000
  H   H46       1.0  0.14369  0.13034  0.030049999999999997  1.0000
  H   H47       1.0  0.57258  0.11765  0.5322  1.0000
  H   H48       1.0  0.027340000000000003  0.79423  0.22249999999999998  1.0000
  H   H49       1.0  0.78244  0.27592  0.71736  1.0000
  H   H50       1.0  0.8265  0.51462  0.5221499999999999  1.0000
  H   H51       1.0  0.67361  0.014919999999999996  0.52197  1.0000
  H   H52       1.0  0.23284  0.28057999999999994  0.8859799999999999  1.0000
  H   H53       1.0  0.1649  0.99896  0.54308  1.0000
  H   H54       1.0  0.8062  0.21344  0.22051999999999997  1.0000
  H   H55       1.0  0.10003  0.51432  0.9552000000000002  1.0000
  H   H56       1.0  0.97266  0.20577  0.7775  1.0000
  H   H57       1.0  0.07211000000000001  0.38235  0.46767  1.0000
  H   H58       1.0  0.9038299999999999  0.8914  0.46489  1.0000
  H   H59       1.0  0.93559  0.26662  0.27312  1.0000
  H   H60       1.0  0.39887  0.015080000000000005  0.95528  1.0000
  H   H61       1.0  0.85631  0.86966  0.9699499999999999  1.0000
  H   H62       1.0  0.18089  0.40598  0.95806  1.0000
  H   H63       1.0  0.04558  0.21362  0.66931  1.0000
  H   H64       1.0  0.40362  0.60802  0.53507  1.0000
  C   C1        1.0  0.05304  0.25752  0.33638  1.0000
  C   C2        1.0  0.9755  0.7456  0.8480199999999999  1.0000
  C   C3        1.0  0.30856  0.76563  0.83895  1.0000
  C   C4        1.0  0.09766  0.49148  0.48768999999999996  1.0000
  C   C5        1.0  0.83444  0.76287  0.78046  1.0000
  C   C6        1.0  0.34861  0.74561  0.3393  1.0000
  C   C7        1.0  0.88051  0.38044999999999995  0.4911499999999999  1.0000
  C   C8        1.0  0.01149  0.25829  0.2751  1.0000
  C   C9        1.0  0.41368  0.72923  0.7173  1.0000
  C   C10       1.0  0.36319  0.52123  0.01412  1.0000
  C   C11       1.0  0.42028  0.3708199999999999  0.50765  1.0000
  C   C12       1.0  0.58631  0.27076  0.28271  1.0000
  C   C13       1.0  0.27753  0.76189  0.65491  1.0000
  C   C14       1.0  0.69144  0.23437  0.16105  1.0000
  C   C15       1.0  0.53909  0.5623099999999998  0.49609999999999993  1.0000
  C   C16       1.0  0.15083  0.24612  0.33951  1.0000
  C   C17       1.0  0.44643999999999995  0.75727  0.33633  1.0000
  C   C18       1.0  0.1916  0.26611  0.83872  1.0000
  C   C19       1.0  0.57972  0.62918  0.49235  1.0000
  C   C20       1.0  0.16555999999999998  0.23712  0.21954999999999997  1.0000
  C   C21       1.0  0.6190699999999999  0.88062  0.49114  1.0000
  C   C22       1.0  0.55048  0.25674  0.09617  1.0000
  C   C23       1.0  0.73308  0.23042  0.22115  1.0000
  C   C24       1.0  0.30246  0.74684  0.40498  1.0000
  C   C25       1.0  0.02449  0.2544  0.15198  1.0000
  C   C26       1.0  0.94605  0.9388  0.47991  1.0000
  C   C27       1.0  0.11948  0.61955  0.50885  1.0000
  C   C28       1.0  0.8639499999999999  0.97933  0.9855  1.0000
  C   C29       1.0  0.55356  0.24273  0.66368  1.0000
  C   C30       1.0  0.3234  0.1453599999999999  0.9922699999999999  1.0000
  C   C31       1.0  0.7669  0.73051  0.22162  1.0000
  C   C32       1.0  0.19699  0.24762  0.40526  1.0000
  C   C33       1.0  0.44256000000000006  0.05796  0.50454  1.0000
  C   C34       1.0  0.70705  0.26577  0.72003  1.0000
  C   C35       1.0  0.05755  0.55806  0.50447  1.0000
  C   C36       1.0  0.69754  0.25315  0.59502  1.0000
  C   C37       1.0  0.2331  0.26948999999999995  0.77838  1.0000
  C   C38       1.0  0.54072  0.06602000000000001  0.51689  1.0000
  C   C39       1.0  0.31409  0.45772  0.99454  1.0000
  C   C40       1.0  0.4609  0.43769  0.5039  1.0000
  C   C41       1.0  0.80301  0.75238  0.59475  1.0000
  C   C42       1.0  0.68591  0.54228  0.00546  1.0000
  C   C43       1.0  0.86364  0.10719999999999999  0.0036900000000000006  1.0000
  C   C44       1.0  0.7935  0.76551  0.71972  1.0000
  C   C45       1.0  0.52458  0.24554999999999993  0.8479199999999999  1.0000
  C   C46       1.0  0.44595  0.56084  0.5201299999999999  1.0000
  C   C47       1.0  0.36357  0.39288999999999996  0.9949599999999998  1.0000
  C   C48       1.0  0.66601  0.26292  0.78063  1.0000
  C   C49       1.0  0.6766  0.85464  0.00773  1.0000
  C   C50       1.0  0.2065  0.23449  0.28028  1.0000
  C   C51       1.0  0.72334  0.9204499999999999  0.00695  1.0000
  C   C52       1.0  0.59699  0.25625  0.1613  1.0000
  C   C53       1.0  0.96078  0.06186  0.49574  1.0000
  C   C54       1.0  0.06781  0.24973000000000004  0.21673  1.0000
  C   C55       1.0  0.17356  0.64518  0.9928799999999999  1.0000
  C   C56       1.0  0.51207  0.24138  0.72473  1.0000
  C   C57       1.0  0.54544  0.27623999999999993  0.22298999999999997  1.0000
  C   C58       1.0  0.045  0.22428999999999996  0.77707  1.0000
  C   C59       1.0  0.81449  0.04249  0.00484  1.0000
  C   C60       1.0  0.26692  0.76958  0.77885  1.0000
  C   C61       1.0  0.93219  0.75026  0.78328  1.0000
  C   C62       1.0  0.03922  0.93813  0.50426  1.0000
  C   C63       1.0  0.17972  0.2526  0.71756  1.0000
  C   C64       1.0  0.98851  0.7417100000000001  0.7249  1.0000
  C   C65       1.0  0.72247  0.23810999999999996  0.34509999999999996  1.0000
  C   C66       1.0  0.77771  0.7397499999999998  0.34600999999999993  1.0000
  C   C67       1.0  0.44952  0.7432599999999999  0.9038299999999999  1.0000
  C   C68       1.0  0.13605  0.02067  0.01451  1.0000
  C   C69       1.0  0.68312  0.41814  0.98555  1.0000
  C   C70       1.0  0.48793  0.75861  0.27527  1.0000
  C   C71       1.0  0.21854  0.45549  0.97412  1.0000
  C   C72       1.0  0.9194  0.12798999999999996  0.49121999999999993  1.0000
  C   C73       1.0  0.13636  0.8927900000000001  0.9963099999999999  1.0000
  C   C74       1.0  0.31688  0.58186  0.014450000000000001  1.0000
  C   C75       1.0  0.31998  0.7530999999999999  0.71807  1.0000
  C   C76       1.0  0.94245  0.44194  0.49552999999999997  1.0000
  C   C77       1.0  0.78146  0.54451  0.02588  1.0000
  C   C78       1.0  0.94696  0.74248  0.66363  1.0000
  C   C79       1.0  0.45928  0.93397  0.48311  1.0000
  C   C80       1.0  0.55405  0.43916000000000005  0.4798700000000001  1.0000
  C   C81       1.0  0.82681  0.48414  0.027569999999999997  1.0000
  C   C82       1.0  0.7782  0.42029  0.00674  1.0000
  C   C83       1.0  0.8181  0.91865  0.98562  1.0000
  C   C84       1.0  0.67418  0.9838900000000002  0.02751  1.0000
  C   C85       1.0  0.18551000000000004  0.95751  0.9951599999999999  1.0000
  C   C86       1.0  0.47542  0.75445  0.15208  1.0000
  C   C87       1.0  0.9023300000000001  0.50851  0.51231  1.0000
  C   C88       1.0  0.1819  0.08134  0.014379999999999999  1.0000
  C   C89       1.0  0.40226  0.99134  0.4878  1.0000
  C   C90       1.0  0.59774  0.00866  0.5122  1.0000
  C   C91       1.0  0.95946  0.56601  0.51696  1.0000
  C   C92       1.0  0.71915  0.04441  0.02555  1.0000
  C   C93       1.0  0.05081  0.24333999999999997  0.90368  1.0000
  C   C94       1.0  0.955  0.7757  0.22293  1.0000
  C   C95       1.0  0.6513800000000001  0.25439  0.6607  1.0000
  C   C96       1.0  0.09287  0.9997399999999999  0.52437  1.0000
  C   C97       1.0  0.08574  0.22912999999999997  0.71711  1.0000
  C   C98       1.0  0.09703  0.24428999999999995  0.83867  1.0000
  C   C99       1.0  0.82028  0.74739  0.28244  1.0000
  C   C100      1.0  0.38093  0.11936999999999999  0.50886  1.0000
  C   C101      1.0  0.403  0.74375  0.8387  1.0000
  C   C102      1.0  0.63643  0.6071  0.00504  1.0000
  C   C103      1.0  0.28085  0.95559  0.97445  1.0000
  C   C104      1.0  0.45455  0.7237599999999997  0.7770099999999999  1.0000
  C   C105      1.0  0.94919  0.75666  0.09632  1.0000
  C   C106      1.0  0.43174  0.74991  0.21673  1.0000
  C   C107      1.0  0.0806  0.8720100000000001  0.50878  1.0000
  C   C108      1.0  0.90297  0.75571  0.16134  1.0000
  C   C109      1.0  0.56825  0.25008  0.78328  1.0000
  C   C110      1.0  0.04053999999999999  0.43399  0.48304  1.0000
  C   C111      1.0  0.27666  0.07954000000000004  0.9930599999999999  1.0000
  C   C112      1.0  0.2218  0.57971  0.99327  1.0000
  C   C113      1.0  0.90713  0.00025999999999999255  0.47563  1.0000
  C   C114      1.0  0.59284  0.50092  0.47589  1.0000
  C   C115      1.0  0.05395  0.061200000000000004  0.52009  1.0000
  C   C116      1.0  0.33399000000000006  0.73707  0.21937  1.0000
  C   C117      1.0  0.68002  0.2469  0.28193  1.0000
  C   C118      1.0  0.8084  0.73389  0.16129  1.0000
  C   C119      1.0  0.40716  0.49907  0.52411  1.0000
  C   C120      1.0  0.55744  0.9420299999999999  0.49546  1.0000
  C   C121      1.0  0.82644  0.35481  0.00713  1.0000
  C   C122      1.0  0.6368099999999999  0.4787700000000001  0.9858800000000001  1.0000
  C   C123      1.0  0.84917  0.75387  0.66049  1.0000
  C   C124      1.0  0.32581999999999994  0.016109999999999975  0.9724899999999999  1.0000
  C   C125      1.0  0.29295  0.73423  0.27997  1.0000
  C   C126      1.0  0.91426  0.77086  0.28289  1.0000
  C   C127      1.0  0.22228  0.26024  0.654  1.0000
  C   C128      1.0  0.17319  0.51586  0.97243  1.0000
  O   O1        1.0  0.85142  0.72798  0.53863  1.0000
  O   O2        1.0  0.45167  0.38615999999999995  0.9876999999999999  1.0000
  O   O3        1.0  0.6892499999999999  0.73968  0.35405  1.0000
  O   O4        1.0  0.03322  0.8158  0.48137  1.0000
  O   O5        1.0  0.04803  0.88626  0.9902899999999999  1.0000
  O   O6        1.0  0.07575  0.67381  0.50104  1.0000
  O   O7        1.0  0.90473  0.72764  0.03928  1.0000
  O   O8        1.0  0.54833  0.61384  0.0123  1.0000
  O   O9        1.0  0.21757  0.72716  0.40566  1.0000
  O   O10       1.0  0.40538  0.77272  0.9607499999999999  1.0000
  O   O11       1.0  0.71854  0.77284  0.59415  1.0000
  O   O12       1.0  0.6648  0.22932  0.39084  1.0000
  O   O13       1.0  0.59462  0.22727  0.03926  1.0000
  O   O14       1.0  0.65776  0.62945  0.46143999999999996  1.0000
  O   O15       1.0  0.29421  0.11975  0.51967  1.0000
  O   O16       1.0  0.16482  0.26658999999999994  0.6069  1.0000
  O   O17       1.0  0.31045  0.34285  0.00216  1.0000
  O   O18       1.0  0.43681  0.25375000000000003  0.8585400000000001  1.0000
  O   O19       1.0  0.9195399999999999  0.7305999999999999  0.8913699999999999  1.0000
  O   O20       1.0  0.96971  0.21632000000000007  0.9025000000000001  1.0000
  O   O21       1.0  0.78569  0.29689999999999994  0.9744699999999998  1.0000
  O   O22       1.0  0.03029  0.78367  0.0975  1.0000
  O   O23       1.0  0.5807  0.23356999999999997  0.89295  1.0000
  O   O24       1.0  0.46713999999999994  0.31501  0.4784399999999999  1.0000
  O   O25       1.0  0.18913  0.76032  0.64586  1.0000
  O   O26       1.0  0.42469  0.17351  0.50067  1.0000
  O   O27       1.0  0.70579  0.88024  0.4803299999999999  1.0000
  O   O28       1.0  0.57531  0.82648  0.49933  1.0000
  O   O29       1.0  0.95197  0.11374  0.00972  1.0000
  O   O30       1.0  0.53285  0.68499  0.52156  1.0000
  O   O31       1.0  0.28111  0.2027  0.02385  1.0000
  O   O32       1.0  0.9667700000000001  0.1842  0.51863  1.0000
  O   O33       1.0  0.21431  0.7031  0.02553  1.0000
  O   O34       1.0  0.68954  0.65714  0.99784  1.0000
  O   O35       1.0  0.93732  0.24346000000000004  0.13969999999999996  1.0000
  O   O36       1.0  0.83518  0.73341  0.3931  1.0000
  O   O37       1.0  0.90446  0.35729  0.03876  1.0000
  O   O38       1.0  0.14857  0.2720099999999999  0.46136999999999995  1.0000
  O   O39       1.0  0.09527  0.27235  0.96072  1.0000
  O   O40       1.0  0.08046  0.2694  0.10862999999999999  1.0000
  O   O41       1.0  0.56318  0.74625  0.14146  1.0000
  O   O42       1.0  0.79374  0.3801499999999999  0.48057  1.0000
  O   O43       1.0  0.28146  0.22716  0.40586  1.0000
  O   O44       1.0  0.46963  0.28394  0.09727  1.0000
  O   O45       1.0  0.53037  0.71605  0.90273  1.0000
  O   O46       1.0  0.40158  0.14338999999999993  0.96115  1.0000
  O   O47       1.0  0.41929999999999995  0.76642  0.10705  1.0000
  O   O48       1.0  0.81087  0.23967  0.35415  1.0000
  O   O49       1.0  0.1599  0.87275  0.53859  1.0000
  O   O50       1.0  0.78243  0.27284  0.59434  1.0000
  O   O51       1.0  0.3352  0.77067  0.6091599999999999  1.0000
  O   O52       1.0  0.09554  0.64271  0.96125  1.0000
  O   O53       1.0  0.6487  0.22972999999999996  0.53885  1.0000
  O   O54       1.0  0.20626  0.61985  0.51943  1.0000
  O   O55       1.0  0.8101800000000001  0.15718  0.99713  1.0000
  O   O56       1.0  0.3513  0.77027  0.46115000000000006  1.0000
  O   O57       1.0  0.84009  0.12723999999999996  0.46140999999999993  1.0000
  O   O58       1.0  0.92425  0.32619  0.49896  1.0000
  O   O59       1.0  0.31074  0.26031  0.64595  1.0000
  O   O60       1.0  0.59841  0.8566100000000001  0.03885  1.0000
  O   O61       1.0  0.71889  0.7973  0.97615  1.0000
  O   O62       1.0  0.34223999999999993  0.37055  0.53856  1.0000
  O   O63       1.0  0.18982  0.84281  0.00287  1.0000
  O   O64       1.0  0.06268  0.7565299999999999  0.8602999999999998  1.0000
